REMARK  Name = ZINC13353938
REMARK  11 active torsions:
REMARK  status: ('A' for Active; 'I' for Inactive)
REMARK    1  A    between atoms: C_1  and  C_2
REMARK    2  A    between atoms: C_3  and  C_30
REMARK    3  A    between atoms: N_9  and  C_27
REMARK    4  A    between atoms: C_10  and  S_12
REMARK    5  A    between atoms: S_12  and  C_13
REMARK    6  A    between atoms: C_13  and  C_14
REMARK    7  A    between atoms: N_16  and  C_17
REMARK    8  A    between atoms: C_19  and  C_25
REMARK    9  A    between atoms: C_21  and  C_23
REMARK   10  A    between atoms: C_27  and  C_28
REMARK   11  A    between atoms: C_27  and  C_29
REMARK                            x       y       z     vdW  Elec       q    Type
REMARK                         _______ _______ _______ _____ _____    ______ ____
ROOT
ATOM      1  C   UNL     1      -2.182   2.461   0.099  0.00  0.00    +0.173 C 
ENDROOT
BRANCH   1   2
ATOM      2  C   UNL     1      -1.215   3.604  -0.068  0.00  0.00    +0.227 C 
ATOM      3  O   UNL     1      -1.629   4.739  -0.175  0.00  0.00    -0.275 OA
ATOM      4  N   UNL     1       0.112   3.365  -0.100  0.00  0.00    -0.285 N 
ATOM      5  H   UNL     1       0.440   2.453  -0.085  0.00  0.00    +0.155 HD
BRANCH   4   6
ATOM      6  C   UNL     1       1.014   4.434  -0.159  0.00  0.00    +0.035 A 
ATOM      7  C   UNL     1       0.695   5.569  -0.889  0.00  0.00    +0.038 A 
ATOM      8  C   UNL     1       1.591   6.638  -0.947  0.00  0.00    +0.066 A 
ATOM      9  C   UNL     1       2.811   6.560  -0.277  0.00  0.00    +0.030 A 
ATOM     10  C   UNL     1       3.130   5.416   0.452  0.00  0.00    +0.066 A 
ATOM     11  C   UNL     1       2.227   4.352   0.509  0.00  0.00    +0.038 A 
BRANCH  10  12
ATOM     12  C   UNL     1       4.421   5.329   1.165  0.00  0.00    +0.387 C 
ATOM     13  O   UNL     1       4.698   4.332   1.800  0.00  0.00    -0.241 OA
ATOM     14  O   UNL     1       5.292   6.356   1.109  0.00  0.00    -0.241 OA
ENDBRANCH  10  12
BRANCH   8  15
ATOM     15  C   UNL     1       1.249   7.849  -1.721  0.00  0.00    +0.387 C 
ATOM     16  O   UNL     1       0.185   7.917  -2.304  0.00  0.00    -0.241 OA
ATOM     17  O   UNL     1       2.115   8.879  -1.779  0.00  0.00    -0.241 OA
ENDBRANCH   8  15
ENDBRANCH   4   6
ENDBRANCH   1   2
BRANCH   1  18
ATOM     18  S   UNL     1      -3.876   3.100   0.102  0.00  0.00    -0.078 S 
BRANCH  18  28
ATOM     19  C   UNL     1      -8.201  -2.299   0.882  0.00  0.00    +0.045 C 
ATOM     20  C   UNL     1      -6.711  -2.090   0.795  0.00  0.00    -0.026 A 
ATOM     21  C   UNL     1      -5.874  -3.135   0.873  0.00  0.00    -0.008 A 
ATOM     22  S   UNL     1      -4.263  -2.387   0.720  0.00  0.00    -0.073 S 
ATOM     23  C   UNL     1      -4.761  -0.692   0.556  0.00  0.00    +0.117 A 
ATOM     24  C   UNL     1      -6.165  -0.755   0.624  0.00  0.00    +0.075 A 
ATOM     25  C   UNL     1      -6.850   0.496   0.517  0.00  0.00    +0.263 A 
ATOM     26  O   UNL     1      -8.068   0.540   0.566  0.00  0.00    -0.267 OA
ATOM     27  N   UNL     1      -6.133   1.625   0.362  0.00  0.00    -0.285 N 
ATOM     28  C   UNL     1      -4.770   1.595   0.306  0.00  0.00    +0.173 A 
ATOM     29  N   UNL     1      -4.114   0.456   0.397  0.00  0.00    -0.216 NA
ATOM     30  C   UNL     1      -6.214  -4.593   1.048  0.00  0.00    +0.052 C 
BRANCH  27  31
ATOM     31  C   UNL     1      -6.830   2.909   0.252  0.00  0.00    +0.087 C 
ATOM     32  C   UNL     1      -7.774   2.876  -0.951  0.00  0.00    +0.031 C 
ATOM     33  C   UNL     1      -7.637   3.162   1.527  0.00  0.00    +0.031 C 
ENDBRANCH  27  31
ENDBRANCH  18  28
ENDBRANCH   1  18
TORSDOF 7
