REMARK  Name = ZINC64684849
REMARK  10 active torsions:
REMARK  status: ('A' for Active; 'I' for Inactive)
REMARK    1  A    between atoms: C_1  and  C_2
REMARK    2  A    between atoms: C_2  and  C_3
REMARK    3  A    between atoms: C_2  and  N_4
REMARK    4  A    between atoms: C_5  and  S_10
REMARK    5  A    between atoms: S_10  and  C_11
REMARK    6  A    between atoms: C_11  and  C_12
REMARK    7  A    between atoms: N_14  and  CA_15
REMARK    8  A    between atoms: CA_15  and  CB_17
REMARK    9  A    between atoms: CA_15  and  C_27
REMARK   10  A    between atoms: CB_17  and  CG_18
REMARK                            x       y       z     vdW  Elec       q    Type
REMARK                         _______ _______ _______ _____ _____    ______ ____
ROOT
ATOM      1  C   UNK A   0      -0.605  -4.012   3.844  0.00  0.00    +0.224 C 
ATOM      2  O   UNK A   0      -1.808  -3.966   3.990  0.00  0.00    -0.275 OA
ATOM      3  N   TRP A   1       0.067  -5.143   4.137  0.00  0.00    -0.301 N 
ATOM      4  H   TRP A   1       1.030  -5.179   4.020  0.00  0.00    +0.150 HD
ENDROOT
BRANCH   1   5
ATOM      5  C   UNK A   0       0.139  -2.804   3.334  0.00  0.00    +0.167 C 
BRANCH   5   6
ATOM      6  S   UNK A   0      -1.035  -1.454   3.033  0.00  0.00    -0.117 S 
BRANCH   6   8
ATOM      7  N   UNK A   0       0.713  -0.491   1.192  0.00  0.00    -0.228 NA
ATOM      8  C   UNK A   0       0.005  -0.095   2.432  0.00  0.00    +0.184 C 
ATOM      9  N   UNK A   0       1.102   0.192   3.394  0.00  0.00    -0.323 NA
ATOM     10  N   UNK A   0       2.125   0.820   2.543  0.00  0.00    +0.409 N 
ATOM     11  N   UNK A   0       2.052   0.088   1.276  0.00  0.00    -0.280 NA
ATOM     12  H   UNK A   0       0.794   0.826   4.116  0.00  0.00    +0.106 HD
ATOM     13  H   UNK A   0       1.912   1.795   2.398  0.00  0.00    -0.032 HD
ATOM     14  H   UNK A   0       2.231   0.700   0.494  0.00  0.00    +0.121 HD
ATOM     15  H   UNK A   0       3.039   0.716   2.957  0.00  0.00    -0.032 HD
BRANCH   7  17
ATOM     16  C   UNK A   0      -0.019   1.526   0.010  0.00  0.00    +0.025 C 
ATOM     17  C   UNK A   0       0.002  -0.004   0.002  0.00  0.00    +0.067 C 
ATOM     18  C   UNK A   0       0.718  -0.497  -1.257  0.00  0.00    +0.025 C 
ENDBRANCH   7  17
ENDBRANCH   6   8
ENDBRANCH   5   6
ENDBRANCH   1   5
BRANCH   3  19
ATOM     19  CA  TRP A   1      -0.655  -6.316   4.633  0.00  0.00    +0.190 C 
BRANCH  19  20
ATOM     20  C   TRP A   1      -0.831  -6.205   6.126  0.00  0.00    +0.376 C 
ATOM     21  O   TRP A   1      -1.801  -6.709   6.665  0.00  0.00    -0.244 OA
ATOM     22  OXT TRP A   1      -0.003  -5.610   6.794  0.00  0.00    -0.244 OA
ENDBRANCH  19  20
BRANCH  19  23
ATOM     23  CB  TRP A   1       0.141  -7.581   4.306  0.00  0.00    +0.067 C 
BRANCH  23  24
ATOM     24  CG  TRP A   1       0.211  -7.758   2.812  0.00  0.00    -0.039 C 
ATOM     25  CD2 TRP A   1       1.210  -7.359   1.991  0.00  0.00    -0.001 A 
ATOM     26  CE3 TRP A   1       2.481  -6.666   2.236  0.00  0.00    +0.010 A 
ATOM     27  CZ3 TRP A   1       3.292  -6.395   1.189  0.00  0.00    +0.001 A 
ATOM     28  CH2 TRP A   1       2.952  -6.759  -0.121  0.00  0.00    +0.002 A 
ATOM     29  CZ2 TRP A   1       1.802  -7.398  -0.425  0.00  0.00    +0.026 A 
ATOM     30  CE2 TRP A   1       0.874  -7.733   0.599  0.00  0.00    +0.043 A 
ATOM     31  NE1 TRP A   1      -0.288  -8.339   0.560  0.00  0.00    -0.380 N 
ATOM     32  CD1 TRP A   1      -0.818  -8.424   1.925  0.00  0.00    +0.144 C 
ATOM     33  HE1 TRP A   1      -0.723  -8.678  -0.238  0.00  0.00    +0.160 HD
ENDBRANCH  23  24
ENDBRANCH  19  23
ENDBRANCH   3  19
TORSDOF 8
