REMARK  Name = ZINC14920852
REMARK  10 active torsions:
REMARK  status: ('A' for Active; 'I' for Inactive)
REMARK    1  A    between atoms: C_1  and  C_2
REMARK    2  A    between atoms: C_2  and  C_4
REMARK    3  A    between atoms: C_2  and  N_52
REMARK    4  A    between atoms: N_6  and  C_7
REMARK    5  A    between atoms: C_8  and  C_15
REMARK    6  A    between atoms: C_18  and  N_52
REMARK    7  A    between atoms: C_19  and  C_20
REMARK    8  A    between atoms: C_19  and  N_52
REMARK    9  A    between atoms: C_20  and  O_21
REMARK   10  A    between atoms: O_21  and  C_22
REMARK                            x       y       z     vdW  Elec       q    Type
REMARK                         _______ _______ _______ _____ _____    ______ ____
ROOT
ATOM      1  C   UNL     1       1.148  -0.929   0.894  0.00  0.00    +0.204 C 
ATOM      2  O   UNL     1       2.097  -1.504   0.403  0.00  0.00    -0.277 OA
ATOM      3  N   UNL     1       0.947  -0.976   2.225  0.00  0.00    -0.281 N 
ATOM      4  H   UNL     1       0.189  -0.517   2.618  0.00  0.00    +0.155 HD
ENDROOT
BRANCH   3   5
ATOM      5  C   UNL     1       1.825  -1.683   3.034  0.00  0.00    +0.084 A 
ATOM      6  C   UNL     1       1.789  -1.841   4.409  0.00  0.00    +0.068 A 
ATOM      7  C   UNL     1       2.843  -2.647   5.025  0.00  0.00    -0.023 A 
ATOM      8  C   UNL     1       3.754  -3.147   4.170  0.00  0.00    -0.004 A 
ATOM      9  S   UNL     1       3.235  -2.573   2.571  0.00  0.00    -0.077 S 
ATOM     10  C   UNL     1       4.804  -3.959   4.876  0.00  0.00    +0.043 C 
ATOM     11  C   UNL     1       4.192  -4.268   6.261  0.00  0.00    +0.010 C 
ATOM     12  C   UNL     1       3.213  -3.091   6.441  0.00  0.00    +0.037 C 
BRANCH   6  13
ATOM     13  C   UNL     1       0.731  -1.228   5.218  0.00  0.00    +0.244 C 
ATOM     14  O   UNL     1      -0.298  -1.839   5.438  0.00  0.00    -0.270 OA
ATOM     15  N   UNL     1       0.899   0.013   5.716  0.00  0.00    -0.325 N 
ATOM     16  H   UNL     1       1.719   0.500   5.541  0.00  0.00    +0.145 HD
ATOM     17  H   UNL     1       0.199   0.419   6.252  0.00  0.00    +0.145 HD
ENDBRANCH   6  13
ENDBRANCH   3   5
BRANCH   1  19
ATOM     18  C   UNL     1       0.671   1.287  -0.111  0.00  0.00    -0.004 C 
ATOM     19  C   UNL     1       0.195  -0.161   0.015  0.00  0.00    +0.016 C 
BRANCH  19  21
ATOM     20  C   UNL     1      -0.241  -2.193  -1.229  0.00  0.00    -0.095 C 
ATOM     21  N   UNL     1       0.177  -0.778  -1.328  0.00  0.00    +0.387 N 
ATOM     22  H   UNL     1       1.122  -0.738  -1.727  0.00  0.00    -0.081 HD
BRANCH  21  23
ATOM     23  C   UNL     1      -0.749  -0.039  -2.212  0.00  0.00    -0.037 C 
BRANCH  23  24
ATOM     24  C   UNL     1      -0.465  -0.435  -3.662  0.00  0.00    +0.210 C 
BRANCH  24  25
ATOM     25  O   UNL     1      -0.832  -1.801  -3.864  0.00  0.00    -0.494 OA
BRANCH  25  26
ATOM     26  C   UNL     1      -0.642  -2.313  -5.108  0.00  0.00    +0.120 A 
ATOM     27  C   UNL     1      -0.118  -1.516  -6.116  0.00  0.00    +0.045 A 
ATOM     28  C   UNL     1       0.080  -2.042  -7.378  0.00  0.00    +0.004 A 
ATOM     29  C   UNL     1      -0.255  -3.357  -7.641  0.00  0.00    +0.000 A 
ATOM     30  C   UNL     1      -0.783  -4.152  -6.640  0.00  0.00    +0.004 A 
ATOM     31  C   UNL     1      -0.977  -3.633  -5.375  0.00  0.00    +0.045 A 
ENDBRANCH  25  26
ENDBRANCH  24  25
ENDBRANCH  23  24
ENDBRANCH  21  23
ENDBRANCH  19  21
ENDBRANCH   1  19
TORSDOF 8
