REMARK  Name = ZINC35920752
REMARK  9 active torsions:
REMARK  status: ('A' for Active; 'I' for Inactive)
REMARK    1  A    between atoms: C_1  and  C_2
REMARK    2  A    between atoms: C_4  and  O_9
REMARK    3  A    between atoms: O_9  and  C_10
REMARK    4  A    between atoms: N_19  and  C_22
REMARK    5  A    between atoms: C_27  and  C_29
REMARK    6  A    between atoms: C_31  and  O_37
REMARK    7  A    between atoms: C_33  and  O_35
REMARK    8  A    between atoms: O_35  and  C_36
REMARK    9  A    between atoms: O_37  and  C_38
REMARK                            x       y       z     vdW  Elec       q    Type
REMARK                         _______ _______ _______ _____ _____    ______ ____
ROOT
ATOM      1  C   UNL     1       0.641  -4.280  -2.216  0.00  0.00    +0.230 A 
ATOM      2  C   UNL     1       0.618  -4.964  -3.435  0.00  0.00    +0.053 A 
ATOM      3  C   UNL     1       0.724  -6.334  -3.426  0.00  0.00    +0.056 A 
ATOM      4  N   UNL     1       0.832  -6.962  -2.257  0.00  0.00    -0.219 NA
ATOM      5  C   UNL     1       0.850  -6.291  -1.118  0.00  0.00    +0.221 A 
ATOM      6  N   UNL     1       0.765  -4.969  -1.089  0.00  0.00    -0.179 NA
ATOM      7  N   UNL     1       0.966  -6.986   0.073  0.00  0.00    -0.303 N 
ATOM      8  C   UNL     1       1.197  -8.438   0.082  0.00  0.00    +0.089 C 
ATOM      9  C   UNL     1       2.383  -8.736   1.005  0.00  0.00    -0.060 C 
ATOM     10  N   UNL     1       2.130  -8.155   2.329  0.00  0.00    +0.380 N 
ATOM     11  C   UNL     1       2.065  -6.692   2.229  0.00  0.00    -0.060 C 
ATOM     12  C   UNL     1       0.869  -6.292   1.367  0.00  0.00    +0.089 C 
ATOM     13  C   UNL     1       3.215  -8.534   3.244  0.00  0.00    -0.096 C 
ATOM     14  C   UNL     1       0.740  -7.161  -4.683  0.00  0.00    +0.075 C 
ATOM     15  C   UNL     1       0.139  -6.381  -5.852  0.00  0.00    +0.114 C 
ATOM     16  N   UNL     1       0.739  -5.036  -5.859  0.00  0.00    -0.293 N 
ATOM     17  C   UNL     1       0.469  -4.170  -4.706  0.00  0.00    +0.150 C 
ATOM     18  C   UNL     1       1.506  -4.617  -6.885  0.00  0.00    +0.247 C 
ATOM     19  O   UNL     1       1.799  -5.387  -7.779  0.00  0.00    -0.270 OA
ATOM     20  H   UNL     1       1.254  -8.506   2.687  0.00  0.00    -0.082 HD
ENDROOT
BRANCH  18  21
ATOM     21  C   UNL     1       1.992  -3.221  -6.923  0.00  0.00    +0.044 A 
ATOM     22  C   UNL     1       3.214  -2.922  -7.526  0.00  0.00    +0.059 A 
ATOM     23  C   UNL     1       3.665  -1.613  -7.560  0.00  0.00    +0.124 A 
ATOM     24  C   UNL     1       2.904  -0.600  -6.995  0.00  0.00    +0.091 A 
ATOM     25  C   UNL     1       1.688  -0.893  -6.394  0.00  0.00    +0.124 A 
ATOM     26  C   UNL     1       1.227  -2.199  -6.361  0.00  0.00    +0.059 A 
BRANCH  25  27
ATOM     27  O   UNL     1       0.947   0.103  -5.842  0.00  0.00    -0.495 OA
ATOM     28  C   UNL     1       1.480   1.426  -5.917  0.00  0.00    +0.277 C 
ENDBRANCH  25  27
BRANCH  23  29
ATOM     29  O   UNL     1       4.856  -1.320  -8.147  0.00  0.00    -0.495 OA
ATOM     30  C   UNL     1       5.260   0.050  -8.146  0.00  0.00    +0.277 C 
ENDBRANCH  23  29
ENDBRANCH  18  21
BRANCH   1  31
ATOM     31  O   UNL     1       0.545  -2.929  -2.186  0.00  0.00    -0.438 OA
BRANCH  31  35
ATOM     32  C   UNL     1      -1.446  -0.501   1.551  0.00  0.00    +0.047 C 
ATOM     33  C   UNL     1      -0.252  -1.110   0.863  0.00  0.00    -0.012 A 
ATOM     34  C   UNL     1      -0.405  -1.744  -0.355  0.00  0.00    +0.052 A 
ATOM     35  C   UNL     1       0.694  -2.304  -0.988  0.00  0.00    +0.131 A 
ATOM     36  C   UNL     1       1.947  -2.228  -0.396  0.00  0.00    +0.049 A 
ATOM     37  C   UNL     1       2.098  -1.594   0.821  0.00  0.00    +0.042 A 
ATOM     38  C   UNL     1       1.000  -1.030   1.449  0.00  0.00    +0.127 A 
ATOM     39  F   UNL     1       1.149  -0.405   2.638  0.00  0.00    -0.205 F 
ENDBRANCH  31  35
ENDBRANCH   1  31
TORSDOF 5
