REMARK  Name = ZINC08532655
REMARK  8 active torsions:
REMARK  status: ('A' for Active; 'I' for Inactive)
REMARK    1  A    between atoms: C_1  and  C_2
REMARK    2  A    between atoms: C_2  and  C_3
REMARK    3  A    between atoms: C_2  and  N_37
REMARK    4  A    between atoms: C_4  and  C_5
REMARK    5  A    between atoms: C_4  and  N_37
REMARK    6  A    between atoms: C_8  and  C_9
REMARK    7  A    between atoms: C_8  and  N_37
REMARK    8  A    between atoms: N_11  and  C_12
REMARK                            x       y       z     vdW  Elec       q    Type
REMARK                         _______ _______ _______ _____ _____    ______ ____
ROOT
ATOM      1  C   UNL     1       2.535   0.998   0.076  0.00  0.00    +0.020 C 
ENDROOT
BRANCH   1   2
ATOM      2  C   UNL     1       2.155   0.854   1.527  0.00  0.00    +0.201 C 
ATOM      3  O   UNL     1       2.793   1.431   2.382  0.00  0.00    -0.278 OA
ATOM      4  N   UNL     1       1.106   0.083   1.875  0.00  0.00    -0.287 N 
ATOM      5  H   UNL     1       0.553  -0.323   1.188  0.00  0.00    +0.155 HD
BRANCH   4   6
ATOM      6  C   UNL     1       0.810  -0.128   3.226  0.00  0.00    +0.033 A 
ATOM      7  C   UNL     1       0.309  -1.353   3.646  0.00  0.00    +0.024 A 
ATOM      8  C   UNL     1       0.024  -1.560   4.981  0.00  0.00    +0.016 A 
ATOM      9  C   UNL     1       0.225  -0.544   5.899  0.00  0.00    +0.013 A 
ATOM     10  C   UNL     1       0.718   0.679   5.482  0.00  0.00    +0.016 A 
ATOM     11  C   UNL     1       1.011   0.890   4.149  0.00  0.00    +0.024 A 
ATOM     12  I   UNL     1      -0.218  -0.860   7.922  0.00  0.00    -0.044 I 
ENDBRANCH   4   6
ENDBRANCH   1   2
BRANCH   1  13
ATOM     13  N   UNL     1       3.769   1.808  -0.012  0.00  0.00    +0.393 N 
ATOM     14  H   UNL     1       3.706   2.585   0.656  0.00  0.00    -0.080 HD
BRANCH  13  16
ATOM     15  C   UNL     1       3.709   1.259  -2.421  0.00  0.00    -0.013 C 
ATOM     16  C   UNL     1       3.917   2.357  -1.376  0.00  0.00    -0.074 C 
ATOM     17  C   UNL     1       2.875   3.458  -1.579  0.00  0.00    -0.013 C 
ENDBRANCH  13  16
BRANCH  13  18
ATOM     18  C   UNL     1       4.943   0.977   0.329  0.00  0.00    +0.019 C 
BRANCH  18  19
ATOM     19  C   UNL     1       6.152   1.870   0.448  0.00  0.00    +0.194 C 
ATOM     20  O   UNL     1       6.047   3.062   0.252  0.00  0.00    -0.278 OA
ATOM     21  N   UNL     1       7.350   1.343   0.771  0.00  0.00    -0.331 N 
ATOM     22  H   UNL     1       7.434   0.389   0.927  0.00  0.00    +0.145 HD
ATOM     23  H   UNL     1       8.127   1.917   0.847  0.00  0.00    +0.145 HD
ENDBRANCH  18  19
ENDBRANCH  13  18
ENDBRANCH   1  13
TORSDOF 6
