REMARK  Name = ZINC64173483
REMARK  10 active torsions:
REMARK  status: ('A' for Active; 'I' for Inactive)
REMARK    1  A    between atoms: C_1  and  C_2
REMARK    2  A    between atoms: C_2  and  N_3
REMARK    3  A    between atoms: N_3  and  C_4
REMARK    4  A    between atoms: N_3  and  S_6
REMARK    5  A    between atoms: C_4  and  C_5
REMARK    6  A    between atoms: S_6  and  N_9
REMARK    7  A    between atoms: N_17  and  C_18
REMARK    8  A    between atoms: C_18  and  C_19
REMARK    9  A    between atoms: C_19  and  C_21
REMARK   10  A    between atoms: C_19  and  C_27
REMARK                            x       y       z     vdW  Elec       q    Type
REMARK                         _______ _______ _______ _____ _____    ______ ____
ROOT
ATOM      1  N   UNL     1       3.760   0.592   1.251  0.00  0.00    -0.163 NA
ATOM      2  C   UNL     1       4.030   1.704   0.329  0.00  0.00    +0.129 C 
ATOM      3  C   UNL     1       3.289   2.949   0.832  0.00  0.00    +0.126 C 
ATOM      4  N   UNL     1       3.584   3.126   2.261  0.00  0.00    -0.283 N 
ATOM      5  C   UNL     1       3.314   2.013   3.183  0.00  0.00    +0.126 C 
ATOM      6  C   UNL     1       4.050   0.770   2.680  0.00  0.00    +0.129 C 
ATOM      7  C   UNL     1       4.094   4.287   2.718  0.00  0.00    +0.302 C 
ATOM      8  O   UNL     1       4.228   5.230   1.963  0.00  0.00    -0.253 OA
ATOM      9  N   UNL     1       4.455   4.402   4.011  0.00  0.00    -0.299 N 
ATOM     10  H   UNL     1       4.417   3.629   4.596  0.00  0.00    +0.150 HD
ENDROOT
BRANCH   1  11
ATOM     11  S   UNL     1       3.134  -0.835   0.690  0.00  0.00    +0.100 S 
ATOM     12  O   UNL     1       3.591  -1.853   1.570  0.00  0.00    -0.141 OA
ATOM     13  O   UNL     1       3.386  -0.867  -0.708  0.00  0.00    -0.141 OA
BRANCH  11  14
ATOM     14  N   UNL     1       1.490  -0.754   0.873  0.00  0.00    -0.167 NA
BRANCH  14  16
ATOM     15  C   UNL     1       0.363   1.117  -0.227  0.00  0.00    +0.022 C 
ATOM     16  C   UNL     1       0.644  -0.386  -0.265  0.00  0.00    +0.107 C 
ENDBRANCH  14  16
BRANCH  14  17
ATOM     17  C   UNL     1       0.882  -1.050   2.173  0.00  0.00    +0.107 C 
ATOM     18  C   UNL     1       0.448  -2.516   2.211  0.00  0.00    +0.022 C 
ENDBRANCH  14  17
ENDBRANCH  11  14
ENDBRANCH   1  11
BRANCH   9  19
ATOM     19  C   UNL     1       4.905   5.694   4.534  0.00  0.00    +0.114 C 
BRANCH  19  20
ATOM     20  C   UNL     1       5.371   5.525   5.981  0.00  0.00    +0.048 C 
BRANCH  20  21
ATOM     21  C   UNL     1       6.569   4.611   6.020  0.00  0.00    -0.036 C 
ATOM     22  C   UNL     1       6.669   3.429   6.670  0.00  0.00    -0.001 A 
ATOM     23  C   UNL     1       5.730   2.670   7.503  0.00  0.00    +0.010 A 
ATOM     24  C   UNL     1       6.127   1.489   8.030  0.00  0.00    +0.001 A 
ATOM     25  C   UNL     1       7.410   0.974   7.801  0.00  0.00    +0.002 A 
ATOM     26  C   UNL     1       8.329   1.614   7.046  0.00  0.00    +0.026 A 
ATOM     27  C   UNL     1       8.018   2.864   6.442  0.00  0.00    +0.043 A 
ATOM     28  N   UNL     1       8.724   3.665   5.682  0.00  0.00    -0.380 N 
ATOM     29  C   UNL     1       7.900   4.828   5.335  0.00  0.00    +0.145 C 
ATOM     30  H   UNL     1       9.638   3.512   5.393  0.00  0.00    +0.160 HD
ENDBRANCH  20  21
BRANCH  20  31
ATOM     31  C   UNL     1       5.751   6.890   6.558  0.00  0.00    +0.063 C 
ATOM     32  C   UNL     1       4.504   7.791   6.757  0.00  0.00    +0.042 C 
ATOM     33  C   UNL     1       4.618   8.581   8.021  0.00  0.00    -0.019 C 
ATOM     34  C   UNL     1       5.472   8.207   8.954  0.00  0.00    +0.036 C 
ATOM     35  S   UNL     1       6.290   6.755   8.314  0.00  0.00    -0.129 S 
ENDBRANCH  20  31
ENDBRANCH  19  20
ENDBRANCH   9  19
TORSDOF 8
