REMARK  Name = ZINC20467407
REMARK  12 active torsions:
REMARK  status: ('A' for Active; 'I' for Inactive)
REMARK    1  A    between atoms: C_1  and  C_2
REMARK    2  A    between atoms: C_4  and  N_32
REMARK    3  A    between atoms: C_8  and  C_31
REMARK    4  A    between atoms: C_11  and  O_30
REMARK    5  A    between atoms: C_13  and  C_17
REMARK    6  A    between atoms: C_17  and  C_19
REMARK    7  A    between atoms: C_17  and  C_20
REMARK    8  A    between atoms: N_22  and  C_23
REMARK    9  A    between atoms: C_23  and  C_24
REMARK   10  A    between atoms: C_24  and  N_25
REMARK   11  A    between atoms: N_32  and  S_33
REMARK   12  A    between atoms: S_33  and  C_36
REMARK                            x       y       z     vdW  Elec       q    Type
REMARK                         _______ _______ _______ _____ _____    ______ ____
ROOT
ATOM      1  C   UNL     1       0.356  -6.642  -2.610  0.00  0.00    +0.009 C 
ATOM      2  C   UNL     1       1.825  -6.221  -2.553  0.00  0.00    +0.011 C 
ATOM      3  C   UNL     1       2.619  -7.248  -1.743  0.00  0.00    +0.079 C 
ATOM      4  C   UNL     1       4.089  -6.827  -1.686  0.00  0.00    +0.021 C 
ATOM      5  C   UNL     1       4.201  -5.455  -1.018  0.00  0.00    +0.008 C 
ATOM      6  C   UNL     1       3.407  -4.427  -1.828  0.00  0.00    -0.027 C 
ATOM      7  C   UNL     1       1.937  -4.848  -1.885  0.00  0.00    +0.028 C 
ATOM      8  C   UNL     1       1.143  -3.821  -2.695  0.00  0.00    +0.122 C 
ATOM      9  C   UNL     1       1.255  -2.449  -2.027  0.00  0.00    +0.029 C 
ATOM     10  C   UNL     1       2.725  -2.028  -1.970  0.00  0.00    +0.007 C 
ATOM     11  C   UNL     1       3.519  -3.055  -1.160  0.00  0.00    +0.007 C 
ATOM     12  C   UNL     1       3.971  -4.351  -3.248  0.00  0.00    +0.011 C 
ENDROOT
BRANCH   9  13
ATOM     13  C   UNL     1       0.691  -2.525  -0.607  0.00  0.00    +0.077 C 
ATOM     14  C   UNL     1      -0.752  -3.032  -0.658  0.00  0.00    +0.017 C 
BRANCH  13  15
ATOM     15  C   UNL     1       0.720  -1.155   0.020  0.00  0.00    +0.216 C 
ATOM     16  O   UNL     1       1.151  -0.211  -0.608  0.00  0.00    -0.276 OA
ATOM     17  N   UNL     1       0.269  -0.980   1.277  0.00  0.00    -0.317 N 
ATOM     18  H   UNL     1      -0.121  -1.836   1.846  0.00  0.00    +0.149 HD
BRANCH  17  19
ATOM     19  C   UNL     1       0.298   0.352   1.887  0.00  0.00    +0.085 C 
BRANCH  19  20
ATOM     20  C   UNL     1      -0.267   0.276   3.307  0.00  0.00    -0.060 C 
BRANCH  20  21
ATOM     21  N   UNL     1      -0.238   1.612   3.917  0.00  0.00    +0.381 N 
ATOM     22  C   UNL     1      -0.902   2.612   3.043  0.00  0.00    -0.079 C 
ATOM     23  C   UNL     1      -1.245   3.765   4.019  0.00  0.00    -0.020 C 
ATOM     24  C   UNL     1      -1.644   3.017   5.312  0.00  0.00    -0.020 C 
ATOM     25  C   UNL     1      -0.989   1.628   5.192  0.00  0.00    -0.079 C 
ATOM     26  H   UNL     1       0.826   1.847   4.073  0.00  0.00    -0.082 HD
ENDBRANCH  20  21
ENDBRANCH  19  20
ENDBRANCH  17  19
ENDBRANCH  13  15
ENDBRANCH   9  13
BRANCH   8  27
ATOM     27  O   UNL     1      -0.229  -4.215  -2.748  0.00  0.00    -0.391 OA
ATOM     28  H   UNL     1      -0.958  -3.595  -3.291  0.00  0.00    +0.210 HD
ENDBRANCH   8  27
BRANCH   3  29
ATOM     29  N   UNL     1       2.512  -8.562  -2.382  0.00  0.00    -0.191 NA
ATOM     30  H   UNL     1       2.303  -8.634  -3.460  0.00  0.00    +0.148 HD
BRANCH  29  31
ATOM     31  S   UNL     1       2.459  -9.932  -1.454  0.00  0.00    +0.027 S 
ATOM     32  O   UNL     1       2.381 -11.000  -2.389  0.00  0.00    -0.158 OA
ATOM     33  O   UNL     1       3.569  -9.818  -0.575  0.00  0.00    -0.158 OA
ATOM     34  C   UNL     1       0.908  -9.804  -0.522  0.00  0.00    +0.214 C 
ENDBRANCH  29  31
ENDBRANCH   3  29
TORSDOF 8
