REMARK  Name = ZINC63623146
REMARK  10 active torsions:
REMARK  status: ('A' for Active; 'I' for Inactive)
REMARK    1  A    between atoms: C_1  and  C_2
REMARK    2  A    between atoms: C_5  and  C_18
REMARK    3  A    between atoms: C_7  and  C_17
REMARK    4  A    between atoms: N_9  and  C_10
REMARK    5  A    between atoms: C_13  and  O_16
REMARK    6  A    between atoms: C_19  and  C_20
REMARK    7  A    between atoms: C_19  and  C_22
REMARK    8  A    between atoms: N_24  and  C_25
REMARK    9  A    between atoms: C_25  and  C_26
REMARK   10  A    between atoms: C_26  and  C_27
REMARK                            x       y       z     vdW  Elec       q    Type
REMARK                         _______ _______ _______ _____ _____    ______ ____
ROOT
ATOM      1  C   UNL     1      -2.744  -1.504   2.023  0.00  0.00    +0.002 C 
ATOM      2  C   UNL     1      -3.887  -1.109   2.616  0.00  0.00    +0.110 C 
ENDROOT
BRANCH   1   6
ATOM      3  C   UNL     1      -0.019   1.526   0.010  0.00  0.00    +0.028 C 
ATOM      4  C   UNL     1       0.002  -0.004   0.002  0.00  0.00    +0.071 C 
ATOM      5  C   UNL     1      -1.440  -0.563   0.087  0.00  0.00    +0.031 C 
ATOM      6  C   UNL     1      -1.716  -0.481   1.612  0.00  0.00    +0.035 C 
ATOM      7  C   UNL     1      -0.340  -0.805   2.230  0.00  0.00    +0.078 C 
ATOM      8  N   UNL     1       0.679  -0.515   1.208  0.00  0.00    -0.324 N 
ATOM      9  C   UNL     1      -0.106   0.067   3.465  0.00  0.00    +0.028 C 
BRANCH   8  10
ATOM     10  C   UNL     1       2.059  -0.694   1.354  0.00  0.00    +0.030 A 
ATOM     11  C   UNL     1       2.573  -1.191   2.545  0.00  0.00    +0.027 A 
ATOM     12  C   UNL     1       3.935  -1.367   2.688  0.00  0.00    +0.047 A 
ATOM     13  C   UNL     1       4.790  -1.049   1.643  0.00  0.00    +0.117 A 
ATOM     14  C   UNL     1       4.278  -0.552   0.454  0.00  0.00    +0.047 A 
ATOM     15  C   UNL     1       2.916  -0.380   0.307  0.00  0.00    +0.027 A 
BRANCH  13  16
ATOM     16  O   UNL     1       6.131  -1.223   1.785  0.00  0.00    -0.507 OA
ATOM     17  H   UNL     1       6.445  -2.097   1.514  0.00  0.00    +0.292 HD
ENDBRANCH  13  16
ENDBRANCH   8  10
ENDBRANCH   1   6
BRANCH   2  18
ATOM     18  C   UNL     1      -4.894  -2.111   3.020  0.00  0.00    +0.254 C 
ATOM     19  O   UNL     1      -4.692  -3.293   2.816  0.00  0.00    -0.269 OA
ATOM     20  N   UNL     1      -6.038  -1.716   3.614  0.00  0.00    -0.310 N 
ATOM     21  H   UNL     1      -6.199  -0.774   3.776  0.00  0.00    +0.149 HD
BRANCH  20  22
ATOM     22  C   UNL     1      -7.037  -2.710   4.013  0.00  0.00    +0.109 C 
BRANCH  22  23
ATOM     23  C   UNL     1      -8.230  -2.003   4.659  0.00  0.00    +0.052 C 
BRANCH  23  24
ATOM     24  C   UNL     1      -9.258  -3.025   5.071  0.00  0.00    -0.040 C 
ATOM     25  C   UNL     1      -9.400  -3.590   6.291  0.00  0.00    -0.001 A 
ATOM     26  C   UNL     1      -8.668  -3.428   7.553  0.00  0.00    +0.010 A 
ATOM     27  C   UNL     1      -9.052  -4.148   8.632  0.00  0.00    +0.001 A 
ATOM     28  C   UNL     1     -10.130  -5.042   8.575  0.00  0.00    +0.002 A 
ATOM     29  C   UNL     1     -10.851  -5.245   7.452  0.00  0.00    +0.026 A 
ATOM     30  C   UNL     1     -10.534  -4.540   6.258  0.00  0.00    +0.043 A 
ATOM     31  N   UNL     1     -11.073  -4.562   5.063  0.00  0.00    -0.380 N 
ATOM     32  C   UNL     1     -10.344  -3.623   4.204  0.00  0.00    +0.144 C 
ATOM     33  H   UNL     1     -11.829  -5.106   4.793  0.00  0.00    +0.160 HD
ENDBRANCH  23  24
ENDBRANCH  22  23
ENDBRANCH  20  22
ENDBRANCH   2  18
BRANCH   2  34
ATOM     34  C   UNL     1      -4.125   0.282   2.857  0.00  0.00    +0.104 C 
ATOM     35  N   UNL     1      -4.314   1.386   3.047  0.00  0.00    -0.191 NA
ENDBRANCH   2  34
TORSDOF 8
