REMARK  Name = ZINC42360484
REMARK  7 active torsions:
REMARK  status: ('A' for Active; 'I' for Inactive)
REMARK    1  A    between atoms: C_1  and  N_2
REMARK    2  A    between atoms: N_2  and  C_3
REMARK    3  A    between atoms: N_2  and  C_16
REMARK    4  A    between atoms: C_3  and  C_4
REMARK    5  A    between atoms: C_4  and  C_5
REMARK    6  A    between atoms: C_11  and  N_15
REMARK    7  A    between atoms: C_16  and  C_17
REMARK                            x       y       z     vdW  Elec       q    Type
REMARK                         _______ _______ _______ _____ _____    ______ ____
ROOT
ATOM      1  C   UNL     1       0.658  -0.603   3.669  0.00  0.00    +0.106 A 
ATOM      2  N   UNL     1       1.035   0.171   4.721  0.00  0.00    -0.342 N 
ATOM      3  H   UNL     1       0.885   1.125   4.817  0.00  0.00    +0.167 HD
ATOM      4  C   UNL     1       1.672  -0.654   5.630  0.00  0.00    +0.066 A 
ATOM      5  C   UNL     1       2.263  -0.448   6.869  0.00  0.00    +0.029 A 
ATOM      6  C   UNL     1       2.830  -1.506   7.545  0.00  0.00    +0.025 A 
ATOM      7  C   UNL     1       2.814  -2.785   6.992  0.00  0.00    +0.027 A 
ATOM      8  C   UNL     1       2.230  -3.006   5.760  0.00  0.00    +0.052 A 
ATOM      9  C   UNL     1       1.651  -1.940   5.066  0.00  0.00    +0.091 A 
ATOM     10  N   UNL     1       1.013  -1.838   3.872  0.00  0.00    -0.233 NA
ENDROOT
BRANCH   7  11
ATOM     11  N   UNL     1       3.393  -3.852   7.689  0.00  0.00    -0.358 N 
ATOM     12  H   UNL     1       3.804  -3.699   8.554  0.00  0.00    +0.142 HD
ATOM     13  H   UNL     1       3.383  -4.743   7.307  0.00  0.00    +0.142 HD
ENDBRANCH   7  11
BRANCH   1  14
ATOM     14  C   UNL     1      -0.071  -0.103   2.448  0.00  0.00    +0.056 C 
BRANCH  14  15
ATOM     15  C   UNL     1       0.713  -0.491   1.192  0.00  0.00    -0.071 C 
BRANCH  15  17
ATOM     16  C   UNL     1      -0.018   1.465   0.010  0.00  0.00    -0.096 C 
ATOM     17  N   UNL     1       0.002  -0.004   0.002  0.00  0.00    +0.381 N 
ATOM     18  H   UNL     1      -0.945  -0.353   0.009  0.00  0.00    -0.082 HD
BRANCH  17  19
ATOM     19  C   UNL     1       0.690  -0.478  -1.207  0.00  0.00    -0.043 C 
BRANCH  19  20
ATOM     20  C   UNL     1      -0.106  -0.083  -2.424  0.00  0.00    -0.056 A 
ATOM     21  C   UNL     1      -1.081  -0.924  -2.928  0.00  0.00    +0.024 A 
ATOM     22  C   UNL     1      -1.778  -0.538  -4.025  0.00  0.00    +0.055 A 
ATOM     23  S   UNL     1      -1.057   1.056  -4.380  0.00  0.00    -0.090 S 
ATOM     24  C   UNL     1       0.121   1.103  -3.039  0.00  0.00    +0.048 A 
ATOM     25 BR   UNL     1      -3.156  -1.452  -4.943  0.00  0.00    -0.043 Br
ENDBRANCH  19  20
ENDBRANCH  17  19
ENDBRANCH  15  17
ENDBRANCH  14  15
ENDBRANCH   1  14
TORSDOF 6
