REMARK  Name = ZINC35192055
REMARK  4 active torsions:
REMARK  status: ('A' for Active; 'I' for Inactive)
REMARK    1  A    between atoms: C_3  and  C_9
REMARK    2  A    between atoms: C_12  and  C_24
REMARK    3  A    between atoms: C_16  and  C_18
REMARK    4  A    between atoms: N_26  and  C_27
REMARK                            x       y       z     vdW  Elec       q    Type
REMARK                         _______ _______ _______ _____ _____    ______ ____
ROOT
ATOM      1  C   UNL     1       3.056   2.580  -0.753  0.00  0.00    +0.250 C 
ATOM      2  O   UNL     1       1.929   2.373  -0.345  0.00  0.00    -0.270 OA
ATOM      3  N   UNL     1       3.642   3.774  -0.539  0.00  0.00    -0.273 N 
ATOM      4  C   UNL     1       3.051   4.778   0.342  0.00  0.00    +0.173 C 
ATOM      5  C   UNL     1       4.157   5.629   1.032  0.00  0.00    +0.103 C 
ATOM      6  S   UNL     1       5.326   5.762  -0.395  0.00  0.00    -0.136 S 
ATOM      7  C   UNL     1       4.921   4.142  -1.174  0.00  0.00    +0.138 C 
ENDROOT
BRANCH   1  10
ATOM      8  C   UNL     1       5.272   0.861  -3.249  0.00  0.00    +0.021 A 
ATOM      9  C   UNL     1       4.596   1.853  -2.570  0.00  0.00    +0.016 A 
ATOM     10  C   UNL     1       3.781   1.522  -1.485  0.00  0.00    +0.055 A 
ATOM     11  C   UNL     1       3.656   0.186  -1.095  0.00  0.00    +0.054 A 
ATOM     12  C   UNL     1       4.338  -0.797  -1.783  0.00  0.00    +0.040 A 
ATOM     13  C   UNL     1       5.144  -0.462  -2.858  0.00  0.00    +0.042 A 
ATOM     14 CL   UNL     1       5.998  -1.704  -3.719  0.00  0.00    -0.083 Cl
ATOM     15 CL   UNL     1       2.646  -0.236   0.253  0.00  0.00    -0.083 Cl
ENDBRANCH   1  10
BRANCH   7  16
ATOM     16  C   UNL     1       6.000   3.104  -0.858  0.00  0.00    +0.020 C 
ATOM     17  C   UNL     1       5.907   2.705   0.616  0.00  0.00    +0.006 C 
ATOM     18  C   UNL     1       6.986   1.667   0.932  0.00  0.00    +0.000 C 
ATOM     19  C   UNL     1       8.366   2.264   0.651  0.00  0.00    +0.000 C 
ATOM     20  C   UNL     1       8.459   2.663  -0.823  0.00  0.00    +0.000 C 
ATOM     21  C   UNL     1       7.380   3.701  -1.139  0.00  0.00    +0.006 C 
ENDBRANCH   7  16
BRANCH   4  22
ATOM     22  C   UNL     1       2.227   4.088   1.398  0.00  0.00    +0.235 C 
ATOM     23  O   UNL     1       2.663   3.106   1.962  0.00  0.00    -0.274 OA
ATOM     24  N   UNL     1       1.006   4.562   1.717  0.00  0.00    -0.302 N 
ATOM     25  H   UNL     1       0.626   5.300   1.215  0.00  0.00    +0.150 HD
BRANCH  24  26
ATOM     26  C   UNL     1       0.254   3.963   2.822  0.00  0.00    +0.159 C 
ATOM     27  C   UNL     1      -0.756   4.977   3.366  0.00  0.00    +0.032 C 
ATOM     28  C   UNL     1      -1.106   4.666   4.810  0.00  0.00    +0.004 C 
ATOM     29  C   UNL     1      -1.868   3.366   4.989  0.00  0.00    +0.019 C 
ATOM     30  C   UNL     1      -0.988   2.165   4.638  0.00  0.00    +0.104 C 
ATOM     31  N   UNL     1      -1.083   1.918   3.190  0.00  0.00    -0.314 N 
ATOM     32  C   UNL     1      -0.500   2.748   2.325  0.00  0.00    +0.233 C 
ATOM     33  O   UNL     1      -0.578   2.530   1.135  0.00  0.00    -0.274 OA
ATOM     34  H   UNL     1      -1.571   1.146   2.864  0.00  0.00    +0.149 HD
ENDBRANCH  24  26
ENDBRANCH   4  22
TORSDOF 4
