REMARK  Name = ZINC64136862
REMARK  7 active torsions:
REMARK  status: ('A' for Active; 'I' for Inactive)
REMARK    1  A    between atoms: C_1  and  O_2
REMARK    2  A    between atoms: O_2  and  C_3
REMARK    3  A    between atoms: C_10  and  C_18
REMARK    4  A    between atoms: C_20  and  O_38
REMARK    5  A    between atoms: C_22  and  O_37
REMARK    6  A    between atoms: N_24  and  C_27
REMARK    7  A    between atoms: C_31  and  C_33
REMARK                            x       y       z     vdW  Elec       q    Type
REMARK                         _______ _______ _______ _____ _____    ______ ____
ROOT
ATOM      1  C   UNL     1      -5.157  -4.441   1.916  0.00  0.00    +0.179 C 
ATOM      2  C   UNL     1      -4.984  -4.946   3.318  0.00  0.00    +0.200 C 
ATOM      3  N   UNL     1      -5.606  -4.450   4.316  0.00  0.00    -0.204 NA
ATOM      4  C   UNL     1      -6.552  -3.350   4.225  0.00  0.00    +0.338 C 
ATOM      5  N   UNL     1      -6.374  -2.574   3.006  0.00  0.00    -0.225 N 
ATOM      6  C   UNL     1      -5.746  -3.058   1.931  0.00  0.00    +0.237 C 
ATOM      7  O   UNL     1      -5.650  -2.362   0.943  0.00  0.00    -0.274 OA
ENDROOT
BRANCH   1  14
ATOM      8  C   UNL     1      -2.718  -2.839  -2.729  0.00  0.00    +0.121 A 
ATOM      9  C   UNL     1      -3.642  -1.790  -2.582  0.00  0.00    +0.047 A 
ATOM     10  C   UNL     1      -4.808  -1.938  -1.917  0.00  0.00    +0.029 A 
ATOM     11  C   UNL     1      -5.146  -3.231  -1.316  0.00  0.00    +0.043 A 
ATOM     12  N   UNL     1      -6.182  -3.626  -0.612  0.00  0.00    -0.376 N 
ATOM     13  C   UNL     1      -6.041  -5.053  -0.344  0.00  0.00    +0.124 C 
ATOM     14  C   UNL     1      -6.091  -5.380   1.151  0.00  0.00    +0.101 C 
ATOM     15  N   UNL     1      -5.654  -6.773   1.335  0.00  0.00    -0.310 NA
ATOM     16  C   UNL     1      -4.241  -6.984   1.008  0.00  0.00    +0.085 C 
ATOM     17  C   UNL     1      -4.005  -6.744  -0.495  0.00  0.00    +0.048 C 
ATOM     18  C   UNL     1      -4.650  -5.419  -0.837  0.00  0.00    -0.036 C 
ATOM     19  C   UNL     1      -4.167  -4.339  -1.461  0.00  0.00    +0.003 A 
ATOM     20  C   UNL     1      -2.935  -4.072  -2.213  0.00  0.00    +0.055 A 
ATOM     21  H   UNL     1      -5.861  -7.097   2.268  0.00  0.00    +0.122 HD
ATOM     22  H   UNL     1      -6.916  -3.064  -0.319  0.00  0.00    +0.160 HD
BRANCH   8  24
ATOM     23  C   UNL     1      -1.381  -1.295  -3.946  0.00  0.00    +0.277 C 
ATOM     24  O   UNL     1      -1.569  -2.610  -3.418  0.00  0.00    -0.495 OA
ENDBRANCH   8  24
ENDBRANCH   1  14
BRANCH   5  25
ATOM     25  C   UNL     1      -6.883  -1.271   2.960  0.00  0.00    +0.041 A 
ATOM     26  C   UNL     1      -6.101  -0.204   3.382  0.00  0.00    +0.024 A 
ATOM     27  C   UNL     1      -6.605   1.081   3.334  0.00  0.00    +0.002 A 
ATOM     28  C   UNL     1      -7.888   1.305   2.868  0.00  0.00    +0.012 A 
ATOM     29  C   UNL     1      -8.668   0.244   2.447  0.00  0.00    +0.057 A 
ATOM     30  C   UNL     1      -8.168  -1.042   2.486  0.00  0.00    +0.036 A 
BRANCH  29  31
ATOM     31  C   UNL     1     -10.066   0.493   1.939  0.00  0.00    +0.417 C 
ATOM     32  F   UNL     1     -10.343   1.863   1.990  0.00  0.00    -0.166 F 
ATOM     33  F   UNL     1     -10.168   0.044   0.618  0.00  0.00    -0.166 F 
ATOM     34  F   UNL     1     -10.982  -0.198   2.739  0.00  0.00    -0.166 F 
ENDBRANCH  29  31
ENDBRANCH   5  25
BRANCH   4  35
ATOM     35  O   UNL     1      -7.880  -3.878   4.247  0.00  0.00    -0.356 OA
ATOM     36  H   UNL     1      -8.092  -4.376   5.048  0.00  0.00    +0.214 HD
ENDBRANCH   4  35
BRANCH   2  37
ATOM     37  O   UNL     1      -4.132  -5.970   3.534  0.00  0.00    -0.495 OA
ATOM     38  H   UNL     1      -4.071  -6.243   4.459  0.00  0.00    +0.293 HD
ENDBRANCH   2  37
TORSDOF 6
