REMARK  Name = ZINC43262347
REMARK  8 active torsions:
REMARK  status: ('A' for Active; 'I' for Inactive)
REMARK    1  A    between atoms: C_1  and  C_2
REMARK    2  A    between atoms: C_2  and  C_3
REMARK    3  A    between atoms: C_3  and  C_5
REMARK    4  A    between atoms: C_3  and  N_23
REMARK    5  A    between atoms: C_5  and  C_7
REMARK    6  A    between atoms: C_5  and  N_13
REMARK    7  A    between atoms: C_17  and  C_19
REMARK    8  A    between atoms: N_21  and  C_22
REMARK                            x       y       z     vdW  Elec       q    Type
REMARK                         _______ _______ _______ _____ _____    ______ ____
ROOT
ATOM      1  C   UNL     1       0.787  -1.826  -0.460  0.00  0.00    -0.013 C 
ENDROOT
BRANCH   1   2
ATOM      2  C   UNL     1       1.829  -2.251  -1.462  0.00  0.00    -0.021 A 
ATOM      3  C   UNL     1       2.976  -2.944  -1.259  0.00  0.00    +0.011 A 
ATOM      4  C   UNL     1       3.791  -3.224  -2.340  0.00  0.00    +0.023 A 
ATOM      5  C   UNL     1       3.418  -2.796  -3.572  0.00  0.00    +0.055 A 
ATOM      6  S   UNL     1       1.870  -1.978  -3.226  0.00  0.00    -0.088 S 
ATOM      7 BR   UNL     1       4.305  -3.017  -5.228  0.00  0.00    -0.043 Br
ENDBRANCH   1   2
BRANCH   1   8
ATOM      8  N   UNL     1      -0.551  -2.002  -1.041  0.00  0.00    +0.393 N 
ATOM      9  C   UNL     1      -0.772  -3.428  -1.395  0.00  0.00    -0.077 C 
ATOM     10  C   UNL     1      -2.316  -3.547  -1.438  0.00  0.00    -0.020 C 
ATOM     11  C   UNL     1      -2.766  -2.635  -0.274  0.00  0.00    -0.008 C 
ATOM     12  C   UNL     1      -1.589  -1.669  -0.041  0.00  0.00    +0.020 C 
ATOM     13  H   UNL     1      -0.655  -1.420  -1.858  0.00  0.00    -0.080 HD
BRANCH  12  14
ATOM     14  C   UNL     1      -2.047  -0.246  -0.232  0.00  0.00    +0.199 C 
ATOM     15  O   UNL     1      -1.983   0.270  -1.327  0.00  0.00    -0.278 OA
ATOM     16  N   UNL     1      -2.528   0.452   0.816  0.00  0.00    -0.320 N 
ATOM     17  C   UNL     1      -2.974   1.836   0.631  0.00  0.00    +0.128 C 
ATOM     18  H   UNL     1      -2.580   0.039   1.692  0.00  0.00    +0.148 HD
ENDBRANCH  12  14
ENDBRANCH   1   8
BRANCH   1  19
ATOM     19  C   UNL     1       0.996  -0.354  -0.099  0.00  0.00    +0.042 C 
BRANCH  19  20
ATOM     20  N   UNL     1       0.882   0.468  -1.310  0.00  0.00    -0.328 NA
ATOM     21  H   UNL     1       1.635   0.271  -1.953  0.00  0.00    +0.118 HD
ATOM     22  H   UNL     1      -0.015   0.338  -1.754  0.00  0.00    +0.118 HD
ENDBRANCH  19  20
BRANCH  19  24
ATOM     23  C   UNL     1       2.566   1.284   0.947  0.00  0.00    +0.005 C 
ATOM     24  C   UNL     1       2.386  -0.172   0.513  0.00  0.00    +0.014 C 
ENDBRANCH  19  24
ENDBRANCH   1  19
TORSDOF 6
