REMARK  Name = ZINC32542438
REMARK  9 active torsions:
REMARK  status: ('A' for Active; 'I' for Inactive)
REMARK    1  A    between atoms: C_1  and  C_2
REMARK    2  A    between atoms: C_2  and  C_4
REMARK    3  A    between atoms: C_2  and  N_14
REMARK    4  A    between atoms: C_7  and  S_10
REMARK    5  A    between atoms: S_10  and  N_13
REMARK    6  A    between atoms: N_14  and  C_15
REMARK    7  A    between atoms: N_14  and  C_16
REMARK    8  A    between atoms: C_16  and  C_17
REMARK    9  A    between atoms: N_19  and  C_20
REMARK                            x       y       z     vdW  Elec       q    Type
REMARK                         _______ _______ _______ _____ _____    ______ ____
ROOT
ATOM      1  N   UNL     1      -2.212   3.690   5.902  0.00  0.00    +0.388 N 
ATOM      2  C   UNL     1      -1.774   4.992   5.381  0.00  0.00    -0.095 C 
ATOM      3  H   UNL     1      -1.323   3.052   6.011  0.00  0.00    -0.081 HD
ENDROOT
BRANCH   1   5
ATOM      4  C   UNL     1      -4.220   4.014   4.538  0.00  0.00    -0.008 C 
ATOM      5  C   UNL     1      -3.129   3.030   4.963  0.00  0.00    -0.041 C 
BRANCH   5   6
ATOM      6  C   UNL     1      -2.362   2.575   3.748  0.00  0.00    -0.061 A 
ATOM      7  C   UNL     1      -2.990   2.509   2.519  0.00  0.00    +0.004 A 
ATOM      8  C   UNL     1      -2.287   2.092   1.405  0.00  0.00    +0.029 A 
ATOM      9  C   UNL     1      -0.955   1.741   1.520  0.00  0.00    +0.105 A 
ATOM     10  C   UNL     1      -0.328   1.802   2.750  0.00  0.00    +0.029 A 
ATOM     11  C   UNL     1      -1.030   2.223   3.864  0.00  0.00    +0.004 A 
BRANCH   9  12
ATOM     12  S   UNL     1      -0.058   1.209   0.100  0.00  0.00    +0.056 S 
ATOM     13  O   UNL     1      -1.017   0.713  -0.825  0.00  0.00    -0.153 OA
ATOM     14  O   UNL     1       1.023   0.417   0.574  0.00  0.00    -0.153 OA
BRANCH  12  15
ATOM     15  N   UNL     1       0.611   2.557  -0.591  0.00  0.00    -0.204 NA
ATOM     16  H   UNL     1       1.182   2.267  -1.485  0.00  0.00    +0.144 HD
ATOM     17  H   UNL     1       1.284   3.044   0.132  0.00  0.00    +0.144 HD
ENDBRANCH  12  15
ENDBRANCH   9  12
ENDBRANCH   5   6
ENDBRANCH   1   5
BRANCH   1  18
ATOM     18  C   UNL     1      -2.830   3.834   7.227  0.00  0.00    +0.019 C 
BRANCH  18  19
ATOM     19  C   UNL     1      -1.789   4.285   8.220  0.00  0.00    +0.201 C 
ATOM     20  O   UNL     1      -0.646   4.468   7.859  0.00  0.00    -0.278 OA
ATOM     21  N   UNL     1      -2.129   4.485   9.509  0.00  0.00    -0.285 N 
ATOM     22  H   UNL     1      -3.182   4.409   9.818  0.00  0.00    +0.155 HD
BRANCH  21  23
ATOM     23  C   UNL     1      -1.145   4.788  10.451  0.00  0.00    +0.062 A 
ATOM     24  C   UNL     1       0.143   4.403  10.240  0.00  0.00    +0.025 A 
ATOM     25  C   UNL     1       1.149   4.690  11.161  0.00  0.00    +0.004 A 
ATOM     26  C   UNL     1       0.890   5.365  12.307  0.00  0.00    +0.031 A 
ATOM     27  C   UNL     1      -0.430   5.800  12.597  0.00  0.00    +0.102 A 
ATOM     28  C   UNL     1      -1.486   5.507  11.634  0.00  0.00    +0.121 A 
ATOM     29  N   UNL     1      -2.667   5.975  12.028  0.00  0.00    -0.189 NA
ATOM     30  S   UNL     1      -2.422   6.676  13.408  0.00  0.00    +0.117 S 
ATOM     31  N   UNL     1      -0.888   6.469  13.653  0.00  0.00    -0.191 NA
ENDBRANCH  21  23
ENDBRANCH  18  19
ENDBRANCH   1  18
TORSDOF 7
