REMARK  Name = ZINC29580164
REMARK  5 active torsions:
REMARK  status: ('A' for Active; 'I' for Inactive)
REMARK    1  A    between atoms: C_1  and  C_2
REMARK    2  A    between atoms: C_10  and  C_11
REMARK    3  A    between atoms: N_13  and  N_14
REMARK    4  A    between atoms: C_17  and  C_21
REMARK    5  A    between atoms: C_17  and  C_22
REMARK                            x       y       z     vdW  Elec       q    Type
REMARK                         _______ _______ _______ _____ _____    ______ ____
ROOT
ATOM      1  N   UNL     1      -5.620   2.049   0.065  0.00  0.00    -0.137 N 
ATOM      2  C   UNL     1      -6.354   2.365   1.150  0.00  0.00    +0.267 C 
ATOM      3  O   UNL     1      -5.943   2.637   2.258  0.00  0.00    -0.271 OA
ATOM      4  C   UNL     1      -7.800   2.308   0.699  0.00  0.00    +0.137 C 
ATOM      5  N   UNL     1      -7.704   1.931  -0.722  0.00  0.00    -0.280 N 
ATOM      6  C   UNL     1      -6.394   1.807  -1.000  0.00  0.00    +0.327 C 
ATOM      7  O   UNL     1      -5.960   1.506  -2.095  0.00  0.00    -0.251 OA
ATOM      8  C   UNL     1      -8.466   3.676   0.852  0.00  0.00    +0.047 C 
ATOM      9  H   UNL     1      -8.618   1.808  -1.322  0.00  0.00    +0.152 HD
ENDROOT
BRANCH   4  10
ATOM     10  C   UNL     1      -8.557   1.261   1.475  0.00  0.00    -0.015 A 
ATOM     11  C   UNL     1      -8.185   0.958   2.771  0.00  0.00    +0.006 A 
ATOM     12  C   UNL     1      -8.882   0.002   3.485  0.00  0.00    +0.000 A 
ATOM     13  C   UNL     1      -9.946  -0.659   2.899  0.00  0.00    +0.000 A 
ATOM     14  C   UNL     1     -10.314  -0.360   1.601  0.00  0.00    +0.000 A 
ATOM     15  C   UNL     1      -9.620   0.600   0.889  0.00  0.00    +0.006 A 
ENDBRANCH   4  10
BRANCH   1  18
ATOM     16  C   UNL     1      -3.600   0.790   0.039  0.00  0.00    +0.296 C 
ATOM     17  O   UNL     1      -4.254  -0.235   0.040  0.00  0.00    -0.265 OA
ATOM     18  N   UNL     1      -4.221   1.986   0.052  0.00  0.00    -0.217 N 
ATOM     19  H   UNL     1      -3.629   2.913   0.051  0.00  0.00    +0.174 HD
BRANCH  16  29
ATOM     20  C   UNL     1      -1.927  -1.831   0.011  0.00  0.00    +0.048 C 
ATOM     21  C   UNL     1      -1.400  -0.419   0.013  0.00  0.00    +0.008 A 
ATOM     22  C   UNL     1       0.002  -0.004   0.002  0.00  0.00    +0.024 A 
ATOM     23  C   UNL     1       1.220  -0.688  -0.013  0.00  0.00    +0.012 A 
ATOM     24  C   UNL     1       2.392   0.015  -0.020  0.00  0.00    +0.001 A 
ATOM     25  C   UNL     1       2.378   1.404  -0.013  0.00  0.00    +0.004 A 
ATOM     26  C   UNL     1       1.188   2.097   0.002  0.00  0.00    +0.047 A 
ATOM     27  C   UNL     1      -0.017   1.403   0.010  0.00  0.00    +0.136 A 
ATOM     28  O   UNL     1      -1.306   1.793   0.019  0.00  0.00    -0.450 OA
ATOM     29  C   UNL     1      -2.131   0.725   0.026  0.00  0.00    +0.195 A 
ENDBRANCH  16  29
ENDBRANCH   1  18
TORSDOF 3
