REMARK  Name = ZINC50649156
REMARK  7 active torsions:
REMARK  status: ('A' for Active; 'I' for Inactive)
REMARK    1  A    between atoms: C_1  and  C_2
REMARK    2  A    between atoms: C_2  and  N_3
REMARK    3  A    between atoms: C_7  and  C_9
REMARK    4  A    between atoms: C_9  and  N_10
REMARK    5  A    between atoms: N_10  and  S_11
REMARK    6  A    between atoms: S_11  and  C_14
REMARK    7  A    between atoms: C_19  and  N_20
REMARK                            x       y       z     vdW  Elec       q    Type
REMARK                         _______ _______ _______ _____ _____    ______ ____
ROOT
ATOM      1  S   UNL     1       0.706  -2.814  -2.820  0.00  0.00    +0.062 S 
ATOM      2  O   UNL     1       1.422  -2.147  -3.851  0.00  0.00    -0.153 OA
ATOM      3  O   UNL     1       0.872  -4.199  -2.550  0.00  0.00    -0.153 OA
ENDROOT
BRANCH   1   4
ATOM      4  C   UNL     1      -1.006  -2.567  -3.157  0.00  0.00    +0.146 A 
ATOM      5  C   UNL     1      -1.880  -3.640  -3.169  0.00  0.00    +0.048 A 
ATOM      6  C   UNL     1      -3.221  -3.400  -3.439  0.00  0.00    +0.038 A 
ATOM      7  C   UNL     1      -3.640  -2.107  -3.686  0.00  0.00    +0.128 A 
ATOM      8  N   UNL     1      -2.783  -1.103  -3.669  0.00  0.00    -0.238 NA
ATOM      9  C   UNL     1      -1.498  -1.291  -3.409  0.00  0.00    +0.143 A 
ATOM     10 BR   UNL     1      -4.460  -4.828  -3.469  0.00  0.00    -0.049 Br
BRANCH   9  11
ATOM     11  N   UNL     1      -0.632  -0.203  -3.394  0.00  0.00    -0.342 N 
ATOM     12  H   UNL     1       0.320  -0.344  -3.276  0.00  0.00    +0.144 HD
ATOM     13  H   UNL     1      -0.981   0.695  -3.503  0.00  0.00    +0.144 HD
ENDBRANCH   9  11
ENDBRANCH   1   4
BRANCH   1  14
ATOM     14  N   UNL     1       1.048  -2.012  -1.412  0.00  0.00    -0.191 NA
ATOM     15  H   UNL     1       1.678  -1.275  -1.414  0.00  0.00    +0.148 HD
BRANCH  14  16
ATOM     16  C   UNL     1       0.399  -2.417  -0.162  0.00  0.00    +0.090 C 
BRANCH  16  21
ATOM     17  N   UNL     1       0.492  -2.190   2.285  0.00  0.00    +0.382 N 
ATOM     18  C   UNL     1       1.408  -3.014   3.103  0.00  0.00    -0.078 C 
ATOM     19  C   UNL     1       2.826  -2.643   2.603  0.00  0.00    -0.020 C 
ATOM     20  C   UNL     1       2.585  -2.462   1.081  0.00  0.00    -0.016 C 
ATOM     21  C   UNL     1       1.173  -1.841   1.025  0.00  0.00    -0.053 C 
ATOM     22  H   UNL     1       0.256  -1.348   2.788  0.00  0.00    -0.081 HD
BRANCH  17  24
ATOM     23  C   UNL     1      -1.489  -3.216   3.294  0.00  0.00    -0.017 C 
ATOM     24  C   UNL     1      -0.730  -2.951   1.992  0.00  0.00    -0.082 C 
ENDBRANCH  17  24
ENDBRANCH  16  21
ENDBRANCH  14  16
ENDBRANCH   1  14
TORSDOF 6
