REMARK  Name = ZINC63136940
REMARK  10 active torsions:
REMARK  status: ('A' for Active; 'I' for Inactive)
REMARK    1  A    between atoms: C_1  and  O_2
REMARK    2  A    between atoms: O_2  and  C_3
REMARK    3  A    between atoms: C_6  and  C_9
REMARK    4  A    between atoms: C_9  and  C_10
REMARK    5  A    between atoms: C_10  and  N_11
REMARK    6  A    between atoms: C_31  and  C_33
REMARK    7  A    between atoms: C_35  and  O_41
REMARK    8  A    between atoms: C_38  and  O_39
REMARK    9  A    between atoms: O_39  and  C_40
REMARK   10  A    between atoms: O_41  and  C_42
REMARK                            x       y       z     vdW  Elec       q    Type
REMARK                         _______ _______ _______ _____ _____    ______ ____
ROOT
ATOM      1  N   UNL     1      -6.755  -3.555  -1.042  0.00  0.00    -0.291 N 
ATOM      2  C   UNL     1      -6.766  -5.008  -1.058  0.00  0.00    +0.203 C 
ATOM      3  C   UNL     1      -8.147  -5.560  -1.189  0.00  0.00    +0.234 C 
ATOM      4  O   UNL     1      -8.272  -6.766  -1.215  0.00  0.00    -0.274 OA
ATOM      5  N   UNL     1      -9.258  -4.819  -1.280  0.00  0.00    -0.279 N 
ATOM      6  C   UNL     1      -9.237  -3.360  -1.243  0.00  0.00    +0.167 C 
ATOM      7  C   UNL     1      -7.855  -2.808  -1.118  0.00  0.00    +0.237 C 
ATOM      8  O   UNL     1      -7.726  -1.603  -1.088  0.00  0.00    -0.274 OA
ATOM      9  C   UNL     1     -10.100  -2.853  -0.073  0.00  0.00    +0.065 C 
ATOM     10  C   UNL     1     -11.393  -3.629  -0.125  0.00  0.00    -0.034 C 
ATOM     11  C   UNL     1     -12.659  -3.231  -0.118  0.00  0.00    -0.001 A 
ATOM     12  C   UNL     1     -13.268  -1.903   0.053  0.00  0.00    +0.010 A 
ATOM     13  C   UNL     1     -14.625  -1.852  -0.018  0.00  0.00    +0.001 A 
ATOM     14  C   UNL     1     -15.427  -2.976  -0.240  0.00  0.00    +0.002 A 
ATOM     15  C   UNL     1     -14.952  -4.237  -0.399  0.00  0.00    +0.026 A 
ATOM     16  C   UNL     1     -13.540  -4.419  -0.336  0.00  0.00    +0.043 A 
ATOM     17  N   UNL     1     -12.827  -5.503  -0.429  0.00  0.00    -0.375 N 
ATOM     18  C   UNL     1     -11.421  -5.150  -0.224  0.00  0.00    +0.131 C 
ATOM     19  C   UNL     1     -10.550  -5.525  -1.425  0.00  0.00    +0.137 C 
ATOM     20  H   UNL     1     -13.168  -6.394  -0.605  0.00  0.00    +0.160 HD
ENDROOT
BRANCH  19  21
ATOM     21  C   UNL     1     -10.319  -7.014  -1.444  0.00  0.00    +0.020 A 
ATOM     22  C   UNL     1     -10.431  -7.745  -0.277  0.00  0.00    +0.054 A 
ATOM     23  C   UNL     1     -10.220  -9.116  -0.294  0.00  0.00    +0.121 A 
ATOM     24  C   UNL     1      -9.895  -9.752  -1.483  0.00  0.00    +0.049 A 
ATOM     25  C   UNL     1      -9.783  -9.022  -2.649  0.00  0.00    +0.049 A 
ATOM     26  C   UNL     1     -10.000  -7.652  -2.633  0.00  0.00    +0.125 A 
BRANCH  26  27
ATOM     27  O   UNL     1      -9.895  -6.933  -3.783  0.00  0.00    -0.495 OA
ATOM     28  C   UNL     1      -9.563  -7.655  -4.971  0.00  0.00    +0.277 C 
ENDBRANCH  26  27
BRANCH  23  29
ATOM     29  O   UNL     1     -10.329  -9.835   0.855  0.00  0.00    -0.495 OA
ATOM     30  C   UNL     1     -10.098 -11.242   0.764  0.00  0.00    +0.277 C 
ENDBRANCH  23  29
ENDBRANCH  19  21
BRANCH   1  31
ATOM     31  C   UNL     1      -5.462  -2.874  -0.930  0.00  0.00    +0.113 C 
BRANCH  31  32
ATOM     32  C   UNL     1      -5.126  -2.658   0.547  0.00  0.00    +0.054 C 
BRANCH  32  36
ATOM     33  C   UNL     1      -1.356  -0.672   0.874  0.00  0.00    +0.120 A 
ATOM     34  C   UNL     1      -2.526   0.068   0.792  0.00  0.00    +0.046 A 
ATOM     35  C   UNL     1      -3.744  -0.576   0.686  0.00  0.00    +0.007 A 
ATOM     36  C   UNL     1      -3.796  -1.958   0.662  0.00  0.00    -0.046 A 
ATOM     37  C   UNL     1      -2.631  -2.698   0.744  0.00  0.00    +0.007 A 
ATOM     38  C   UNL     1      -1.411  -2.058   0.843  0.00  0.00    +0.046 A 
BRANCH  33  40
ATOM     39  C   UNL     1      -0.176   1.388   1.003  0.00  0.00    +0.277 C 
ATOM     40  O   UNL     1      -0.157  -0.041   0.977  0.00  0.00    -0.495 OA
ENDBRANCH  33  40
ENDBRANCH  32  36
ENDBRANCH  31  32
ENDBRANCH   1  31
TORSDOF 7
