REMARK  Name = ZINC62075602
REMARK  1 active torsions:
REMARK  status: ('A' for Active; 'I' for Inactive)
REMARK    1  A    between atoms: C_6  and  C_7
REMARK                            x       y       z     vdW  Elec       q    Type
REMARK                         _______ _______ _______ _____ _____    ______ ____
ROOT
ATOM      1  C   UNL     1      -1.264  -0.762   0.011  0.00  0.00    +0.250 C 
ATOM      2  O   UNL     1      -1.247  -1.975  -0.073  0.00  0.00    -0.270 OA
ATOM      3  N   UNL     1      -2.438  -0.111   0.127  0.00  0.00    -0.293 N 
ATOM      4  C   UNL     1      -3.710  -0.843   0.255  0.00  0.00    +0.113 C 
ATOM      5  C   UNL     1      -4.297  -0.527   1.629  0.00  0.00    +0.054 C 
ATOM      6  C   UNL     1      -4.266   0.954   1.899  0.00  0.00    -0.038 A 
ATOM      7  C   UNL     1      -5.122   1.447   2.877  0.00  0.00    +0.053 A 
ATOM      8  C   UNL     1      -5.141   2.795   3.183  0.00  0.00    +0.167 A 
ATOM      9  C   UNL     1      -4.291   3.667   2.506  0.00  0.00    +0.167 A 
ATOM     10  C   UNL     1      -3.443   3.173   1.533  0.00  0.00    +0.055 A 
ATOM     11  C   UNL     1      -3.433   1.819   1.225  0.00  0.00    -0.023 A 
ATOM     12  C   UNL     1      -2.501   1.354   0.139  0.00  0.00    +0.143 C 
ATOM     13  O   UNL     1      -4.490   4.929   2.984  0.00  0.00    -0.453 OA
ATOM     14  C   UNL     1      -5.757   4.886   3.668  0.00  0.00    +0.466 C 
ATOM     15  O   UNL     1      -5.875   3.513   4.083  0.00  0.00    -0.453 OA
ENDROOT
BRANCH   1  21
ATOM     16  C   UNL     1       0.155   1.074  -0.893  0.00  0.00    +0.019 A 
ATOM     17  C   UNL     1       1.337   1.780  -0.914  0.00  0.00    +0.042 A 
ATOM     18  C   UNL     1       2.377   1.427  -0.067  0.00  0.00    +0.161 A 
ATOM     19  C   UNL     1       2.234   0.360   0.807  0.00  0.00    +0.194 A 
ATOM     20  C   UNL     1       1.051  -0.358   0.837  0.00  0.00    +0.173 A 
ATOM     21  C   UNL     1       0.001  -0.003  -0.016  0.00  0.00    +0.075 A 
ATOM     22  F   UNL     1       0.911  -1.398   1.688  0.00  0.00    -0.202 F 
ATOM     23  F   UNL     1       3.250   0.020   1.630  0.00  0.00    -0.199 F 
ATOM     24  F   UNL     1       3.534   2.124  -0.094  0.00  0.00    -0.202 F 
ENDBRANCH   1  21
TORSDOF 1
