REMARK  Name = ZINC39673885
REMARK  8 active torsions:
REMARK  status: ('A' for Active; 'I' for Inactive)
REMARK    1  A    between atoms: C_1  and  C_2
REMARK    2  A    between atoms: C_2  and  C_3
REMARK    3  A    between atoms: C_3  and  C_4
REMARK    4  A    between atoms: C_4  and  C_6
REMARK    5  A    between atoms: C_4  and  N_7
REMARK    6  A    between atoms: C_8  and  C_10
REMARK    7  A    between atoms: C_21  and  C_23
REMARK    8  A    between atoms: C_24  and  C_28
REMARK                            x       y       z     vdW  Elec       q    Type
REMARK                         _______ _______ _______ _____ _____    ______ ____
ROOT
ATOM      1  C   UNL     1      -2.336  -4.273  -1.030  0.00  0.00    +0.100 C 
ATOM      2  C   UNL     1      -2.802  -4.295  -2.503  0.00  0.00    +0.121 C 
ATOM      3  N   UNL     1      -2.510  -5.671  -2.968  0.00  0.00    -0.296 N 
ATOM      4  C   UNL     1      -2.862  -6.532  -1.814  0.00  0.00    +0.115 C 
ATOM      5  C   UNL     1      -2.380  -5.743  -0.581  0.00  0.00    -0.004 C 
ATOM      6  C   UNL     1      -0.988  -6.210  -0.167  0.00  0.00    -0.010 C 
ATOM      7  C   UNL     1      -1.067  -7.657   0.330  0.00  0.00    -0.082 C 
ATOM      8  N   UNL     1      -1.990  -7.735   1.468  0.00  0.00    +0.379 N 
ATOM      9  C   UNL     1      -3.346  -7.372   1.040  0.00  0.00    -0.082 C 
ATOM     10  C   UNL     1      -3.363  -5.914   0.573  0.00  0.00    -0.010 C 
ATOM     11  C   UNL     1      -2.033  -6.053  -4.169  0.00  0.00    +0.254 C 
ATOM     12  O   UNL     1      -1.694  -5.216  -4.984  0.00  0.00    -0.269 OA
ATOM     13  H   UNL     1      -1.994  -8.676   1.832  0.00  0.00    -0.086 HD
ATOM     14  H   UNL     1      -1.686  -7.099   2.191  0.00  0.00    -0.086 HD
ENDROOT
BRANCH  11  15
ATOM     15  C   UNL     1      -1.922  -7.479  -4.494  0.00  0.00    +0.077 A 
ATOM     16  C   UNL     1      -1.366  -8.079  -5.613  0.00  0.00    -0.031 A 
ATOM     17  C   UNL     1      -1.409  -9.453  -5.637  0.00  0.00    +0.011 A 
ATOM     18  C   UNL     1      -1.975 -10.113  -4.596  0.00  0.00    +0.046 A 
ATOM     19  S   UNL     1      -2.459  -8.891  -3.549  0.00  0.00    -0.092 S 
ATOM     20  C   UNL     1      -0.754  -7.277  -6.733  0.00  0.00    +0.045 C 
ENDBRANCH  11  15
BRANCH   1  22
ATOM     21  N   UNL     1      -0.542  -3.066   0.170  0.00  0.00    -0.312 N 
ATOM     22  C   UNL     1      -0.932  -3.736  -0.932  0.00  0.00    +0.218 C 
ATOM     23  O   UNL     1      -0.152  -3.906  -1.845  0.00  0.00    -0.275 OA
ATOM     24  H   UNL     1      -1.166  -2.929   0.901  0.00  0.00    +0.149 HD
BRANCH  21  25
ATOM     25  C   UNL     1       0.823  -2.543   0.266  0.00  0.00    +0.070 C 
ATOM     26  C   UNL     1       0.894  -1.174  -0.413  0.00  0.00    +0.028 C 
BRANCH  25  27
ATOM     27  C   UNL     1       1.214  -2.404   1.738  0.00  0.00    +0.022 C 
BRANCH  27  29
ATOM     28  C   UNL     1       1.655  -3.649   3.859  0.00  0.00    +0.004 C 
ATOM     29  C   UNL     1       1.264  -3.789   2.386  0.00  0.00    -0.002 C 
ENDBRANCH  27  29
ENDBRANCH  25  27
ENDBRANCH  21  25
ENDBRANCH   1  22
TORSDOF 5
