REMARK  Name = ZINC09010096
REMARK  9 active torsions:
REMARK  status: ('A' for Active; 'I' for Inactive)
REMARK    1  A    between atoms: C_1  and  N_2
REMARK    2  A    between atoms: C_4  and  C_11
REMARK    3  A    between atoms: C_12  and  C_13
REMARK    4  A    between atoms: C_12  and  N_24
REMARK    5  A    between atoms: N_15  and  C_16
REMARK    6  A    between atoms: C_16  and  C_17
REMARK    7  A    between atoms: C_17  and  C_18
REMARK    8  A    between atoms: C_18  and  N_63
REMARK    9  A    between atoms: C_25  and  C_27
REMARK                            x       y       z     vdW  Elec       q    Type
REMARK                         _______ _______ _______ _____ _____    ______ ____
ROOT
ATOM      1  C   UNL     1      -1.202   2.211   0.003  0.00  0.00    +0.038 C 
ATOM      2  C   UNL     1      -2.445   1.671  -0.079  0.00  0.00    +0.097 C 
ENDROOT
BRANCH   1   6
ATOM      3  C   UNL     1       1.582  -1.763   1.198  0.00  0.00    +0.149 C 
ATOM      4  N   UNL     1       1.216  -0.417   0.751  0.00  0.00    -0.349 N 
ATOM      5  C   UNL     1      -0.055   0.058   0.680  0.00  0.00    +0.094 A 
ATOM      6  C   UNL     1      -0.040   1.346   0.226  0.00  0.00    +0.002 A 
ATOM      7  C   UNL     1       1.375   1.692  -0.003  0.00  0.00    +0.007 A 
ATOM      8  C   UNL     1       2.113   0.549   0.343  0.00  0.00    +0.049 A 
ATOM      9  C   UNL     1       3.499   0.572   0.231  0.00  0.00    +0.026 A 
ATOM     10  C   UNL     1       4.134   1.710  -0.218  0.00  0.00    +0.002 A 
ATOM     11  C   UNL     1       3.403   2.838  -0.560  0.00  0.00    +0.001 A 
ATOM     12  C   UNL     1       2.029   2.835  -0.455  0.00  0.00    +0.010 A 
ENDBRANCH   1   6
BRANCH   2  13
ATOM     13  C   UNL     1      -3.618   2.542  -0.158  0.00  0.00    +0.258 C 
ATOM     14  O   UNL     1      -4.732   2.058  -0.232  0.00  0.00    -0.269 OA
ATOM     15  N   UNL     1      -3.464   3.881  -0.148  0.00  0.00    -0.310 N 
ATOM     16  H   UNL     1      -2.576   4.267  -0.089  0.00  0.00    +0.149 HD
BRANCH  15  17
ATOM     17  C   UNL     1      -4.638   4.754  -0.227  0.00  0.00    +0.103 C 
BRANCH  17  18
ATOM     18  C   UNL     1      -4.190   6.216  -0.198  0.00  0.00    +0.000 C 
BRANCH  18  19
ATOM     19  C   UNL     1      -5.416   7.128  -0.280  0.00  0.00    -0.077 C 
BRANCH  19  25
ATOM     20  C   UNL     1      -4.390   8.875   1.048  0.00  0.00    -0.050 C 
ATOM     21  C   UNL     1      -3.902  10.325   1.013  0.00  0.00    +0.141 C 
ATOM     22  O   UNL     1      -4.996  11.183   0.675  0.00  0.00    -0.383 OA
ATOM     23  C   UNL     1      -5.600  10.878  -0.585  0.00  0.00    +0.141 C 
ATOM     24  C   UNL     1      -6.104   9.432  -0.566  0.00  0.00    -0.050 C 
ATOM     25  N   UNL     1      -4.966   8.537  -0.271  0.00  0.00    +0.383 N 
ATOM     26  H   UNL     1      -4.247   8.662  -0.992  0.00  0.00    -0.082 HD
ENDBRANCH  19  25
ENDBRANCH  18  19
ENDBRANCH  17  18
ENDBRANCH  15  17
ENDBRANCH   2  13
BRANCH   2  27
ATOM     27  N   UNL     1      -2.604   0.277  -0.089  0.00  0.00    -0.277 N 
ATOM     28  C   UNL     1      -3.324  -0.325   0.878  0.00  0.00    +0.250 C 
ATOM     29  O   UNL     1      -3.917   0.345   1.702  0.00  0.00    -0.270 OA
ATOM     30  H   UNL     1      -2.197  -0.253  -0.792  0.00  0.00    +0.155 HD
BRANCH  28  31
ATOM     31  C   UNL     1      -3.392  -1.800   0.938  0.00  0.00    +0.055 A 
ATOM     32  C   UNL     1      -2.622  -2.574   0.067  0.00  0.00    +0.014 A 
ATOM     33  C   UNL     1      -2.687  -3.950   0.132  0.00  0.00    +0.001 A 
ATOM     34  C   UNL     1      -3.519  -4.565   1.050  0.00  0.00    +0.001 A 
ATOM     35  C   UNL     1      -4.288  -3.806   1.913  0.00  0.00    +0.021 A 
ATOM     36  C   UNL     1      -4.230  -2.427   1.863  0.00  0.00    +0.053 A 
ATOM     37 CL   UNL     1      -5.197  -1.475   2.946  0.00  0.00    -0.083 Cl
ENDBRANCH  28  31
ENDBRANCH   2  27
TORSDOF 8
