REMARK  Name = ZINC38826633
REMARK  8 active torsions:
REMARK  status: ('A' for Active; 'I' for Inactive)
REMARK    1  A    between atoms: C_4  and  C_7
REMARK    2  A    between atoms: C_7  and  S_8
REMARK    3  A    between atoms: S_8  and  C_9
REMARK    4  A    between atoms: C_13  and  S_15
REMARK    5  A    between atoms: S_15  and  C_16
REMARK    6  A    between atoms: C_16  and  C_17
REMARK    7  A    between atoms: N_19  and  N_20
REMARK    8  A    between atoms: C_21  and  C_22
REMARK                            x       y       z     vdW  Elec       q    Type
REMARK                         _______ _______ _______ _____ _____    ______ ____
ROOT
ATOM      1  C   UNL     1       7.789  -3.589  -3.241  0.00  0.00    +0.173 C 
ENDROOT
BRANCH   1   2
ATOM      2  C   UNL     1       8.564  -3.620  -4.533  0.00  0.00    +0.242 C 
ATOM      3  O   UNL     1       9.268  -2.681  -4.840  0.00  0.00    -0.273 OA
ATOM      4  N   UNL     1       8.476  -4.690  -5.347  0.00  0.00    -0.206 N 
ATOM      5  H   UNL     1       7.913  -5.441  -5.102  0.00  0.00    +0.177 HD
BRANCH   4   6
ATOM      6  N   UNL     1       9.197  -4.718  -6.548  0.00  0.00    -0.188 NA
ATOM      7  C   UNL     1       9.111  -5.758  -7.339  0.00  0.00    +0.136 C 
BRANCH   7   8
ATOM      8  C   UNL     1       9.833  -5.786  -8.541  0.00  0.00    +0.000 C 
ATOM      9  C   UNL     1       9.848  -6.806  -9.490  0.00  0.00    +0.004 A 
ATOM     10  C   UNL     1       9.195  -8.056  -9.559  0.00  0.00    +0.010 A 
ATOM     11  C   UNL     1       9.402  -8.865 -10.628  0.00  0.00    +0.001 A 
ATOM     12  C   UNL     1      10.251  -8.494 -11.675  0.00  0.00    +0.002 A 
ATOM     13  C   UNL     1      10.909  -7.311 -11.677  0.00  0.00    +0.026 A 
ATOM     14  C   UNL     1      10.744  -6.409 -10.591  0.00  0.00    +0.043 A 
ATOM     15  N   UNL     1      11.262  -5.221 -10.358  0.00  0.00    -0.380 N 
ATOM     16  C   UNL     1      10.752  -4.713  -9.081  0.00  0.00    +0.150 C 
ATOM     17  H   UNL     1      11.880  -4.754 -10.942  0.00  0.00    +0.160 HD
ENDBRANCH   7   8
ENDBRANCH   4   6
ENDBRANCH   1   2
BRANCH   1  18
ATOM     18  S   UNL     1       8.115  -2.028  -2.377  0.00  0.00    -0.088 S 
BRANCH  18  22
ATOM     19  C   UNL     1       5.831  -1.891   1.472  0.00  0.00    +0.211 C 
ATOM     20  N   UNL     1       5.668  -3.110   0.647  0.00  0.00    -0.244 N 
ATOM     21  N   UNL     1       6.383  -3.122  -0.530  0.00  0.00    -0.172 NA
ATOM     22  C   UNL     1       7.150  -2.145  -0.907  0.00  0.00    +0.151 C 
ATOM     23  S   UNL     1       7.000  -0.947   0.410  0.00  0.00    -0.063 S 
ATOM     24  H   UNL     1       5.099  -3.848   0.916  0.00  0.00    +0.170 HD
BRANCH  19  25
ATOM     25  S   UNL     1       4.257  -1.011   1.666  0.00  0.00    -0.122 S 
BRANCH  25  26
ATOM     26  C   UNL     1       3.711  -0.707  -0.038  0.00  0.00    +0.107 C 
BRANCH  26  30
ATOM     27  C   UNL     1      -0.017   1.378   0.010  0.00  0.00    +0.000 A 
ATOM     28  C   UNL     1       1.171   2.086   0.002  0.00  0.00    +0.000 A 
ATOM     29  C   UNL     1       2.377   1.411  -0.013  0.00  0.00    +0.004 A 
ATOM     30  C   UNL     1       2.396   0.029  -0.020  0.00  0.00    -0.037 A 
ATOM     31  C   UNL     1       1.208  -0.679  -0.012  0.00  0.00    +0.004 A 
ATOM     32  C   UNL     1       0.002  -0.004   0.002  0.00  0.00    +0.000 A 
ENDBRANCH  26  30
ENDBRANCH  25  26
ENDBRANCH  19  25
ENDBRANCH  18  22
ENDBRANCH   1  18
TORSDOF 8
