REMARK  Name = ZINC34789433
REMARK  5 active torsions:
REMARK  status: ('A' for Active; 'I' for Inactive)
REMARK    1  A    between atoms: C_4  and  C_7
REMARK    2  A    between atoms: C_15  and  N_21
REMARK    3  A    between atoms: N_19  and  N_20
REMARK    4  A    between atoms: N_21  and  N_22
REMARK    5  A    between atoms: C_23  and  C_26
REMARK                            x       y       z     vdW  Elec       q    Type
REMARK                         _______ _______ _______ _____ _____    ______ ____
ROOT
ATOM      1  C   UNL     1       4.731  -0.588   1.300  0.00  0.00    +0.081 C 
ATOM      2  C   UNL     1       4.839  -2.005   1.853  0.00  0.00    +0.054 C 
ATOM      3  C   UNL     1       5.921  -2.798   1.154  0.00  0.00    -0.033 C 
ATOM      4  C   UNL     1       6.463  -2.565  -0.033  0.00  0.00    -0.043 C 
ATOM      5  C   UNL     1       7.502  -3.635  -0.319  0.00  0.00    +0.086 C 
ATOM      6  C   UNL     1       7.494  -4.526   0.881  0.00  0.00    +0.033 A 
ATOM      7  C   UNL     1       6.533  -3.996   1.751  0.00  0.00    +0.039 A 
ATOM      8  C   UNL     1       6.288  -4.622   2.990  0.00  0.00    +0.145 A 
ATOM      9  N   UNL     1       7.024  -5.711   3.236  0.00  0.00    -0.198 NA
ATOM     10  C   UNL     1       7.920  -6.172   2.381  0.00  0.00    +0.209 A 
ATOM     11  N   UNL     1       8.179  -5.607   1.200  0.00  0.00    -0.329 N 
ATOM     12  N   UNL     1       8.630  -7.307   2.731  0.00  0.00    -0.253 N 
ATOM     13  C   UNL     1       6.156  -1.435  -0.991  0.00  0.00    +0.103 C 
ATOM     14  S   UNL     1       4.571  -0.685  -0.510  0.00  0.00    -0.140 S 
ATOM     15  H   UNL     1       9.294  -7.669   2.124  0.00  0.00    +0.169 HD
ATOM     16  H   UNL     1       8.845  -5.977   0.599  0.00  0.00    +0.168 HD
ENDROOT
BRANCH   1  20
ATOM     17  C   UNL     1       1.290   1.339   2.944  0.00  0.00    +0.000 A 
ATOM     18  C   UNL     1       2.547   1.877   3.147  0.00  0.00    +0.000 A 
ATOM     19  C   UNL     1       3.660   1.254   2.615  0.00  0.00    +0.005 A 
ATOM     20  C   UNL     1       3.517   0.091   1.881  0.00  0.00    -0.034 A 
ATOM     21  C   UNL     1       2.260  -0.448   1.679  0.00  0.00    +0.005 A 
ATOM     22  C   UNL     1       1.147   0.176   2.210  0.00  0.00    +0.000 A 
ENDBRANCH   1  20
BRANCH  13  23
ATOM     23  C   UNL     1       7.251  -0.402  -0.923  0.00  0.00    -0.030 A 
ATOM     24  C   UNL     1       7.843   0.056  -2.086  0.00  0.00    +0.005 A 
ATOM     25  C   UNL     1       8.847   1.004  -2.023  0.00  0.00    +0.000 A 
ATOM     26  C   UNL     1       9.259   1.494  -0.798  0.00  0.00    +0.000 A 
ATOM     27  C   UNL     1       8.667   1.037   0.364  0.00  0.00    +0.000 A 
ATOM     28  C   UNL     1       7.660   0.092   0.301  0.00  0.00    +0.005 A 
ENDBRANCH  13  23
BRANCH  12  29
ATOM     29  N   UNL     1       8.396  -7.917   3.930  0.00  0.00    -0.254 NA
ATOM     30  H   UNL     1       8.985  -8.728   4.045  0.00  0.00    +0.140 HD
ATOM     31  H   UNL     1       8.518  -7.270   4.695  0.00  0.00    +0.140 HD
ENDBRANCH  12  29
BRANCH   8  32
ATOM     32  N   UNL     1       5.352  -4.143   3.888  0.00  0.00    -0.267 N 
ATOM     33  H   UNL     1       4.742  -3.437   3.623  0.00  0.00    +0.167 HD
BRANCH  32  34
ATOM     34  N   UNL     1       5.287  -4.664   5.149  0.00  0.00    -0.255 NA
ATOM     35  H   UNL     1       6.178  -4.593   5.617  0.00  0.00    +0.140 HD
ATOM     36  H   UNL     1       4.559  -4.218   5.687  0.00  0.00    +0.140 HD
ENDBRANCH  32  34
ENDBRANCH   8  32
TORSDOF 5
