REMARK  Name = ZINC39634743
REMARK  14 active torsions:
REMARK  status: ('A' for Active; 'I' for Inactive)
REMARK    1  A    between atoms: C_1  and  C_2
REMARK    2  A    between atoms: C_2  and  C_3
REMARK    3  A    between atoms: C_3  and  C_5
REMARK    4  A    between atoms: C_3  and  C_6
REMARK    5  A    between atoms: C_10  and  C_19
REMARK    6  A    between atoms: N_21  and  C_22
REMARK    7  A    between atoms: C_22  and  C_23
REMARK    8  A    between atoms: C_23  and  N_24
REMARK    9  A    between atoms: N_24  and  C_25
REMARK   10  A    between atoms: N_24  and  C_28
REMARK   11  A    between atoms: C_25  and  C_26
REMARK   12  A    between atoms: C_25  and  C_27
REMARK   13  A    between atoms: C_28  and  C_29
REMARK   14  A    between atoms: C_28  and  C_30
REMARK                            x       y       z     vdW  Elec       q    Type
REMARK                         _______ _______ _______ _____ _____    ______ ____
ROOT
ATOM      1  C   UNL     1      -1.030  -4.657  -3.417  0.00  0.00    +0.218 C 
ATOM      2  O   UNL     1      -1.739  -5.518  -2.941  0.00  0.00    -0.275 OA
ATOM      3  N   UNL     1      -0.023  -4.995  -4.247  0.00  0.00    -0.300 N 
ATOM      4  C   UNL     1       1.006  -4.106  -4.835  0.00  0.00    +0.121 C 
ATOM      5  C   UNL     1       2.310  -4.935  -4.789  0.00  0.00    +0.100 C 
ATOM      6  C   UNL     1       1.843  -6.400  -4.753  0.00  0.00    -0.004 C 
ATOM      7  C   UNL     1       0.308  -6.342  -4.772  0.00  0.00    +0.115 C 
ATOM      8  C   UNL     1       2.359  -7.149  -5.977  0.00  0.00    -0.010 C 
ATOM      9  C   UNL     1       1.931  -8.617  -5.889  0.00  0.00    -0.082 C 
ATOM     10  N   UNL     1       2.471  -9.214  -4.661  0.00  0.00    +0.379 N 
ATOM     11  C   UNL     1       1.897  -8.547  -3.486  0.00  0.00    -0.082 C 
ATOM     12  C   UNL     1       2.324  -7.076  -3.473  0.00  0.00    -0.010 C 
ATOM     13  H   UNL     1       2.239 -10.195  -4.636  0.00  0.00    -0.086 HD
ATOM     14  H   UNL     1       3.474  -9.107  -4.650  0.00  0.00    -0.086 HD
ENDROOT
BRANCH   5  15
ATOM     15  C   UNL     1       3.140  -4.676  -6.020  0.00  0.00    +0.218 C 
ATOM     16  O   UNL     1       2.597  -4.459  -7.083  0.00  0.00    -0.275 OA
ATOM     17  N   UNL     1       4.485  -4.687  -5.940  0.00  0.00    -0.317 N 
ATOM     18  H   UNL     1       4.919  -4.861  -5.090  0.00  0.00    +0.149 HD
BRANCH  17  19
ATOM     19  C   UNL     1       5.292  -4.436  -7.137  0.00  0.00    +0.085 C 
BRANCH  19  20
ATOM     20  C   UNL     1       6.777  -4.504  -6.775  0.00  0.00    -0.059 C 
BRANCH  20  21
ATOM     21  N   UNL     1       7.584  -4.154  -7.951  0.00  0.00    +0.384 N 
ATOM     22  H   UNL     1       7.338  -4.759  -8.720  0.00  0.00    -0.081 HD
BRANCH  21  23
ATOM     23  C   UNL     1       7.326  -2.757  -8.325  0.00  0.00    -0.074 C 
ATOM     24  C   UNL     1       8.220  -1.834  -7.495  0.00  0.00    -0.014 C 
ATOM     25  C   UNL     1       7.631  -2.562  -9.811  0.00  0.00    -0.014 C 
ENDBRANCH  21  23
BRANCH  21  26
ATOM     26  C   UNL     1       9.009  -4.321  -7.634  0.00  0.00    -0.074 C 
ATOM     27  C   UNL     1       9.248  -5.729  -7.085  0.00  0.00    -0.014 C 
ATOM     28  C   UNL     1       9.841  -4.120  -8.902  0.00  0.00    -0.014 C 
ENDBRANCH  21  26
ENDBRANCH  20  21
ENDBRANCH  19  20
ENDBRANCH  17  19
ENDBRANCH   5  15
BRANCH   1  29
ATOM     29  C   UNL     1      -1.275  -3.209  -3.081  0.00  0.00    +0.072 C 
ATOM     30  C   UNL     1      -0.393  -2.803  -1.899  0.00  0.00    +0.017 C 
BRANCH  29  32
ATOM     31  C   UNL     1      -3.024  -1.525  -2.490  0.00  0.00    +0.004 C 
ATOM     32  C   UNL     1      -2.747  -3.013  -2.710  0.00  0.00    +0.009 C 
ENDBRANCH  29  32
ENDBRANCH   1  29
TORSDOF 8
