REMARK  Name = ZINC39795355
REMARK  10 active torsions:
REMARK  status: ('A' for Active; 'I' for Inactive)
REMARK    1  A    between atoms: C_1  and  C_2
REMARK    2  A    between atoms: C_2  and  C_3
REMARK    3  A    between atoms: C_2  and  C_4
REMARK    4  A    between atoms: C_2  and  N_5
REMARK    5  A    between atoms: C_9  and  C_11
REMARK    6  A    between atoms: C_11  and  C_12
REMARK    7  A    between atoms: C_12  and  S_13
REMARK    8  A    between atoms: S_13  and  C_14
REMARK    9  A    between atoms: C_18  and  C_23
REMARK   10  A    between atoms: N_19  and  C_20
REMARK                            x       y       z     vdW  Elec       q    Type
REMARK                         _______ _______ _______ _____ _____    ______ ____
ROOT
ATOM      1  C   UNL     1       8.466  -0.046  -5.340  0.00  0.00    +0.237 C 
ATOM      2  N   UNL     1       8.943  -0.472  -4.014  0.00  0.00    -0.237 N 
ATOM      3  N   UNL     1       9.372   0.686  -3.355  0.00  0.00    -0.169 NA
ATOM      4  C   UNL     1       9.217   1.745  -4.106  0.00  0.00    +0.147 C 
ATOM      5  N   UNL     1       8.668   1.412  -5.350  0.00  0.00    -0.282 N 
ATOM      6  H   UNL     1       8.957  -1.377  -3.665  0.00  0.00    +0.171 HD
ENDROOT
BRANCH   4   7
ATOM      7  C   UNL     1       9.557   3.049  -3.715  0.00  0.00    +0.022 C 
ATOM      8  C   UNL     1      10.195   3.437  -2.536  0.00  0.00    +0.006 A 
ATOM      9  C   UNL     1      10.677   2.707  -1.428  0.00  0.00    +0.010 A 
ATOM     10  C   UNL     1      11.270   3.362  -0.397  0.00  0.00    +0.001 A 
ATOM     11  C   UNL     1      11.420   4.750  -0.402  0.00  0.00    +0.002 A 
ATOM     12  C   UNL     1      10.981   5.514  -1.433  0.00  0.00    +0.026 A 
ATOM     13  C   UNL     1      10.351   4.901  -2.546  0.00  0.00    +0.043 A 
ATOM     14  N   UNL     1       9.847   5.410  -3.653  0.00  0.00    -0.380 N 
ATOM     15  C   UNL     1       9.315   4.328  -4.486  0.00  0.00    +0.152 C 
ATOM     16  H   UNL     1       9.834   6.353  -3.882  0.00  0.00    +0.160 HD
ENDBRANCH   4   7
BRANCH   5  17
ATOM     17  C   UNL     1       8.356   2.332  -6.447  0.00  0.00    +0.078 C 
ATOM     18  C   UNL     1       7.677   1.748  -7.688  0.00  0.00    +0.024 C 
ATOM     19  C   UNL     1       9.145   2.174  -7.748  0.00  0.00    +0.024 C 
ENDBRANCH   5  17
BRANCH   1  20
ATOM     20  S   UNL     1       6.708  -0.444  -5.540  0.00  0.00    -0.118 S 
BRANCH  20  21
ATOM     21  C   UNL     1       5.906   0.399  -4.149  0.00  0.00    +0.082 C 
BRANCH  21  22
ATOM     22  C   UNL     1       4.398   0.143  -4.197  0.00  0.00    +0.107 C 
BRANCH  22  27
ATOM     23  N   UNL     1       0.465   1.298  -1.686  0.00  0.00    -0.294 N 
ATOM     24  C   UNL     1       1.801   1.384  -1.847  0.00  0.00    +0.306 C 
ATOM     25  O   UNL     1       2.467   2.027  -1.060  0.00  0.00    -0.252 OA
ATOM     26  N   UNL     1       2.397   0.758  -2.881  0.00  0.00    -0.240 N 
ATOM     27  C   UNL     1       3.732   0.844  -3.042  0.00  0.00    +0.221 C 
ATOM     28  O   UNL     1       4.397   1.485  -2.256  0.00  0.00    -0.275 OA
ATOM     29  H   UNL     1      -0.067   0.785  -2.314  0.00  0.00    +0.151 HD
ATOM     30  H   UNL     1       1.864   0.245  -3.509  0.00  0.00    +0.159 HD
BRANCH  23  32
ATOM     31  C   UNL     1       0.082   3.483  -0.656  0.00  0.00    +0.031 C 
ATOM     32  C   UNL     1      -0.182   1.980  -0.562  0.00  0.00    +0.028 C 
ATOM     33  C   UNL     1       0.384   1.444   0.754  0.00  0.00    +0.031 C 
ATOM     34  C   UNL     1      -1.690   1.723  -0.611  0.00  0.00    +0.031 C 
ENDBRANCH  23  32
ENDBRANCH  22  27
ENDBRANCH  21  22
ENDBRANCH  20  21
ENDBRANCH   1  20
TORSDOF 7
