REMARK  Name = ZINC30879733
REMARK  11 active torsions:
REMARK  status: ('A' for Active; 'I' for Inactive)
REMARK    1  A    between atoms: C_1  and  N_2
REMARK    2  A    between atoms: N_2  and  C_3
REMARK    3  A    between atoms: N_2  and  C_10
REMARK    4  A    between atoms: C_3  and  C_4
REMARK    5  A    between atoms: C_12  and  C_22
REMARK    6  A    between atoms: C_15  and  C_20
REMARK    7  A    between atoms: C_17  and  O_19
REMARK    8  A    between atoms: C_20  and  O_21
REMARK    9  A    between atoms: C_22  and  N_23
REMARK   10  A    between atoms: N_23  and  C_24
REMARK   11  A    between atoms: C_24  and  C_25
REMARK                            x       y       z     vdW  Elec       q    Type
REMARK                         _______ _______ _______ _____ _____    ______ ____
ROOT
ATOM      1  C   UNL     1      -0.165   0.904   2.418  0.00  0.00    -0.009 C 
ATOM      2  C   UNL     1      -0.994   1.294   3.662  0.00  0.00    +0.091 C 
ATOM      3  O   UNL     1      -0.026   1.417   4.726  0.00  0.00    -0.372 OA
ATOM      4  C   UNL     1       1.114   2.072   4.130  0.00  0.00    +0.171 C 
ATOM      5  C   UNL     1       1.254   1.428   2.733  0.00  0.00    +0.134 C 
ENDROOT
BRANCH   1   7
ATOM      6  C   UNL     1      -0.615   3.022   1.332  0.00  0.00    -0.095 C 
ATOM      7  N   UNL     1      -0.700   1.560   1.217  0.00  0.00    +0.386 N 
ATOM      8  H   UNL     1      -1.763   1.289   1.129  0.00  0.00    -0.081 HD
BRANCH   7   9
ATOM      9  C   UNL     1      -0.013   1.086   0.008  0.00  0.00    -0.043 C 
BRANCH   9  10
ATOM     10  C   UNL     1      -0.742   1.585  -1.213  0.00  0.00    -0.064 A 
ATOM     11  C   UNL     1      -1.750   0.825  -1.775  0.00  0.00    +0.002 A 
ATOM     12  C   UNL     1      -2.422   1.285  -2.892  0.00  0.00    +0.000 A 
ATOM     13  C   UNL     1      -2.078   2.501  -3.453  0.00  0.00    +0.000 A 
ATOM     14  C   UNL     1      -1.066   3.259  -2.894  0.00  0.00    +0.000 A 
ATOM     15  C   UNL     1      -0.398   2.801  -1.774  0.00  0.00    +0.002 A 
ENDBRANCH   9  10
ENDBRANCH   7   9
ENDBRANCH   1   7
BRANCH   5  16
ATOM     16  O   UNL     1       2.190   0.349   2.768  0.00  0.00    -0.391 OA
ATOM     17  H   UNL     1       3.251   0.547   2.980  0.00  0.00    +0.210 HD
ENDBRANCH   5  16
BRANCH   4  18
ATOM     18  C   UNL     1       2.372   1.815   4.963  0.00  0.00    +0.190 C 
BRANCH  18  19
ATOM     19  O   UNL     1       2.272   2.515   6.205  0.00  0.00    -0.392 OA
ATOM     20  H   UNL     1       3.087   2.450   6.941  0.00  0.00    +0.210 HD
ENDBRANCH  18  19
ENDBRANCH   4  18
BRANCH   2  21
ATOM     21  C   UNL     1      -2.010   0.198   3.989  0.00  0.00    -0.052 C 
BRANCH  21  22
ATOM     22  N   UNL     1      -2.866   0.640   5.098  0.00  0.00    +0.383 N 
ATOM     23  H   UNL     1      -2.245   0.840   5.984  0.00  0.00    -0.085 HD
ATOM     24  H   UNL     1      -3.398   1.558   4.808  0.00  0.00    -0.085 HD
BRANCH  22  25
ATOM     25  C   UNL     1      -3.857  -0.390   5.441  0.00  0.00    -0.047 C 
BRANCH  25  26
ATOM     26  C   UNL     1      -4.715   0.098   6.580  0.00  0.00    -0.063 A 
ATOM     27  C   UNL     1      -5.877   0.800   6.319  0.00  0.00    +0.002 A 
ATOM     28  C   UNL     1      -6.664   1.247   7.363  0.00  0.00    +0.002 A 
ATOM     29  C   UNL     1      -6.290   0.993   8.669  0.00  0.00    +0.020 A 
ATOM     30  C   UNL     1      -5.128   0.290   8.931  0.00  0.00    +0.041 A 
ATOM     31  C   UNL     1      -4.343  -0.162   7.885  0.00  0.00    +0.021 A 
ATOM     32 CL   UNL     1      -4.658  -0.031  10.571  0.00  0.00    -0.084 Cl
ENDBRANCH  25  26
ENDBRANCH  22  25
ENDBRANCH  21  22
ENDBRANCH   2  21
TORSDOF 10
