REMARK  Name = ZINC35075099
REMARK  7 active torsions:
REMARK  status: ('A' for Active; 'I' for Inactive)
REMARK    1  A    between atoms: C_1  and  C_2
REMARK    2  A    between atoms: C_8  and  N_10
REMARK    3  A    between atoms: N_10  and  C_11
REMARK    4  A    between atoms: C_11  and  C_12
REMARK    5  A    between atoms: C_12  and  C_14
REMARK    6  A    between atoms: C_12  and  O_29
REMARK    7  A    between atoms: C_14  and  N_15
REMARK                            x       y       z     vdW  Elec       q    Type
REMARK                         _______ _______ _______ _____ _____    ______ ____
ROOT
ATOM      1  C   UNL     1       0.642  -0.735   6.133  0.00  0.00    +0.151 C 
ENDROOT
BRANCH   1   2
ATOM      2  N   UNL     1      -0.115  -0.359   7.329  0.00  0.00    -0.340 N 
ATOM      3  C   UNL     1       0.106   0.764   8.081  0.00  0.00    +0.023 A 
ATOM      4  C   UNL     1      -0.767   0.805   9.111  0.00  0.00    -0.019 A 
ATOM      5  C   UNL     1      -1.603  -0.373   9.007  0.00  0.00    +0.005 A 
ATOM      6  C   UNL     1      -1.152  -1.073   7.859  0.00  0.00    +0.068 A 
ATOM      7  C   UNL     1      -1.760  -2.266   7.472  0.00  0.00    +0.065 A 
ATOM      8  C   UNL     1      -2.811  -2.717   8.254  0.00  0.00    +0.022 A 
ATOM      9  C   UNL     1      -3.249  -2.027   9.372  0.00  0.00    +0.002 A 
ATOM     10  C   UNL     1      -2.663  -0.854   9.782  0.00  0.00    +0.010 A 
ATOM     11 CL   UNL     1      -1.226  -3.146   6.074  0.00  0.00    -0.081 Cl
ATOM     12  C   UNL     1      -0.814   1.900  10.146  0.00  0.00    +0.037 C 
ATOM     13  C   UNL     1       0.501   2.687  10.083  0.00  0.00    +0.005 C 
ATOM     14  C   UNL     1       0.789   3.076   8.630  0.00  0.00    +0.006 C 
ATOM     15  C   UNL     1       1.156   1.821   7.830  0.00  0.00    +0.054 C 
ENDBRANCH   1   2
BRANCH   1  16
ATOM     16  C   UNL     1      -0.023  -0.127   4.896  0.00  0.00    +0.117 C 
BRANCH  16  17
ATOM     17  O   UNL     1       0.059   1.298   4.963  0.00  0.00    -0.392 OA
ATOM     18  H   UNL     1       0.963   1.638   4.997  0.00  0.00    +0.210 HD
ENDBRANCH  16  17
BRANCH  16  19
ATOM     19  C   UNL     1       0.693  -0.621   3.637  0.00  0.00    -0.049 C 
BRANCH  19  20
ATOM     20  N   UNL     1       0.054  -0.037   2.450  0.00  0.00    +0.383 N 
ATOM     21  H   UNL     1       0.112   0.969   2.498  0.00  0.00    -0.085 HD
ATOM     22  H   UNL     1      -0.914  -0.317   2.417  0.00  0.00    -0.085 HD
BRANCH  20  29
ATOM     23  C   UNL     1      -0.019   1.526   0.010  0.00  0.00    +0.006 C 
ATOM     24  C   UNL     1       0.002  -0.004   0.002  0.00  0.00    -0.028 C 
ATOM     25  C   UNL     1       0.718  -0.497  -1.257  0.00  0.00    +0.002 C 
ATOM     26  C   UNL     1       2.154   0.032  -1.268  0.00  0.00    +0.000 C 
ATOM     27  C   UNL     1       2.894  -0.475  -0.028  0.00  0.00    -0.002 C 
ATOM     28  C   UNL     1       2.178   0.019   1.231  0.00  0.00    -0.016 C 
ATOM     29  C   UNL     1       0.742  -0.511   1.242  0.00  0.00    -0.069 C 
ENDBRANCH  20  29
ENDBRANCH  19  20
ENDBRANCH  16  19
ENDBRANCH   1  16
TORSDOF 6
