REMARK  Name = ZINC67480830
REMARK  7 active torsions:
REMARK  status: ('A' for Active; 'I' for Inactive)
REMARK    1  A    between atoms: C_4  and  C_7
REMARK    2  A    between atoms: C_7  and  C_9
REMARK    3  A    between atoms: C_7  and  N_12
REMARK    4  A    between atoms: N_15  and  C_16
REMARK    5  A    between atoms: C_16  and  C_17
REMARK    6  A    between atoms: N_22  and  C_23
REMARK    7  A    between atoms: C_23  and  C_24
REMARK                            x       y       z     vdW  Elec       q    Type
REMARK                         _______ _______ _______ _____ _____    ______ ____
ROOT
ATOM      1  N   UNL     1       3.630  -1.873   0.845  0.00  0.00    -0.284 N 
ATOM      2  C   UNL     1       4.751  -2.385   1.391  0.00  0.00    +0.300 C 
ATOM      3  O   UNL     1       5.830  -1.879   1.150  0.00  0.00    -0.253 OA
ATOM      4  N   UNL     1       4.677  -3.458   2.203  0.00  0.00    -0.301 N 
ATOM      5  H   UNL     1       2.769  -2.277   1.038  0.00  0.00    +0.151 HD
ATOM      6  H   UNL     1       3.816  -3.862   2.395  0.00  0.00    +0.150 HD
ENDROOT
BRANCH   1   7
ATOM      7  C   UNL     1       3.711  -0.707  -0.038  0.00  0.00    +0.190 C 
BRANCH   7  11
ATOM      8  C   UNL     1      -0.017   1.378   0.010  0.00  0.00    +0.000 A 
ATOM      9  C   UNL     1       1.171   2.086   0.002  0.00  0.00    +0.000 A 
ATOM     10  C   UNL     1       2.377   1.411  -0.013  0.00  0.00    +0.006 A 
ATOM     11  C   UNL     1       2.396   0.029  -0.020  0.00  0.00    -0.018 A 
ATOM     12  C   UNL     1       1.208  -0.679  -0.012  0.00  0.00    +0.006 A 
ATOM     13  C   UNL     1       0.002  -0.004   0.002  0.00  0.00    +0.000 A 
ENDBRANCH   7  11
BRANCH   7  14
ATOM     14  C   UNL     1       4.014  -1.161  -1.442  0.00  0.00    +0.235 C 
ATOM     15  O   UNL     1       4.150  -2.342  -1.682  0.00  0.00    -0.274 OA
ATOM     16  N   UNL     1       4.136  -0.254  -2.432  0.00  0.00    -0.328 N 
ATOM     17  H   UNL     1       4.027   0.691  -2.240  0.00  0.00    +0.145 HD
ATOM     18  H   UNL     1       4.331  -0.546  -3.336  0.00  0.00    +0.145 HD
ENDBRANCH   7  14
ENDBRANCH   1   7
BRANCH   4  19
ATOM     19  C   UNL     1       5.896  -4.014   2.796  0.00  0.00    +0.090 C 
BRANCH  19  20
ATOM     20  C   UNL     1       5.535  -5.217   3.669  0.00  0.00    -0.051 C 
ATOM     21  C   UNL     1       6.821  -5.913   4.162  0.00  0.00    -0.016 C 
ATOM     22  C   UNL     1       6.452  -7.418   4.097  0.00  0.00    -0.020 C 
ATOM     23  C   UNL     1       5.553  -7.466   2.836  0.00  0.00    -0.078 C 
ATOM     24  N   UNL     1       4.778  -6.203   2.876  0.00  0.00    +0.383 N 
ATOM     25  H   UNL     1       4.646  -5.856   1.938  0.00  0.00    -0.081 HD
BRANCH  24  26
ATOM     26  C   UNL     1       3.470  -6.442   3.502  0.00  0.00    -0.075 C 
BRANCH  26  27
ATOM     27  C   UNL     1       2.640  -7.369   2.612  0.00  0.00    -0.028 C 
ATOM     28  C   UNL     1       2.333  -6.665   1.289  0.00  0.00    +0.002 C 
ATOM     29  C   UNL     1       1.503  -7.591   0.398  0.00  0.00    +0.000 C 
ATOM     30  C   UNL     1       0.193  -7.940   1.107  0.00  0.00    +0.000 C 
ATOM     31  C   UNL     1       0.500  -8.645   2.430  0.00  0.00    +0.000 C 
ATOM     32  C   UNL     1       1.330  -7.718   3.320  0.00  0.00    +0.002 C 
ENDBRANCH  26  27
ENDBRANCH  24  26
ENDBRANCH  19  20
ENDBRANCH   4  19
TORSDOF 7
