REMARK  Name = ZINC17307864
REMARK  11 active torsions:
REMARK  status: ('A' for Active; 'I' for Inactive)
REMARK    1  A    between atoms: C_3  and  C_6
REMARK    2  A    between atoms: C_6  and  N_56
REMARK    3  A    between atoms: C_7  and  C_8
REMARK    4  A    between atoms: C_7  and  N_56
REMARK    5  A    between atoms: C_14  and  C_15
REMARK    6  A    between atoms: C_14  and  N_56
REMARK    7  A    between atoms: N_17  and  C_18
REMARK    8  A    between atoms: C_18  and  C_19
REMARK    9  A    between atoms: C_19  and  C_20
REMARK   10  A    between atoms: C_23  and  S_26
REMARK   11  A    between atoms: S_26  and  N_29
REMARK                            x       y       z     vdW  Elec       q    Type
REMARK                         _______ _______ _______ _____ _____    ______ ____
ROOT
ATOM      1  C   UNL     1      -0.675   1.926  -3.685  0.00  0.00    +0.196 C 
ATOM      2  O   UNL     1      -1.542   2.747  -3.470  0.00  0.00    -0.278 OA
ATOM      3  N   UNL     1      -0.281   1.679  -4.950  0.00  0.00    -0.317 N 
ATOM      4  H   UNL     1       0.413   1.022  -5.122  0.00  0.00    +0.149 HD
ENDROOT
BRANCH   1   5
ATOM      5  C   UNL     1      -0.039   1.184  -2.538  0.00  0.00    +0.019 C 
BRANCH   5   6
ATOM      6  N   UNL     1      -0.671   1.626  -1.277  0.00  0.00    +0.390 N 
ATOM      7  H   UNL     1      -1.691   1.628  -1.398  0.00  0.00    -0.081 HD
BRANCH   6   8
ATOM      8  C   UNL     1      -0.319   0.698  -0.183  0.00  0.00    -0.035 C 
BRANCH   8  11
ATOM      9  C   UNL     1      -2.848   1.156   2.629  0.00  0.00    +0.008 A 
ATOM     10  C   UNL     1      -2.325   0.667   1.447  0.00  0.00    +0.009 A 
ATOM     11  C   UNL     1      -1.097   1.080   1.050  0.00  0.00    -0.027 A 
ATOM     12  S   UNL     1      -0.636   2.189   2.371  0.00  0.00    -0.103 S 
ATOM     13  C   UNL     1      -2.115   2.034   3.358  0.00  0.00    +0.045 A 
ENDBRANCH   8  11
ENDBRANCH   6   8
BRANCH   6  14
ATOM     14  C   UNL     1      -0.226   2.995  -0.942  0.00  0.00    -0.046 C 
BRANCH  14  15
ATOM     15  C   UNL     1       1.300   3.054  -0.847  0.00  0.00    +0.102 C 
ATOM     16  C   UNL     1       1.758   4.515  -0.670  0.00  0.00    +0.032 C 
ATOM     17  C   UNL     1       2.543   4.507   0.664  0.00  0.00    +0.030 C 
ATOM     18  C   UNL     1       2.911   3.009   0.816  0.00  0.00    +0.160 C 
ATOM     19  O   UNL     1       1.747   2.323   0.307  0.00  0.00    -0.378 OA
ENDBRANCH  14  15
ENDBRANCH   6  14
ENDBRANCH   5   6
ENDBRANCH   1   5
BRANCH   3  20
ATOM     20  C   UNL     1      -0.899   2.400  -6.065  0.00  0.00    +0.109 C 
BRANCH  20  21
ATOM     21  C   UNL     1      -0.275   1.935  -7.382  0.00  0.00    +0.054 C 
BRANCH  21  22
ATOM     22  C   UNL     1      -0.911   2.677  -8.529  0.00  0.00    -0.046 A 
ATOM     23  C   UNL     1      -2.031   2.159  -9.151  0.00  0.00    +0.005 A 
ATOM     24  C   UNL     1      -2.618   2.843 -10.200  0.00  0.00    +0.029 A 
ATOM     25  C   UNL     1      -2.077   4.039 -10.634  0.00  0.00    +0.105 A 
ATOM     26  C   UNL     1      -0.953   4.554 -10.015  0.00  0.00    +0.029 A 
ATOM     27  C   UNL     1      -0.370   3.873  -8.963  0.00  0.00    +0.005 A 
BRANCH  25  28
ATOM     28  S   UNL     1      -2.820   4.906 -11.975  0.00  0.00    +0.056 S 
ATOM     29  O   UNL     1      -4.178   4.489 -12.026  0.00  0.00    -0.153 OA
ATOM     30  O   UNL     1      -2.446   6.270 -11.834  0.00  0.00    -0.153 OA
BRANCH  28  31
ATOM     31  N   UNL     1      -2.106   4.361 -13.366  0.00  0.00    -0.204 NA
ATOM     32  H   UNL     1      -1.413   3.683 -13.322  0.00  0.00    +0.144 HD
ATOM     33  H   UNL     1      -2.379   4.720 -14.225  0.00  0.00    +0.144 HD
ENDBRANCH  28  31
ENDBRANCH  25  28
ENDBRANCH  21  22
ENDBRANCH  20  21
ENDBRANCH   3  20
TORSDOF 11
