REMARK  Name = ZINC66929901
REMARK  7 active torsions:
REMARK  status: ('A' for Active; 'I' for Inactive)
REMARK    1  A    between atoms: C_1  and  C_2
REMARK    2  A    between atoms: C_2  and  C_4
REMARK    3  A    between atoms: C_2  and  N_19
REMARK    4  A    between atoms: N_6  and  C_7
REMARK    5  A    between atoms: C_7  and  C_8
REMARK    6  A    between atoms: C_8  and  O_18
REMARK    7  A    between atoms: C_20  and  C_22
REMARK                            x       y       z     vdW  Elec       q    Type
REMARK                         _______ _______ _______ _____ _____    ______ ____
ROOT
ATOM      1  C   UNL     1       0.861  -0.806  -1.053  0.00  0.00    +0.233 C 
ATOM      2  O   UNL     1       0.307  -1.575  -1.810  0.00  0.00    -0.274 OA
ATOM      3  N   UNL     1       2.051  -0.271  -1.388  0.00  0.00    -0.311 N 
ATOM      4  H   UNL     1       2.494   0.344  -0.783  0.00  0.00    +0.149 HD
ENDROOT
BRANCH   1   6
ATOM      5  C   UNL     1      -0.027   1.061   0.317  0.00  0.00    +0.038 C 
ATOM      6  C   UNL     1       0.218  -0.449   0.262  0.00  0.00    +0.156 C 
BRANCH   6   7
ATOM      7  N   UNL     1      -1.059  -1.155   0.389  0.00  0.00    -0.300 N 
ATOM      8  C   UNL     1      -1.569  -1.412   1.610  0.00  0.00    +0.246 C 
ATOM      9  O   UNL     1      -0.968  -1.058   2.606  0.00  0.00    -0.270 OA
ATOM     10  H   UNL     1      -1.538  -1.438  -0.406  0.00  0.00    +0.150 HD
BRANCH   8  11
ATOM     11  C   UNL     1      -2.857  -2.125   1.738  0.00  0.00    +0.055 A 
ATOM     12  C   UNL     1      -3.546  -2.539   0.597  0.00  0.00    +0.014 A 
ATOM     13  C   UNL     1      -4.747  -3.204   0.723  0.00  0.00    +0.001 A 
ATOM     14  C   UNL     1      -5.271  -3.462   1.978  0.00  0.00    +0.001 A 
ATOM     15  C   UNL     1      -4.595  -3.055   3.114  0.00  0.00    +0.021 A 
ATOM     16  C   UNL     1      -3.388  -2.393   3.002  0.00  0.00    +0.053 A 
ATOM     17 CL   UNL     1      -2.536  -1.890   4.429  0.00  0.00    -0.083 Cl
ENDBRANCH   8  11
ENDBRANCH   6   7
ENDBRANCH   1   6
BRANCH   3  18
ATOM     18  C   UNL     1       2.677  -0.618  -2.667  0.00  0.00    +0.143 C 
BRANCH  18  19
ATOM     19  C   UNL     1       4.069   0.011  -2.741  0.00  0.00    +0.107 C 
ATOM     20  C   UNL     1       4.903  -0.469  -1.555  0.00  0.00    +0.041 C 
ATOM     21  C   UNL     1       6.351  -0.007  -1.763  0.00  0.00    +0.008 C 
ATOM     22  C   UNL     1       6.949  -0.805  -2.920  0.00  0.00    +0.035 C 
ATOM     23  C   UNL     1       6.046  -0.751  -4.124  0.00  0.00    -0.041 A 
ATOM     24  C   UNL     1       4.722  -0.380  -4.041  0.00  0.00    -0.011 A 
ATOM     25  C   UNL     1       3.942  -0.357  -5.189  0.00  0.00    +0.007 A 
ATOM     26  C   UNL     1       4.482  -0.699  -6.412  0.00  0.00    +0.000 A 
ATOM     27  C   UNL     1       5.812  -1.068  -6.495  0.00  0.00    +0.000 A 
ATOM     28  C   UNL     1       6.589  -1.093  -5.355  0.00  0.00    +0.004 A 
BRANCH  19  29
ATOM     29  O   UNL     1       3.947   1.434  -2.684  0.00  0.00    -0.382 OA
ATOM     30  H   UNL     1       3.422   1.812  -3.403  0.00  0.00    +0.211 HD
ENDBRANCH  19  29
ENDBRANCH  18  19
ENDBRANCH   3  18
TORSDOF 6
