REMARK  Name = ZINC66106440
REMARK  5 active torsions:
REMARK  status: ('A' for Active; 'I' for Inactive)
REMARK    1  A    between atoms: C_3  and  C_6
REMARK    2  A    between atoms: C_6  and  C_7
REMARK    3  A    between atoms: C_7  and  N_8
REMARK    4  A    between atoms: C_12  and  C_15
REMARK    5  A    between atoms: C_17  and  C_20
REMARK                            x       y       z     vdW  Elec       q    Type
REMARK                         _______ _______ _______ _____ _____    ______ ____
ROOT
ATOM      1  N   UNL     1       5.633   2.506   1.403  0.00  0.00    -0.366 N 
ATOM      2  C   UNL     1       6.258   2.721   2.528  0.00  0.00    +0.148 C 
ATOM      3  N   UNL     1       5.669   2.492   3.768  0.00  0.00    -0.217 N 
ATOM      4  N   UNL     1       5.961   3.340   4.833  0.00  0.00    -0.181 NA
ATOM      5  C   UNL     1       6.833   4.267   4.889  0.00  0.00    +0.111 C 
ATOM      6  C   UNL     1       7.756   4.697   3.784  0.00  0.00    +0.137 C 
ATOM      7  S   UNL     1       7.930   3.321   2.594  0.00  0.00    -0.085 S 
ATOM      8  H   UNL     1       5.059   1.748   3.889  0.00  0.00    +0.176 HD
ATOM      9  H   UNL     1       6.082   2.674   0.560  0.00  0.00    +0.161 HD
ENDROOT
BRANCH   5  10
ATOM     10  C   UNL     1       6.947   4.988   6.162  0.00  0.00    +0.152 A 
ATOM     11  C   UNL     1       6.211   4.749   7.280  0.00  0.00    +0.064 A 
ATOM     12  C   UNL     1       6.654   5.675   8.263  0.00  0.00    +0.075 A 
ATOM     13  C   UNL     1       7.636   6.422   7.679  0.00  0.00    +0.208 A 
ATOM     14  O   UNL     1       7.804   5.996   6.422  0.00  0.00    -0.461 OA
BRANCH  12  15
ATOM     15  C   UNL     1       6.151   5.803   9.643  0.00  0.00    +0.245 C 
ATOM     16  O   UNL     1       5.266   5.069  10.038  0.00  0.00    -0.270 OA
ATOM     17  N   UNL     1       6.672   6.734  10.466  0.00  0.00    -0.325 N 
ATOM     18  H   UNL     1       7.378   7.320  10.150  0.00  0.00    +0.145 HD
ATOM     19  H   UNL     1       6.341   6.819  11.374  0.00  0.00    +0.145 HD
ENDBRANCH  12  15
ENDBRANCH   5  10
BRANCH   1  20
ATOM     20  C   UNL     1       4.255   2.011   1.414  0.00  0.00    +0.119 C 
BRANCH  20  21
ATOM     21  C   UNL     1       3.761   1.845  -0.024  0.00  0.00    +0.063 C 
BRANCH  21  24
ATOM     22  C   UNL     1      -0.016   1.351   0.009  0.00  0.00    +0.008 A 
ATOM     23  C   UNL     1       1.183   2.038   0.002  0.00  0.00    +0.011 A 
ATOM     24  C   UNL     1       2.343   1.336  -0.013  0.00  0.00    -0.009 A 
ATOM     25  S   UNL     1       1.754  -0.349  -0.017  0.00  0.00    -0.102 S 
ATOM     26  C   UNL     1       0.002  -0.004   0.002  0.00  0.00    +0.045 A 
ENDBRANCH  21  24
ENDBRANCH  20  21
ENDBRANCH   1  20
TORSDOF 5
