REMARK  Name = ZINC36385862
REMARK  15 active torsions:
REMARK  status: ('A' for Active; 'I' for Inactive)
REMARK    1  A    between atoms: C_1  and  C_2
REMARK    2  A    between atoms: C_5  and  O_9
REMARK    3  A    between atoms: C_6  and  C_8
REMARK    4  A    between atoms: O_9  and  C_10
REMARK    5  A    between atoms: C_10  and  C_11
REMARK    6  A    between atoms: C_11  and  C_13
REMARK    7  A    between atoms: C_11  and  O_31
REMARK    8  A    between atoms: C_13  and  N_14
REMARK    9  A    between atoms: N_14  and  C_15
REMARK   10  A    between atoms: C_15  and  C_17
REMARK   11  A    between atoms: C_15  and  C_19
REMARK   12  A    between atoms: C_17  and  O_18
REMARK   13  A    between atoms: C_19  and  C_21
REMARK   14  A    between atoms: C_19  and  O_30
REMARK   15  A    between atoms: C_24  and  N_27
REMARK                            x       y       z     vdW  Elec       q    Type
REMARK                         _______ _______ _______ _____ _____    ______ ____
ROOT
ATOM      1  N   UNK A   1       0.227  -8.431  -2.283  0.00  0.00    +0.386 N 
ATOM      2  H   UNK A   1       1.012  -8.686  -1.704  0.00  0.00    -0.085 HD
ATOM      3  H   UNK A   1      -0.630  -8.725  -1.838  0.00  0.00    -0.085 HD
ENDROOT
BRANCH   1   4
ATOM      4  C   UNK A   0       0.207  -6.973  -2.468  0.00  0.00    -0.047 C 
BRANCH   4   5
ATOM      5  C   UNK A   0       0.079  -6.289  -1.105  0.00  0.00    +0.135 C 
BRANCH   5   6
ATOM      6  O   UNK A   0      -1.133  -6.705  -0.474  0.00  0.00    -0.390 OA
ATOM      7  H   UNK A   0      -1.932  -6.492  -0.977  0.00  0.00    +0.210 HD
ENDBRANCH   5   6
BRANCH   5   8
ATOM      8  C   UNK A   0       0.058  -4.771  -1.298  0.00  0.00    +0.258 C 
BRANCH   8   9
ATOM      9  O   UNK A   0       0.057  -4.129  -0.021  0.00  0.00    -0.489 OA
BRANCH   9  14
ATOM     10  C   UNK A   0      -0.018   1.503   0.010  0.00  0.00    +0.044 C 
ATOM     11  C   UNK A   0       0.002  -0.004   0.002  0.00  0.00    -0.050 A 
ATOM     12  C   UNK A   0       0.006  -0.688  -1.200  0.00  0.00    +0.007 A 
ATOM     13  C   UNK A   0       0.024  -2.069  -1.210  0.00  0.00    +0.046 A 
ATOM     14  C   UNK A   0       0.039  -2.770  -0.013  0.00  0.00    +0.124 A 
ATOM     15  C   UNK A   0       0.036  -2.082   1.191  0.00  0.00    -0.009 A 
ATOM     16  C   UNK A   0       0.023  -0.701   1.196  0.00  0.00    +0.010 A 
ATOM     17  C   UNK A   0       0.052  -2.841   2.493  0.00  0.00    +0.047 C 
ENDBRANCH   9  14
ENDBRANCH   8   9
ENDBRANCH   5   8
ENDBRANCH   4   5
ENDBRANCH   1   4
BRANCH   1  18
ATOM     18  C   UNK A   1       0.349  -9.088  -3.591  0.00  0.00    -0.012 C 
BRANCH  18  19
ATOM     19  C   UNK A   1      -0.902  -8.803  -4.425  0.00  0.00    +0.143 C 
BRANCH  19  20
ATOM     20  O   UNK A   1      -2.037  -9.407  -3.802  0.00  0.00    -0.397 OA
ATOM     21  H   UNK A   1      -2.868  -9.267  -4.277  0.00  0.00    +0.209 HD
ENDBRANCH  19  20
ENDBRANCH  18  19
BRANCH  18  22
ATOM     22  C   UNK A   1       0.495 -10.598  -3.391  0.00  0.00    +0.133 C 
BRANCH  22  23
ATOM     23  C   UNK A   1       1.655 -10.873  -2.469  0.00  0.00    -0.020 A 
ATOM     24  C   UNK A   1       1.470 -10.849  -1.100  0.00  0.00    +0.008 A 
ATOM     25  C   UNK A   1       2.534 -11.101  -0.254  0.00  0.00    +0.033 A 
ATOM     26  C   UNK A   1       3.783 -11.377  -0.778  0.00  0.00    +0.126 A 
ATOM     27  C   UNK A   1       3.968 -11.403  -2.148  0.00  0.00    +0.033 A 
ATOM     28  C   UNK A   1       2.903 -11.155  -2.994  0.00  0.00    +0.008 A 
BRANCH  26  29
ATOM     29  N   UNK A   1       4.923 -11.647   0.127  0.00  0.00    +0.056 N 
ATOM     30  O   UNK A   1       4.762 -11.624   1.325  0.00  0.00    -0.126 OA
ATOM     31  O   UNK A   1       6.015 -11.889  -0.331  0.00  0.00    -0.126 OA
ENDBRANCH  26  29
ENDBRANCH  22  23
BRANCH  22  32
ATOM     32  O   UNK A   1      -0.704 -11.120  -2.816  0.00  0.00    -0.389 OA
ATOM     33  H   UNK A   1      -0.927 -10.739  -1.956  0.00  0.00    +0.210 HD
ENDBRANCH  22  32
ENDBRANCH  18  22
ENDBRANCH   1  18
TORSDOF 13
