REMARK  Name = ZINC01837001
REMARK  11 active torsions:
REMARK  status: ('A' for Active; 'I' for Inactive)
REMARK    1  A    between atoms: C_1  and  O_2
REMARK    2  A    between atoms: O_2  and  C_3
REMARK    3  A    between atoms: C_6  and  C_9
REMARK    4  A    between atoms: C_12  and  S_22
REMARK    5  A    between atoms: N_13  and  C_14
REMARK    6  A    between atoms: C_17  and  O_20
REMARK    7  A    between atoms: O_20  and  C_21
REMARK    8  A    between atoms: S_22  and  C_23
REMARK    9  A    between atoms: C_23  and  C_24
REMARK   10  A    between atoms: N_26  and  N_27
REMARK   11  A    between atoms: C_28  and  C_29
REMARK                            x       y       z     vdW  Elec       q    Type
REMARK                         _______ _______ _______ _____ _____    ______ ____
ROOT
ATOM      1  C   UNL     1      -4.959  -2.618   0.034  0.00  0.00    +0.169 A 
ATOM      2  N   UNL     1      -6.124  -2.078   0.312  0.00  0.00    -0.128 NA
ATOM      3  N   UNL     1      -7.051  -2.964   0.225  0.00  0.00    -0.122 NA
ATOM      4  C   UNL     1      -6.537  -4.125  -0.114  0.00  0.00    +0.197 A 
ATOM      5  N   UNL     1      -5.187  -3.945  -0.253  0.00  0.00    -0.270 N 
ENDROOT
BRANCH   1   9
ATOM      6  C   UNL     1      -1.200  -0.637   0.010  0.00  0.00    +0.120 A 
ATOM      7  C   UNL     1      -2.374   0.105   0.019  0.00  0.00    +0.046 A 
ATOM      8  C   UNL     1      -3.595  -0.534   0.027  0.00  0.00    +0.015 A 
ATOM      9  C   UNL     1      -3.651  -1.929   0.026  0.00  0.00    +0.020 A 
ATOM     10  C   UNL     1      -2.469  -2.671   0.016  0.00  0.00    +0.015 A 
ATOM     11  C   UNL     1      -1.252  -2.025   0.003  0.00  0.00    +0.046 A 
BRANCH   6  13
ATOM     12  C   UNL     1      -0.017   1.425   0.010  0.00  0.00    +0.277 C 
ATOM     13  O   UNL     1       0.002  -0.004   0.002  0.00  0.00    -0.495 OA
ENDBRANCH   6  13
ENDBRANCH   1   9
BRANCH   5  14
ATOM     14  C   UNL     1      -4.235  -4.912  -0.610  0.00  0.00    +0.051 A 
ATOM     15  C   UNL     1      -3.532  -4.787  -1.800  0.00  0.00    +0.030 A 
ATOM     16  C   UNL     1      -2.595  -5.739  -2.152  0.00  0.00    +0.047 A 
ATOM     17  C   UNL     1      -2.356  -6.819  -1.315  0.00  0.00    +0.120 A 
ATOM     18  C   UNL     1      -3.059  -6.945  -0.126  0.00  0.00    +0.047 A 
ATOM     19  C   UNL     1      -3.991  -5.990   0.230  0.00  0.00    +0.030 A 
BRANCH  17  20
ATOM     20  O   UNL     1      -1.433  -7.756  -1.661  0.00  0.00    -0.495 OA
ATOM     21  C   UNL     1      -1.239  -8.842  -0.753  0.00  0.00    +0.277 C 
ENDBRANCH  17  20
ENDBRANCH   5  14
BRANCH   4  22
ATOM     22  S   UNL     1      -7.421  -5.631  -0.351  0.00  0.00    -0.076 S 
BRANCH  22  23
ATOM     23  C   UNL     1      -9.147  -5.182  -0.022  0.00  0.00    +0.174 C 
BRANCH  23  24
ATOM     24  C   UNL     1     -10.023  -6.397  -0.192  0.00  0.00    +0.242 C 
ATOM     25  O   UNL     1      -9.531  -7.460  -0.504  0.00  0.00    -0.273 OA
ATOM     26  N   UNL     1     -11.353  -6.301   0.003  0.00  0.00    -0.206 N 
ATOM     27  H   UNL     1     -11.747  -5.450   0.253  0.00  0.00    +0.177 HD
BRANCH  26  28
ATOM     28  N   UNL     1     -12.167  -7.430  -0.155  0.00  0.00    -0.188 NA
ATOM     29  C   UNL     1     -13.448  -7.338   0.033  0.00  0.00    +0.142 C 
BRANCH  29  30
ATOM     30  C   UNL     1     -14.305  -8.526  -0.133  0.00  0.00    +0.048 A 
ATOM     31  C   UNL     1     -13.740  -9.756  -0.488  0.00  0.00    +0.133 A 
ATOM     32  C   UNL     1     -14.550 -10.865  -0.641  0.00  0.00    +0.039 A 
ATOM     33  C   UNL     1     -15.916 -10.760  -0.446  0.00  0.00    +0.004 A 
ATOM     34  C   UNL     1     -16.481  -9.547  -0.096  0.00  0.00    +0.021 A 
ATOM     35  C   UNL     1     -15.684  -8.431   0.068  0.00  0.00    +0.052 A 
ATOM     36 CL   UNL     1     -16.396  -6.912   0.516  0.00  0.00    -0.083 Cl
ATOM     37  F   UNL     1     -12.407  -9.860  -0.679  0.00  0.00    -0.205 F 
ENDBRANCH  29  30
ENDBRANCH  26  28
ENDBRANCH  23  24
ENDBRANCH  22  23
ENDBRANCH   4  22
TORSDOF 9
