REMARK  Name = ZINC12902305
REMARK  10 active torsions:
REMARK  status: ('A' for Active; 'I' for Inactive)
REMARK    1  A    between atoms: C_1  and  C_2
REMARK    2  A    between atoms: C_3  and  N_9
REMARK    3  A    between atoms: C_10  and  C_12
REMARK    4  A    between atoms: C_12  and  N_13
REMARK    5  A    between atoms: C_14  and  C_16
REMARK    6  A    between atoms: C_16  and  N_50
REMARK    7  A    between atoms: C_17  and  N_50
REMARK    8  A    between atoms: C_18  and  C_19
REMARK    9  A    between atoms: C_18  and  N_50
REMARK   10  A    between atoms: C_22  and  C_25
REMARK                            x       y       z     vdW  Elec       q    Type
REMARK                         _______ _______ _______ _____ _____    ______ ____
ROOT
ATOM      1  N   UNL     1       0.546  -5.840  -3.177  0.00  0.00    -0.308 N 
ATOM      2  C   UNL     1       0.783  -4.545  -2.889  0.00  0.00    +0.197 C 
ATOM      3  O   UNL     1       0.797  -3.719  -3.776  0.00  0.00    -0.278 OA
ATOM      4  H   UNL     1       0.535  -6.501  -2.467  0.00  0.00    +0.149 HD
ENDROOT
BRANCH   1   5
ATOM      5  C   UNL     1       0.306  -6.250  -4.563  0.00  0.00    +0.200 C 
BRANCH   5   7
ATOM      6  N   UNL     1      -0.174  -8.342  -5.793  0.00  0.00    -0.284 N 
ATOM      7  C   UNL     1       0.070  -7.737  -4.613  0.00  0.00    +0.234 C 
ATOM      8  O   UNL     1       0.099  -8.391  -3.592  0.00  0.00    -0.274 OA
ATOM      9  H   UNL     1      -0.277  -7.810  -6.598  0.00  0.00    +0.155 HD
BRANCH   6  12
ATOM     10  C   UNL     1      -1.698  -9.479  -7.910  0.00  0.00    +0.047 C 
ATOM     11  C   UNL     1      -1.013 -10.332  -6.873  0.00  0.00    -0.011 A 
ATOM     12  C   UNL     1      -0.279  -9.735  -5.857  0.00  0.00    +0.038 A 
ATOM     13  C   UNL     1       0.347 -10.524  -4.901  0.00  0.00    +0.023 A 
ATOM     14  C   UNL     1       0.241 -11.900  -4.965  0.00  0.00    +0.003 A 
ATOM     15  C   UNL     1      -0.485 -12.493  -5.982  0.00  0.00    +0.020 A 
ATOM     16  C   UNL     1      -1.109 -11.709  -6.937  0.00  0.00    +0.046 A 
ATOM     17 CL   UNL     1      -2.021 -12.457  -8.211  0.00  0.00    -0.083 Cl
ENDBRANCH   6  12
ENDBRANCH   5   7
ENDBRANCH   1   5
BRANCH   2  18
ATOM     18  C   UNL     1       1.030  -4.124  -1.463  0.00  0.00    +0.019 C 
BRANCH  18  20
ATOM     19  C   UNL     1       2.506  -2.315  -2.105  0.00  0.00    -0.095 C 
ATOM     20  N   UNL     1       1.239  -2.661  -1.428  0.00  0.00    +0.386 N 
ATOM     21  H   UNL     1       0.462  -2.201  -1.918  0.00  0.00    -0.081 HD
BRANCH  20  22
ATOM     22  C   UNL     1       1.269  -2.189  -0.027  0.00  0.00    -0.043 C 
BRANCH  22  23
ATOM     23  C   UNL     1       1.261  -0.682  -0.022  0.00  0.00    -0.064 A 
ATOM     24  C   UNL     1       0.060   0.003  -0.010  0.00  0.00    +0.002 A 
ATOM     25  C   UNL     1       0.052   1.385  -0.004  0.00  0.00    +0.012 A 
ATOM     26  C   UNL     1       1.245   2.083  -0.011  0.00  0.00    +0.055 A 
ATOM     27  C   UNL     1       2.446   1.399  -0.025  0.00  0.00    +0.012 A 
ATOM     28  C   UNL     1       2.454   0.016  -0.030  0.00  0.00    +0.002 A 
BRANCH  26  29
ATOM     29  C   UNL     1       1.236   3.590  -0.005  0.00  0.00    +0.417 C 
ATOM     30  F   UNL     1       1.244   4.051   1.315  0.00  0.00    -0.166 F 
ATOM     31  F   UNL     1       2.371   4.065  -0.672  0.00  0.00    -0.166 F 
ATOM     32  F   UNL     1       0.086   4.052  -0.654  0.00  0.00    -0.166 F 
ENDBRANCH  26  29
ENDBRANCH  22  23
ENDBRANCH  20  22
ENDBRANCH  18  20
ENDBRANCH   2  18
TORSDOF 8
