REMARK  Name = ZINC63318948
REMARK  7 active torsions:
REMARK  status: ('A' for Active; 'I' for Inactive)
REMARK    1  A    between atoms: C_6  and  S_10
REMARK    2  A    between atoms: S_10  and  C_11
REMARK    3  A    between atoms: C_14  and  C_16
REMARK    4  A    between atoms: C_17  and  C_18
REMARK    5  A    between atoms: C_17  and  C_20
REMARK    6  A    between atoms: N_22  and  C_23
REMARK    7  A    between atoms: C_26  and  O_29
REMARK                            x       y       z     vdW  Elec       q    Type
REMARK                         _______ _______ _______ _____ _____    ______ ____
ROOT
ATOM      1  C   UNL     1       2.854  -1.900  -2.744  0.00  0.00    +0.165 A 
ATOM      2  C   UNL     1       2.871  -2.116  -4.108  0.00  0.00    +0.057 A 
ATOM      3  C   UNL     1       2.175  -1.066  -4.697  0.00  0.00    +0.050 A 
ATOM      4  C   UNL     1       1.751  -0.235  -3.665  0.00  0.00    +0.131 A 
ATOM      5  O   UNL     1       2.173  -0.770  -2.496  0.00  0.00    -0.449 OA
ENDROOT
BRANCH   4   6
ATOM      6  C   UNL     1       1.014   0.943  -3.810  0.00  0.00    +0.070 C 
ATOM      7  C   UNL     1       0.744   1.737  -2.697  0.00  0.00    +0.117 C 
BRANCH   7   8
ATOM      8  C   UNL     1       0.069   3.026  -2.864  0.00  0.00    +0.259 C 
ATOM      9  O   UNL     1      -0.258   3.403  -3.975  0.00  0.00    -0.269 OA
ATOM     10  N   UNL     1      -0.192   3.794  -1.788  0.00  0.00    -0.281 N 
ATOM     11  H   UNL     1       0.135   3.531  -0.913  0.00  0.00    +0.155 HD
BRANCH  10  12
ATOM     12  C   UNL     1      -0.936   4.972  -1.932  0.00  0.00    +0.034 A 
ATOM     13  C   UNL     1      -0.641   6.080  -1.149  0.00  0.00    +0.027 A 
ATOM     14  C   UNL     1      -1.375   7.241  -1.292  0.00  0.00    +0.047 A 
ATOM     15  C   UNL     1      -2.407   7.300  -2.217  0.00  0.00    +0.117 A 
ATOM     16  C   UNL     1      -2.703   6.193  -2.999  0.00  0.00    +0.047 A 
ATOM     17  C   UNL     1      -1.966   5.034  -2.862  0.00  0.00    +0.027 A 
BRANCH  15  18
ATOM     18  O   UNL     1      -3.130   8.443  -2.357  0.00  0.00    -0.507 OA
ATOM     19  H   UNL     1      -2.772   9.058  -3.012  0.00  0.00    +0.292 HD
ENDBRANCH  15  18
ENDBRANCH  10  12
ENDBRANCH   7   8
BRANCH   7  20
ATOM     20  C   UNL     1       1.128   1.293  -1.391  0.00  0.00    +0.104 C 
ATOM     21  N   UNL     1       1.432   0.941  -0.354  0.00  0.00    -0.191 NA
ENDBRANCH   7  20
ENDBRANCH   4   6
BRANCH   1  22
ATOM     22  S   UNL     1       3.598  -2.938  -1.530  0.00  0.00    -0.042 S 
BRANCH  22  28
ATOM     23  C   UNL     1       6.649   1.738  -3.168  0.00  0.00    +0.002 A 
ATOM     24  C   UNL     1       7.228   0.832  -4.074  0.00  0.00    +0.002 A 
ATOM     25  C   UNL     1       7.099  -0.504  -3.948  0.00  0.00    +0.027 A 
ATOM     26  C   UNL     1       6.326  -1.055  -2.826  0.00  0.00    +0.061 A 
ATOM     27  N   UNL     1       6.039  -2.271  -2.462  0.00  0.00    -0.355 N 
ATOM     28  C   UNL     1       5.223  -2.186  -1.244  0.00  0.00    +0.243 C 
ATOM     29  N   UNL     1       5.071  -0.756  -0.947  0.00  0.00    -0.355 N 
ATOM     30  C   UNL     1       5.713  -0.096  -1.867  0.00  0.00    +0.061 A 
ATOM     31  C   UNL     1       5.920   1.339  -2.106  0.00  0.00    +0.027 A 
ATOM     32  H   UNL     1       6.315  -3.085  -2.912  0.00  0.00    +0.162 HD
ATOM     33  H   UNL     1       4.582  -0.373  -0.202  0.00  0.00    +0.162 HD
ENDBRANCH  22  28
ENDBRANCH   1  22
TORSDOF 7
