REMARK  Name = ZINC15946535
REMARK  11 active torsions:
REMARK  status: ('A' for Active; 'I' for Inactive)
REMARK    1  A    between atoms: C_1  and  C_2
REMARK    2  A    between atoms: C_2  and  C_3
REMARK    3  A    between atoms: C_2  and  C_4
REMARK    4  A    between atoms: C_2  and  C_5
REMARK    5  A    between atoms: C_12  and  N_25
REMARK    6  A    between atoms: C_13  and  C_14
REMARK    7  A    between atoms: N_16  and  C_17
REMARK    8  A    between atoms: C_20  and  O_23
REMARK    9  A    between atoms: O_23  and  C_24
REMARK   10  A    between atoms: C_26  and  C_28
REMARK   11  A    between atoms: C_28  and  N_71
REMARK                            x       y       z     vdW  Elec       q    Type
REMARK                         _______ _______ _______ _____ _____    ______ ____
ROOT
ATOM      1  C   UNL     1       2.223   1.340   1.146  0.00  0.00    -0.000 C 
ATOM      2  C   UNL     1       1.431   2.013   0.022  0.00  0.00    +0.009 C 
ATOM      3  C   UNL     1      -0.012   1.506   0.026  0.00  0.00    +0.037 C 
ATOM      4  C   UNL     1       0.002  -0.017   0.009  0.00  0.00    -0.023 A 
ATOM      5  C   UNL     1       1.110  -0.706   0.357  0.00  0.00    -0.004 A 
ATOM      6  S   UNL     1       0.657  -2.409   0.185  0.00  0.00    -0.077 S 
ATOM      7  C   UNL     1      -0.982  -2.210  -0.341  0.00  0.00    +0.084 A 
ATOM      8  C   UNL     1      -1.139  -0.832  -0.371  0.00  0.00    +0.069 A 
ATOM      9  C   UNL     1       2.427  -0.140   0.792  0.00  0.00    +0.046 C 
ENDROOT
BRANCH   1  11
ATOM     10  C   UNL     1       4.355   1.918  -0.022  0.00  0.00    +0.011 C 
ATOM     11  C   UNL     1       3.584   2.024   1.295  0.00  0.00    -0.035 C 
ATOM     12  C   UNL     1       3.378   3.498   1.648  0.00  0.00    +0.011 C 
ATOM     13  C   UNL     1       4.379   1.339   2.409  0.00  0.00    +0.011 C 
ENDBRANCH   1  11
BRANCH   8  14
ATOM     14  C   UNL     1      -2.410  -0.220  -0.773  0.00  0.00    +0.251 C 
ATOM     15  O   UNL     1      -2.613   0.048  -1.942  0.00  0.00    -0.270 OA
ATOM     16  N   UNL     1      -3.352   0.044   0.153  0.00  0.00    -0.281 N 
ATOM     17  H   UNL     1      -3.218  -0.230   1.074  0.00  0.00    +0.155 HD
BRANCH  16  18
ATOM     18  C   UNL     1      -4.526   0.716  -0.213  0.00  0.00    +0.034 A 
ATOM     19  C   UNL     1      -5.125   1.601   0.672  0.00  0.00    +0.027 A 
ATOM     20  C   UNL     1      -6.279   2.267   0.308  0.00  0.00    +0.047 A 
ATOM     21  C   UNL     1      -6.845   2.043  -0.939  0.00  0.00    +0.120 A 
ATOM     22  C   UNL     1      -6.249   1.155  -1.822  0.00  0.00    +0.047 A 
ATOM     23  C   UNL     1      -5.093   0.492  -1.461  0.00  0.00    +0.027 A 
BRANCH  21  24
ATOM     24  O   UNL     1      -7.984   2.694  -1.294  0.00  0.00    -0.495 OA
ATOM     25  C   UNL     1      -8.543   3.595  -0.336  0.00  0.00    +0.277 C 
ENDBRANCH  21  24
ENDBRANCH  16  18
ENDBRANCH   8  14
BRANCH   7  26
ATOM     26  N   UNL     1      -1.911  -3.191  -0.655  0.00  0.00    -0.281 N 
ATOM     27  C   UNL     1      -1.573  -4.492  -0.566  0.00  0.00    +0.201 C 
ATOM     28  O   UNL     1      -0.457  -4.806  -0.211  0.00  0.00    -0.278 OA
ATOM     29  H   UNL     1      -2.804  -2.940  -0.940  0.00  0.00    +0.155 HD
BRANCH  27  30
ATOM     30  C   UNL     1      -2.582  -5.558  -0.908  0.00  0.00    +0.019 C 
BRANCH  30  36
ATOM     31  C   UNL     1      -0.891  -7.098  -1.700  0.00  0.00    -0.078 C 
ATOM     32  C   UNL     1      -0.187  -8.422  -1.395  0.00  0.00    -0.019 C 
ATOM     33  C   UNL     1      -1.203  -9.565  -1.476  0.00  0.00    -0.004 C 
ATOM     34  C   UNL     1      -2.345  -9.293  -0.493  0.00  0.00    -0.019 C 
ATOM     35  C   UNL     1      -2.986  -7.943  -0.825  0.00  0.00    -0.078 C 
ATOM     36  N   UNL     1      -1.962  -6.883  -0.704  0.00  0.00    +0.385 N 
ATOM     37  H   UNL     1      -1.554  -6.920   0.237  0.00  0.00    -0.081 HD
ENDBRANCH  30  36
ENDBRANCH  27  30
ENDBRANCH   7  26
TORSDOF 7
