REMARK  Name = ZINC39678908
REMARK  9 active torsions:
REMARK  status: ('A' for Active; 'I' for Inactive)
REMARK    1  A    between atoms: C_1  and  N_2
REMARK    2  A    between atoms: N_2  and  C_3
REMARK    3  A    between atoms: N_2  and  C_4
REMARK    4  A    between atoms: C_4  and  C_5
REMARK    5  A    between atoms: C_5  and  C_6
REMARK    6  A    between atoms: C_6  and  C_7
REMARK    7  A    between atoms: C_7  and  N_8
REMARK    8  A    between atoms: C_9  and  C_11
REMARK    9  A    between atoms: C_22  and  C_24
REMARK                            x       y       z     vdW  Elec       q    Type
REMARK                         _______ _______ _______ _____ _____    ______ ____
ROOT
ATOM      1  C   UNL     1       0.278  -1.299   8.361  0.00  0.00    +0.100 C 
ATOM      2  C   UNL     1       0.567  -2.807   8.531  0.00  0.00    +0.121 C 
ATOM      3  N   UNL     1       0.453  -3.048   9.989  0.00  0.00    -0.296 N 
ATOM      4  C   UNL     1      -0.699  -2.215  10.411  0.00  0.00    +0.115 C 
ATOM      5  C   UNL     1      -0.553  -0.914   9.596  0.00  0.00    -0.004 C 
ATOM      6  C   UNL     1       0.179   0.144  10.416  0.00  0.00    -0.010 C 
ATOM      7  C   UNL     1      -0.693   0.551  11.608  0.00  0.00    -0.082 C 
ATOM      8  N   UNL     1      -1.973   1.079  11.122  0.00  0.00    +0.379 N 
ATOM      9  C   UNL     1      -2.712   0.028  10.412  0.00  0.00    -0.082 C 
ATOM     10  C   UNL     1      -1.926  -0.402   9.171  0.00  0.00    -0.010 C 
ATOM     11  C   UNL     1       1.221  -3.845  10.757  0.00  0.00    +0.247 C 
ATOM     12  O   UNL     1       2.212  -4.370  10.288  0.00  0.00    -0.270 OA
ATOM     13  H   UNL     1      -2.521   1.403  11.905  0.00  0.00    -0.086 HD
ATOM     14  H   UNL     1      -1.801   1.850  10.493  0.00  0.00    -0.086 HD
ENDROOT
BRANCH  11  15
ATOM     15  C   UNL     1       0.860  -4.080  12.171  0.00  0.00    +0.037 A 
ATOM     16  C   UNL     1      -0.466  -3.876  12.595  0.00  0.00    +0.013 A 
ATOM     17  C   UNL     1      -0.823  -4.085  13.888  0.00  0.00    +0.009 A 
ATOM     18  C   UNL     1       0.138  -4.512  14.823  0.00  0.00    -0.018 A 
ATOM     19  C   UNL     1      -0.208  -4.736  16.166  0.00  0.00    +0.008 A 
ATOM     20  C   UNL     1       0.744  -5.149  17.048  0.00  0.00    +0.001 A 
ATOM     21  C   UNL     1       2.060  -5.355  16.640  0.00  0.00    +0.001 A 
ATOM     22  C   UNL     1       2.433  -5.149  15.347  0.00  0.00    +0.008 A 
ATOM     23  C   UNL     1       1.478  -4.722  14.407  0.00  0.00    -0.017 A 
ATOM     24  C   UNL     1       1.827  -4.506  13.066  0.00  0.00    +0.021 A 
ENDBRANCH  11  15
BRANCH   1  26
ATOM     25  N   UNL     1      -0.373   0.108   6.433  0.00  0.00    -0.315 N 
ATOM     26  C   UNL     1      -0.511  -1.055   7.100  0.00  0.00    +0.218 C 
ATOM     27  O   UNL     1      -1.270  -1.905   6.686  0.00  0.00    -0.275 OA
ATOM     28  H   UNL     1       0.234   0.788   6.765  0.00  0.00    +0.149 HD
BRANCH  25  29
ATOM     29  C   UNL     1      -1.140   0.345   5.208  0.00  0.00    +0.104 C 
BRANCH  29  30
ATOM     30  C   UNL     1      -0.801   1.730   4.654  0.00  0.00    +0.017 C 
BRANCH  30  31
ATOM     31  C   UNL     1      -1.602   1.978   3.374  0.00  0.00    -0.017 C 
BRANCH  31  32
ATOM     32  C   UNL     1      -1.263   3.363   2.820  0.00  0.00    -0.080 C 
BRANCH  32  34
ATOM     33  C   UNL     1      -3.465   3.651   1.913  0.00  0.00    -0.097 C 
ATOM     34  N   UNL     1      -2.032   3.601   1.591  0.00  0.00    +0.376 N 
ATOM     35  C   UNL     1      -1.620   4.878   0.995  0.00  0.00    -0.097 C 
ATOM     36  H   UNL     1      -1.860   2.853   0.937  0.00  0.00    -0.083 HD
ENDBRANCH  32  34
ENDBRANCH  31  32
ENDBRANCH  30  31
ENDBRANCH  29  30
ENDBRANCH  25  29
ENDBRANCH   1  26
TORSDOF 7
