REMARK  Name = ZINC40760957
REMARK  8 active torsions:
REMARK  status: ('A' for Active; 'I' for Inactive)
REMARK    1  A    between atoms: C_1  and  C_2
REMARK    2  A    between atoms: C_2  and  C_26
REMARK    3  A    between atoms: C_4  and  N_10
REMARK    4  A    between atoms: C_6  and  C_8
REMARK    5  A    between atoms: C_6  and  C_9
REMARK    6  A    between atoms: C_12  and  N_25
REMARK    7  A    between atoms: C_13  and  O_17
REMARK    8  A    between atoms: O_17  and  C_18
REMARK                            x       y       z     vdW  Elec       q    Type
REMARK                         _______ _______ _______ _____ _____    ______ ____
ROOT
ATOM      1  N   UNL     1       1.704  -2.343  -2.478  0.00  0.00    -0.325 N 
ATOM      2  C   UNL     1       1.613  -3.653  -2.933  0.00  0.00    +0.147 A 
ATOM      3  C   UNL     1       2.218  -4.031  -4.135  0.00  0.00    +0.128 A 
ATOM      4  C   UNL     1       2.097  -5.358  -4.544  0.00  0.00    +0.246 A 
ATOM      5  N   UNL     1       1.416  -6.208  -3.781  0.00  0.00    -0.199 NA
ATOM      6  C   UNL     1       0.861  -5.812  -2.654  0.00  0.00    +0.227 A 
ATOM      7  N   UNL     1       0.955  -4.569  -2.227  0.00  0.00    -0.219 NA
ATOM      8  H   UNL     1       2.186  -1.682  -2.999  0.00  0.00    +0.148 HD
ENDROOT
BRANCH   1  12
ATOM      9  C   UNL     1       0.097   1.516   0.097  0.00  0.00    -0.010 C 
ATOM     10  C   UNL     1       0.132  -0.030   0.087  0.00  0.00    -0.072 C 
ATOM     11  C   UNL     1       0.763  -0.463  -1.233  0.00  0.00    +0.009 C 
ATOM     12  C   UNL     1       1.069  -1.960  -1.211  0.00  0.00    +0.069 C 
ATOM     13  C   UNL     1       2.039  -2.232  -0.060  0.00  0.00    +0.009 C 
ATOM     14  C   UNL     1       1.417  -1.813   1.268  0.00  0.00    -0.072 C 
ATOM     15  N   UNL     1       0.882  -0.463   1.252  0.00  0.00    +0.386 N 
ATOM     16  C   UNL     1       2.533  -1.865   2.337  0.00  0.00    -0.010 C 
ATOM     17  C   UNL     1       0.349  -2.830   1.684  0.00  0.00    -0.010 C 
ATOM     18  C   UNL     1      -1.321  -0.512   0.149  0.00  0.00    -0.010 C 
ATOM     19  H   UNL     1       1.660   0.191   1.393  0.00  0.00    -0.084 HD
ATOM     20  H   UNL     1       0.289  -0.343   2.079  0.00  0.00    -0.084 HD
ENDBRANCH   1  12
BRANCH   3  21
ATOM     21  N   UNL     1       2.927  -3.099  -4.909  0.00  0.00    -0.351 N 
ATOM     22  H   UNL     1       3.002  -2.179  -4.612  0.00  0.00    +0.143 HD
ATOM     23  H   UNL     1       3.341  -3.376  -5.742  0.00  0.00    +0.143 HD
ENDBRANCH   3  21
BRANCH   4  24
ATOM     24  O   UNL     1       2.665  -5.775  -5.703  0.00  0.00    -0.436 OA
BRANCH  24  25
ATOM     25  C   UNL     1       2.602  -7.099  -6.004  0.00  0.00    +0.130 A 
ATOM     26  C   UNL     1       1.423  -7.646  -6.489  0.00  0.00    +0.047 A 
ATOM     27  C   UNL     1       1.361  -8.992  -6.794  0.00  0.00    +0.019 A 
ATOM     28  C   UNL     1       2.474  -9.794  -6.617  0.00  0.00    +0.018 A 
ATOM     29  C   UNL     1       3.651  -9.251  -6.133  0.00  0.00    +0.019 A 
ATOM     30  C   UNL     1       3.719  -7.904  -5.831  0.00  0.00    +0.047 A 
ATOM     31 BR   UNL     1       2.387 -11.636  -7.035  0.00  0.00    -0.050 Br
ENDBRANCH  24  25
ENDBRANCH   4  24
TORSDOF 4
