REMARK  Name = ZINC01679797
REMARK  8 active torsions:
REMARK  status: ('A' for Active; 'I' for Inactive)
REMARK    1  A    between atoms: C_2  and  C_16
REMARK    2  A    between atoms: C_3  and  O_15
REMARK    3  A    between atoms: C_5  and  C_8
REMARK    4  A    between atoms: C_6  and  O_7
REMARK    5  A    between atoms: C_8  and  N_53
REMARK    6  A    between atoms: C_9  and  N_53
REMARK    7  A    between atoms: C_16  and  N_56
REMARK    8  A    between atoms: C_17  and  N_56
REMARK                            x       y       z     vdW  Elec       q    Type
REMARK                         _______ _______ _______ _____ _____    ______ ____
ROOT
ATOM      1  C   UNL     1       0.297   5.585  -1.516  0.00  0.00    +0.051 A 
ATOM      2  C   UNL     1      -0.790   6.263  -1.001  0.00  0.00    -0.019 A 
ATOM      3  C   UNL     1      -1.885   5.558  -0.523  0.00  0.00    +0.119 A 
ATOM      4  C   UNL     1      -1.887   4.172  -0.561  0.00  0.00    +0.051 A 
ATOM      5  C   UNL     1      -0.799   3.493  -1.076  0.00  0.00    -0.019 A 
ATOM      6  C   UNL     1       0.297   4.198  -1.550  0.00  0.00    +0.119 A 
ENDROOT
BRANCH   6   7
ATOM      7  O   UNL     1       1.370   3.530  -2.052  0.00  0.00    -0.507 OA
ATOM      8  H   UNL     1       1.317   3.360  -3.002  0.00  0.00    +0.292 HD
ENDBRANCH   6   7
BRANCH   3   9
ATOM      9  O   UNL     1      -2.955   6.226  -0.016  0.00  0.00    -0.507 OA
ATOM     10  H   UNL     1      -2.899   6.397   0.934  0.00  0.00    +0.292 HD
ENDBRANCH   3   9
BRANCH   5  11
ATOM     11  C   UNL     1      -0.802   1.987  -1.117  0.00  0.00    -0.043 C 
BRANCH  11  12
ATOM     12  N   UNL     1      -0.013   1.471   0.017  0.00  0.00    +0.384 N 
ATOM     13  H   UNL     1      -0.432   1.796   0.897  0.00  0.00    -0.085 HD
ATOM     14  H   UNL     1       0.950   1.820  -0.053  0.00  0.00    -0.085 HD
BRANCH  12  15
ATOM     15  C   UNL     1       0.002  -0.004   0.002  0.00  0.00    -0.071 C 
ATOM     16  C   UNL     1      -1.246  -0.535   0.709  0.00  0.00    -0.016 C 
ATOM     17  C   UNL     1      -1.226  -2.065   0.701  0.00  0.00    -0.002 C 
ATOM     18  C   UNL     1       0.024  -2.562   1.430  0.00  0.00    -0.000 C 
ATOM     19  C   UNL     1       1.272  -2.031   0.723  0.00  0.00    -0.002 C 
ATOM     20  C   UNL     1       1.252  -0.501   0.731  0.00  0.00    -0.016 C 
ENDBRANCH  12  15
ENDBRANCH  11  12
ENDBRANCH   5  11
BRANCH   2  21
ATOM     21  C   UNL     1      -0.788   7.770  -0.961  0.00  0.00    -0.043 C 
BRANCH  21  22
ATOM     22  N   UNL     1      -0.440   8.216   0.401  0.00  0.00    +0.384 N 
ATOM     23  H   UNL     1       0.491   7.860   0.646  0.00  0.00    -0.085 HD
ATOM     24  H   UNL     1      -1.132   7.851   1.065  0.00  0.00    -0.085 HD
BRANCH  22  25
ATOM     25  C   UNL     1      -0.430   9.690   0.470  0.00  0.00    -0.071 C 
ATOM     26  C   UNL     1       0.934  10.214   0.017  0.00  0.00    -0.016 C 
ATOM     27  C   UNL     1       0.946  11.741   0.097  0.00  0.00    -0.002 C 
ATOM     28  C   UNL     1       0.686  12.178   1.540  0.00  0.00    -0.000 C 
ATOM     29  C   UNL     1      -0.678  11.654   1.994  0.00  0.00    -0.002 C 
ATOM     30  C   UNL     1      -0.690  10.127   1.913  0.00  0.00    -0.016 C 
ENDBRANCH  22  25
ENDBRANCH  21  22
ENDBRANCH   2  21
TORSDOF 8
