REMARK  Name = ZINC59107668
REMARK  12 active torsions:
REMARK  status: ('A' for Active; 'I' for Inactive)
REMARK    1  A    between atoms: C_1  and  C_2
REMARK    2  A    between atoms: C_2  and  C_30
REMARK    3  A    between atoms: C_4  and  N_10
REMARK    4  A    between atoms: C_6  and  C_8
REMARK    5  A    between atoms: C_6  and  C_9
REMARK    6  A    between atoms: N_10  and  C_11
REMARK    7  A    between atoms: N_10  and  C_18
REMARK    8  A    between atoms: C_11  and  C_12
REMARK    9  A    between atoms: C_18  and  N_20
REMARK   10  A    between atoms: N_20  and  C_21
REMARK   11  A    between atoms: C_23  and  O_28
REMARK   12  A    between atoms: O_28  and  C_29
REMARK                            x       y       z     vdW  Elec       q    Type
REMARK                         _______ _______ _______ _____ _____    ______ ____
ROOT
ATOM      1  N   UNL     1      -2.861  -2.430   0.178  0.00  0.00    -0.305 N 
ENDROOT
BRANCH   1   5
ATOM      2  C   UNL     1       1.819  -3.914   0.228  0.00  0.00    -0.010 C 
ATOM      3  C   UNL     1       0.927  -2.651   0.218  0.00  0.00    -0.072 C 
ATOM      4  C   UNL     1      -0.521  -3.114   0.343  0.00  0.00    +0.009 C 
ATOM      5  C   UNL     1      -1.477  -1.950   0.082  0.00  0.00    +0.073 C 
ATOM      6  C   UNL     1      -1.220  -1.431  -1.332  0.00  0.00    +0.009 C 
ATOM      7  C   UNL     1       0.222  -0.954  -1.470  0.00  0.00    -0.072 C 
ATOM      8  N   UNL     1       1.196  -1.930  -1.013  0.00  0.00    +0.386 N 
ATOM      9  C   UNL     1       0.396   0.386  -0.747  0.00  0.00    -0.010 C 
ATOM     10  C   UNL     1       0.482  -0.696  -2.972  0.00  0.00    -0.010 C 
ATOM     11  C   UNL     1       1.313  -1.819   1.446  0.00  0.00    -0.010 C 
ATOM     12  H   UNL     1       2.102  -1.460  -0.919  0.00  0.00    -0.084 HD
ATOM     13  H   UNL     1       1.336  -2.616  -1.762  0.00  0.00    -0.084 HD
ENDBRANCH   1   5
BRANCH   1  14
ATOM     14  C   UNL     1      -3.659  -1.993   1.173  0.00  0.00    +0.138 C 
ATOM     15  S   UNL     1      -5.241  -2.625   1.341  0.00  0.00    -0.018 S 
BRANCH  14  16
ATOM     16  N   UNL     1      -3.211  -1.060   2.035  0.00  0.00    -0.295 N 
ATOM     17  H   UNL     1      -2.897  -1.322   2.915  0.00  0.00    +0.154 HD
BRANCH  16  18
ATOM     18  C   UNL     1      -3.197   0.289   1.661  0.00  0.00    +0.055 A 
ATOM     19  C   UNL     1      -3.750   0.680   0.450  0.00  0.00    +0.070 A 
ATOM     20  C   UNL     1      -3.735   2.016   0.083  0.00  0.00    +0.122 A 
ATOM     21  C   UNL     1      -3.167   2.961   0.927  0.00  0.00    +0.047 A 
ATOM     22  C   UNL     1      -2.617   2.571   2.133  0.00  0.00    +0.025 A 
ATOM     23  C   UNL     1      -2.635   1.240   2.505  0.00  0.00    +0.062 A 
ATOM     24 CL   UNL     1      -1.951   0.754   4.025  0.00  0.00    -0.082 Cl
BRANCH  20  25
ATOM     25  O   UNL     1      -4.275   2.402  -1.103  0.00  0.00    -0.495 OA
ATOM     26  C   UNL     1      -4.224   3.795  -1.417  0.00  0.00    +0.277 C 
ENDBRANCH  20  25
ENDBRANCH  16  18
ENDBRANCH  14  16
ENDBRANCH   1  14
BRANCH   1  27
ATOM     27  C   UNL     1      -3.375  -3.384  -0.808  0.00  0.00    +0.142 C 
BRANCH  27  28
ATOM     28  C   UNL     1      -3.179  -4.788  -0.299  0.00  0.00    -0.030 A 
ATOM     29  C   UNL     1      -2.080  -5.523  -0.704  0.00  0.00    +0.005 A 
ATOM     30  C   UNL     1      -1.899  -6.811  -0.237  0.00  0.00    +0.000 A 
ATOM     31  C   UNL     1      -2.817  -7.365   0.636  0.00  0.00    +0.000 A 
ATOM     32  C   UNL     1      -3.916  -6.630   1.041  0.00  0.00    +0.000 A 
ATOM     33  C   UNL     1      -4.094  -5.340   0.578  0.00  0.00    +0.005 A 
ENDBRANCH  27  28
ENDBRANCH   1  27
TORSDOF 7
