REMARK  Name = ZINC50815701
REMARK  6 active torsions:
REMARK  status: ('A' for Active; 'I' for Inactive)
REMARK    1  A    between atoms: C_1  and  N_2
REMARK    2  A    between atoms: N_2  and  C_3
REMARK    3  A    between atoms: N_2  and  C_15
REMARK    4  A    between atoms: C_3  and  C_4
REMARK    5  A    between atoms: C_13  and  N_14
REMARK    6  A    between atoms: C_15  and  C_16
REMARK                            x       y       z     vdW  Elec       q    Type
REMARK                         _______ _______ _______ _____ _____    ______ ____
ROOT
ATOM      1  C   UNL     1       0.082  -0.207   2.413  0.00  0.00    -0.024 A 
ATOM      2  C   UNL     1       0.360   0.922   3.124  0.00  0.00    +0.015 A 
ATOM      3  C   UNL     1      -0.326   1.133   4.337  0.00  0.00    +0.001 A 
ATOM      4  C   UNL     1      -0.088   2.275   5.118  0.00  0.00    +0.010 A 
ATOM      5  C   UNL     1      -0.770   2.446   6.285  0.00  0.00    +0.001 A 
ATOM      6  C   UNL     1      -1.699   1.502   6.715  0.00  0.00    +0.002 A 
ATOM      7  C   UNL     1      -1.953   0.383   5.982  0.00  0.00    +0.028 A 
ATOM      8  C   UNL     1      -1.271   0.172   4.772  0.00  0.00    +0.073 A 
ATOM      9  N   UNL     1      -1.502  -0.918   4.032  0.00  0.00    -0.232 NA
ATOM     10  C   UNL     1      -0.869  -1.119   2.894  0.00  0.00    +0.118 A 
ENDROOT
BRANCH  10  11
ATOM     11  N   UNL     1      -1.145  -2.261   2.158  0.00  0.00    -0.343 N 
ATOM     12  H   UNL     1      -0.729  -2.392   1.291  0.00  0.00    +0.144 HD
ATOM     13  H   UNL     1      -1.754  -2.929   2.509  0.00  0.00    +0.144 HD
ENDBRANCH  10  11
BRANCH   1  14
ATOM     14  C   UNL     1       0.791  -0.473   1.111  0.00  0.00    -0.039 C 
BRANCH  14  16
ATOM     15  C   UNL     1      -0.417   1.252  -0.038  0.00  0.00    -0.095 C 
ATOM     16  N   UNL     1      -0.116  -0.185  -0.008  0.00  0.00    +0.384 N 
ATOM     17  H   UNL     1      -0.973  -0.706   0.111  0.00  0.00    -0.081 HD
BRANCH  16  18
ATOM     18  C   UNL     1       0.524  -0.578  -1.271  0.00  0.00    -0.036 C 
BRANCH  18  19
ATOM     19  C   UNL     1      -0.452  -0.397  -2.406  0.00  0.00    -0.026 A 
ATOM     20  C   UNL     1      -0.661   0.691  -3.187  0.00  0.00    +0.024 A 
ATOM     21  C   UNL     1      -1.620   0.629  -4.180  0.00  0.00    +0.025 A 
ATOM     22  C   UNL     1      -2.324  -0.519  -4.343  0.00  0.00    +0.060 A 
ATOM     23  S   UNL     1      -1.626  -1.563  -3.075  0.00  0.00    -0.102 S 
ATOM     24 BR   UNL     1      -1.947   2.122  -5.294  0.00  0.00    -0.050 Br
ENDBRANCH  18  19
ENDBRANCH  16  18
ENDBRANCH  14  16
ENDBRANCH   1  14
TORSDOF 5
