REMARK  Name = ZINC02294950
REMARK  10 active torsions:
REMARK  status: ('A' for Active; 'I' for Inactive)
REMARK    1  A    between atoms: C_1  and  C_2
REMARK    2  A    between atoms: C_2  and  O_3
REMARK    3  A    between atoms: O_3  and  C_4
REMARK    4  A    between atoms: C_7  and  O_25
REMARK    5  A    between atoms: C_8  and  C_10
REMARK    6  A    between atoms: C_15  and  O_24
REMARK    7  A    between atoms: C_19  and  N_23
REMARK    8  A    between atoms: C_20  and  C_21
REMARK    9  A    between atoms: O_25  and  C_26
REMARK   10  A    between atoms: C_26  and  C_27
REMARK                            x       y       z     vdW  Elec       q    Type
REMARK                         _______ _______ _______ _____ _____    ______ ____
ROOT
ATOM      1  C   UNL     1      -1.293  -0.775   0.010  0.00  0.00    +0.098 C 
ATOM      2  C   UNL     1      -1.373  -1.615  -1.235  0.00  0.00    -0.013 A 
ATOM      3  C   UNL     1      -1.675  -1.012  -2.444  0.00  0.00    +0.010 A 
ATOM      4  C   UNL     1      -1.750  -1.765  -3.599  0.00  0.00    +0.046 A 
ATOM      5  C   UNL     1      -1.522  -3.134  -3.554  0.00  0.00    +0.119 A 
ATOM      6  C   UNL     1      -1.223  -3.741  -2.349  0.00  0.00    +0.069 A 
ATOM      7  C   UNL     1      -1.149  -2.982  -1.188  0.00  0.00    +0.040 A 
ATOM      8  N   UNL     1      -0.848  -3.603   0.027  0.00  0.00    -0.302 N 
ATOM      9  C   UNL     1      -1.127  -2.965   1.209  0.00  0.00    +0.100 C 
ATOM     10  C   UNL     1      -1.350  -1.626   1.244  0.00  0.00    +0.076 C 
ATOM     11  H   UNL     1      -0.441  -4.484   0.035  0.00  0.00    +0.153 HD
ENDROOT
BRANCH   1  16
ATOM     12  C   UNL     1       2.399   0.031  -0.021  0.00  0.00    +0.121 A 
ATOM     13  C   UNL     1       2.380   1.418  -0.013  0.00  0.00    +0.049 A 
ATOM     14  C   UNL     1       1.175   2.092   0.002  0.00  0.00    +0.049 A 
ATOM     15  C   UNL     1      -0.017   1.383   0.010  0.00  0.00    +0.125 A 
ATOM     16  C   UNL     1       0.002  -0.004   0.002  0.00  0.00    +0.010 A 
ATOM     17  C   UNL     1       1.208  -0.678  -0.013  0.00  0.00    +0.053 A 
BRANCH  12  18
ATOM     18  O   UNL     1       3.586  -0.633  -0.035  0.00  0.00    -0.492 OA
BRANCH  18  20
ATOM     19  C   UNL     1       5.999  -0.753  -0.059  0.00  0.00    +0.048 C 
ATOM     20  C   UNL     1       4.774   0.162  -0.042  0.00  0.00    +0.225 C 
ENDBRANCH  18  20
ENDBRANCH  12  18
BRANCH  15  21
ATOM     21  O   UNL     1      -1.204   2.046   0.019  0.00  0.00    -0.492 OA
BRANCH  21  22
ATOM     22  C   UNL     1      -1.148   3.474   0.026  0.00  0.00    +0.225 C 
ATOM     23  C   UNL     1      -2.570   4.040   0.036  0.00  0.00    +0.048 C 
ENDBRANCH  21  22
ENDBRANCH  15  21
ENDBRANCH   1  16
BRANCH   9  24
ATOM     24  N   UNL     1      -1.183  -3.691   2.375  0.00  0.00    -0.346 N 
ATOM     25  H   UNL     1      -1.381  -3.246   3.214  0.00  0.00    +0.143 HD
ATOM     26  H   UNL     1      -1.025  -4.647   2.358  0.00  0.00    +0.143 HD
ENDBRANCH   9  24
BRANCH  10  27
ATOM     27  C   UNL     1      -1.649  -1.006   2.499  0.00  0.00    +0.099 C 
ATOM     28  N   UNL     1      -1.887  -0.513   3.495  0.00  0.00    -0.191 NA
ENDBRANCH  10  27
BRANCH   5  29
ATOM     29  O   UNL     1      -1.595  -3.874  -4.691  0.00  0.00    -0.507 OA
ATOM     30  H   UNL     1      -0.755  -3.950  -5.165  0.00  0.00    +0.292 HD
ENDBRANCH   5  29
TORSDOF 8
