REMARK  Name = ZINC15040129
REMARK  9 active torsions:
REMARK  status: ('A' for Active; 'I' for Inactive)
REMARK    1  A    between atoms: C_4  and  O_31
REMARK    2  A    between atoms: C_5  and  C_7
REMARK    3  A    between atoms: N_11  and  C_15
REMARK    4  A    between atoms: C_15  and  C_16
REMARK    5  A    between atoms: C_16  and  C_17
REMARK    6  A    between atoms: C_17  and  C_18
REMARK    7  A    between atoms: N_20  and  C_21
REMARK    8  A    between atoms: C_24  and  S_27
REMARK    9  A    between atoms: S_27  and  N_30
REMARK                            x       y       z     vdW  Elec       q    Type
REMARK                         _______ _______ _______ _____ _____    ______ ____
ROOT
ATOM      1  C   UNL     1      -3.728   5.710   7.993  0.00  0.00    +0.029 C 
ENDROOT
BRANCH   1   2
ATOM      2  C   UNL     1      -4.292   6.349   9.264  0.00  0.00    +0.115 C 
BRANCH   2   7
ATOM      3  C   UNL     1      -3.831  11.267   8.799  0.00  0.00    +0.031 C 
ATOM      4  C   UNL     1      -3.508  10.013   9.208  0.00  0.00    +0.077 C 
ATOM      5  C   UNL     1      -4.199   8.733   8.953  0.00  0.00    +0.258 C 
ATOM      6  O   UNL     1      -5.218   8.678   8.290  0.00  0.00    -0.269 OA
ATOM      7  N   UNL     1      -3.654   7.650   9.480  0.00  0.00    -0.255 N 
ATOM      8  C   UNL     1      -2.527   7.716  10.218  0.00  0.00    +0.121 C 
ATOM      9  S   UNL     1      -1.681   6.440  10.984  0.00  0.00    -0.027 S 
ATOM     10  S   UNL     1      -2.130   9.457  10.202  0.00  0.00    -0.061 S 
BRANCH   3  15
ATOM     11  C   UNL     1      -1.736  13.431  11.030  0.00  0.00    +0.001 A 
ATOM     12  C   UNL     1      -1.676  14.602  10.291  0.00  0.00    +0.004 A 
ATOM     13  C   UNL     1      -2.314  14.693   9.069  0.00  0.00    +0.046 A 
ATOM     14  C   UNL     1      -3.017  13.609   8.569  0.00  0.00    +0.124 A 
ATOM     15  C   UNL     1      -3.086  12.421   9.316  0.00  0.00    +0.018 A 
ATOM     16  C   UNL     1      -2.434  12.343  10.552  0.00  0.00    +0.011 A 
BRANCH  14  17
ATOM     17  O   UNL     1      -3.639  13.696   7.367  0.00  0.00    -0.506 OA
ATOM     18  H   UNL     1      -4.551  14.014   7.418  0.00  0.00    +0.292 HD
ENDBRANCH  14  17
ENDBRANCH   3  15
ENDBRANCH   2   7
ENDBRANCH   1   2
BRANCH   1  19
ATOM     19  C   UNL     1      -4.394   4.351   7.767  0.00  0.00    +0.097 C 
BRANCH  19  20
ATOM     20  C   UNL     1      -3.839   3.721   6.516  0.00  0.00    +0.217 C 
ATOM     21  O   UNL     1      -2.993   4.302   5.869  0.00  0.00    -0.275 OA
ATOM     22  N   UNL     1      -4.282   2.513   6.116  0.00  0.00    -0.285 N 
ATOM     23  H   UNL     1      -5.009   2.081   6.591  0.00  0.00    +0.155 HD
BRANCH  22  24
ATOM     24  C   UNL     1      -3.693   1.881   5.015  0.00  0.00    +0.033 A 
ATOM     25  C   UNL     1      -2.333   2.026   4.775  0.00  0.00    +0.025 A 
ATOM     26  C   UNL     1      -1.754   1.401   3.687  0.00  0.00    +0.030 A 
ATOM     27  C   UNL     1      -2.529   0.633   2.837  0.00  0.00    +0.105 A 
ATOM     28  C   UNL     1      -3.884   0.491   3.070  0.00  0.00    +0.030 A 
ATOM     29  C   UNL     1      -4.467   1.109   4.159  0.00  0.00    +0.025 A 
BRANCH  27  30
ATOM     30  S   UNL     1      -1.787  -0.162   1.450  0.00  0.00    +0.056 S 
ATOM     31  O   UNL     1      -0.612   0.575   1.140  0.00  0.00    -0.153 OA
ATOM     32  O   UNL     1      -2.824  -0.376   0.503  0.00  0.00    -0.153 OA
BRANCH  30  33
ATOM     33  N   UNL     1      -1.288  -1.659   1.952  0.00  0.00    -0.204 NA
ATOM     34  H   UNL     1      -0.350  -1.900   1.900  0.00  0.00    +0.144 HD
ATOM     35  H   UNL     1      -1.934  -2.294   2.299  0.00  0.00    +0.144 HD
ENDBRANCH  30  33
ENDBRANCH  27  30
ENDBRANCH  22  24
ENDBRANCH  19  20
ENDBRANCH   1  19
TORSDOF 9
