REMARK  Name = ZINC38511499
REMARK  5 active torsions:
REMARK  status: ('A' for Active; 'I' for Inactive)
REMARK    1  A    between atoms: C_1  and  N_2
REMARK    2  A    between atoms: C_13  and  N_17
REMARK    3  A    between atoms: C_18  and  C_20
REMARK    4  A    between atoms: N_25  and  S_26
REMARK    5  A    between atoms: S_26  and  C_29
REMARK                            x       y       z     vdW  Elec       q    Type
REMARK                         _______ _______ _______ _____ _____    ______ ____
ROOT
ATOM      1  N   UNL     1       7.102  -7.679  -0.421  0.00  0.00    -0.284 N 
ATOM      2  C   UNL     1       7.393  -7.945   0.868  0.00  0.00    +0.236 C 
ATOM      3  O   UNL     1       6.798  -7.371   1.755  0.00  0.00    -0.274 OA
ATOM      4  H   UNL     1       7.531  -8.184  -1.129  0.00  0.00    +0.155 HD
ENDROOT
BRANCH   1  17
ATOM      5  C   UNL     1      -0.424   1.038   0.036  0.00  0.00    -0.096 C 
ATOM      6  N   UNL     1      -0.153  -0.323  -0.448  0.00  0.00    +0.380 N 
ATOM      7  C   UNL     1       1.014  -0.300  -1.339  0.00  0.00    -0.060 C 
ATOM      8  C   UNL     1       1.228  -1.696  -1.934  0.00  0.00    +0.088 C 
ATOM      9  N   UNL     1       1.325  -2.663  -0.830  0.00  0.00    -0.313 N 
ATOM     10  C   UNL     1       0.278  -2.645   0.202  0.00  0.00    +0.088 C 
ATOM     11  C   UNL     1       0.109  -1.204   0.697  0.00  0.00    -0.060 C 
ATOM     12  C   UNL     1       2.370  -3.563  -0.765  0.00  0.00    +0.162 A 
ATOM     13  N   UNL     1       3.382  -3.712  -1.589  0.00  0.00    -0.225 NA
ATOM     14  C   UNL     1       4.343  -4.644  -1.399  0.00  0.00    +0.080 A 
ATOM     15  C   UNL     1       5.475  -4.906  -2.205  0.00  0.00    +0.031 A 
ATOM     16  C   UNL     1       6.355  -5.888  -1.875  0.00  0.00    +0.025 A 
ATOM     17  C   UNL     1       6.180  -6.673  -0.737  0.00  0.00    +0.035 A 
ATOM     18  C   UNL     1       5.080  -6.445   0.079  0.00  0.00    +0.040 A 
ATOM     19  C   UNL     1       4.190  -5.455  -0.252  0.00  0.00    +0.043 A 
ATOM     20  S   UNL     1       2.694  -4.818   0.466  0.00  0.00    -0.052 S 
ATOM     21  H   UNL     1      -0.955  -0.663  -0.957  0.00  0.00    -0.082 HD
ENDBRANCH   1  17
BRANCH   2  22
ATOM     22  C   UNL     1       8.458  -8.957   1.207  0.00  0.00    +0.166 C 
ATOM     23  C   UNL     1       7.834 -10.365   1.296  0.00  0.00    +0.031 C 
ATOM     24  C   UNL     1       8.591 -11.006   2.490  0.00  0.00    +0.019 C 
ATOM     25  C   UNL     1       8.780  -9.787   3.428  0.00  0.00    +0.110 C 
ATOM     26  N   UNL     1       9.039  -8.649   2.522  0.00  0.00    -0.165 NA
BRANCH  26  27
ATOM     27  S   UNL     1       9.848  -7.260   2.918  0.00  0.00    +0.062 S 
ATOM     28  O   UNL     1       9.416  -6.263   2.002  0.00  0.00    -0.153 OA
ATOM     29  O   UNL     1       9.725  -7.106   4.326  0.00  0.00    -0.153 OA
BRANCH  27  30
ATOM     30  C   UNL     1      11.556  -7.539   2.590  0.00  0.00    +0.106 A 
ATOM     31  C   UNL     1      12.351  -8.150   3.542  0.00  0.00    +0.031 A 
ATOM     32  C   UNL     1      13.691  -8.371   3.285  0.00  0.00    +0.040 A 
ATOM     33  C   UNL     1      14.237  -7.979   2.074  0.00  0.00    +0.124 A 
ATOM     34  C   UNL     1      13.440  -7.367   1.122  0.00  0.00    +0.040 A 
ATOM     35  C   UNL     1      12.099  -7.152   1.379  0.00  0.00    +0.031 A 
ATOM     36  F   UNL     1      15.547  -8.194   1.823  0.00  0.00    -0.205 F 
ENDBRANCH  27  30
ENDBRANCH  26  27
ENDBRANCH   2  22
TORSDOF 4
