REMARK  Name = ZINC36145247
REMARK  9 active torsions:
REMARK  status: ('A' for Active; 'I' for Inactive)
REMARK    1  A    between atoms: C_1  and  C_2
REMARK    2  A    between atoms: C_7  and  N_8
REMARK    3  A    between atoms: C_9  and  O_34
REMARK    4  A    between atoms: C_10  and  C_20
REMARK    5  A    between atoms: C_11  and  C_13
REMARK    6  A    between atoms: C_23  and  N_26
REMARK    7  A    between atoms: C_27  and  C_29
REMARK    8  A    between atoms: O_34  and  C_35
REMARK    9  A    between atoms: C_35  and  C_37
REMARK                            x       y       z     vdW  Elec       q    Type
REMARK                         _______ _______ _______ _____ _____    ______ ____
ROOT
ATOM      1  N   UNL     1       0.472   0.582   2.154  0.00  0.00    -0.199 N 
ATOM      2  C   UNL     1       0.555  -0.366   3.126  0.00  0.00    +0.235 A 
ATOM      3  C   UNL     1       0.661   0.291   4.334  0.00  0.00    +0.072 A 
ATOM      4  C   UNL     1       0.639   1.682   4.061  0.00  0.00    +0.105 A 
ATOM      5  N   UNL     1       0.531   1.842   2.760  0.00  0.00    -0.163 NA
ENDROOT
BRANCH   1  12
ATOM      6  C   UNL     1      -1.494   2.034   0.695  0.00  0.00    +0.046 C 
ATOM      7  C   UNL     1      -0.593   1.025   0.030  0.00  0.00    -0.025 A 
ATOM      8  C   UNL     1      -0.704   0.787  -1.326  0.00  0.00    +0.005 A 
ATOM      9  C   UNL     1       0.122  -0.139  -1.936  0.00  0.00    +0.000 A 
ATOM     10  C   UNL     1       1.062  -0.828  -1.192  0.00  0.00    +0.002 A 
ATOM     11  C   UNL     1       1.178  -0.594   0.164  0.00  0.00    +0.028 A 
ATOM     12  C   UNL     1       0.353   0.339   0.779  0.00  0.00    +0.072 A 
ENDBRANCH   1  12
BRANCH   4  13
ATOM     13  C   UNL     1       0.726   2.768   5.067  0.00  0.00    +0.003 A 
ATOM     14  C   UNL     1       1.634   2.673   6.120  0.00  0.00    +0.013 A 
ATOM     15  C   UNL     1       1.712   3.686   7.054  0.00  0.00    +0.039 A 
ATOM     16  C   UNL     1       0.890   4.795   6.946  0.00  0.00    +0.123 A 
ATOM     17  C   UNL     1      -0.014   4.894   5.900  0.00  0.00    +0.039 A 
ATOM     18  C   UNL     1      -0.095   3.889   4.959  0.00  0.00    +0.013 A 
ATOM     19  F   UNL     1       0.970   5.785   7.863  0.00  0.00    -0.205 F 
ENDBRANCH   4  13
BRANCH   3  20
ATOM     20  C   UNL     1       0.776  -0.341   5.670  0.00  0.00    -0.011 A 
ATOM     21  C   UNL     1      -0.247  -0.187   6.605  0.00  0.00    +0.010 A 
ATOM     22  C   UNL     1      -0.138  -0.776   7.847  0.00  0.00    +0.024 A 
ATOM     23  C   UNL     1       0.990  -1.522   8.167  0.00  0.00    +0.034 A 
ATOM     24  C   UNL     1       2.010  -1.677   7.237  0.00  0.00    +0.024 A 
ATOM     25  C   UNL     1       1.904  -1.094   5.992  0.00  0.00    +0.010 A 
BRANCH  23  26
ATOM     26  N   UNL     1       1.098  -2.118   9.428  0.00  0.00    -0.281 N 
ATOM     27  C   UNL     1      -0.006  -2.567  10.059  0.00  0.00    +0.255 C 
ATOM     28  O   UNL     1      -1.084  -2.537   9.494  0.00  0.00    -0.269 OA
ATOM     29  H   UNL     1       1.967  -2.209   9.849  0.00  0.00    +0.155 HD
BRANCH  27  30
ATOM     30  C   UNL     1       0.092  -3.090  11.424  0.00  0.00    +0.074 A 
ATOM     31  C   UNL     1      -0.908  -3.599  12.239  0.00  0.00    +0.021 A 
ATOM     32  C   UNL     1      -0.507  -4.019  13.484  0.00  0.00    +0.008 A 
ATOM     33  C   UNL     1       0.801  -3.913  13.827  0.00  0.00    +0.046 A 
ATOM     34  S   UNL     1       1.529  -3.246  12.467  0.00  0.00    -0.092 S 
ENDBRANCH  27  30
ENDBRANCH  23  26
ENDBRANCH   3  20
BRANCH   2  35
ATOM     35  O   UNL     1       0.537  -1.710   2.941  0.00  0.00    -0.407 OA
BRANCH  35  36
ATOM     36  C   UNL     1      -0.657  -2.317   2.847  0.00  0.00    +0.310 C 
ATOM     37  O   UNL     1      -1.670  -1.659   2.834  0.00  0.00    -0.251 OA
ATOM     38  C   UNL     1      -0.733  -3.820   2.759  0.00  0.00    +0.136 C 
ENDBRANCH  35  36
ENDBRANCH   2  35
TORSDOF 7
