REMARK  Name = ZINC39663908
REMARK  10 active torsions:
REMARK  status: ('A' for Active; 'I' for Inactive)
REMARK    1  A    between atoms: C_1  and  N_2
REMARK    2  A    between atoms: N_2  and  C_3
REMARK    3  A    between atoms: N_2  and  C_4
REMARK    4  A    between atoms: C_4  and  C_6
REMARK    5  A    between atoms: C_4  and  C_30
REMARK    6  A    between atoms: C_6  and  N_7
REMARK    7  A    between atoms: C_8  and  C_10
REMARK    8  A    between atoms: C_21  and  C_23
REMARK    9  A    between atoms: C_33  and  O_36
REMARK   10  A    between atoms: O_36  and  C_37
REMARK                            x       y       z     vdW  Elec       q    Type
REMARK                         _______ _______ _______ _____ _____    ______ ____
ROOT
ATOM      1  C   UNL     1      -0.427  -2.369   2.232  0.00  0.00    +0.100 C 
ATOM      2  C   UNL     1       0.812  -1.486   1.965  0.00  0.00    +0.121 C 
ATOM      3  N   UNL     1       1.960  -2.304   2.424  0.00  0.00    -0.300 N 
ATOM      4  C   UNL     1       1.625  -3.683   1.994  0.00  0.00    +0.115 C 
ATOM      5  C   UNL     1       0.111  -3.810   2.249  0.00  0.00    -0.004 C 
ATOM      6  C   UNL     1      -0.543  -4.632   1.142  0.00  0.00    -0.010 C 
ATOM      7  C   UNL     1      -0.036  -6.075   1.217  0.00  0.00    -0.082 C 
ATOM      8  N   UNL     1      -0.360  -6.642   2.532  0.00  0.00    +0.379 N 
ATOM      9  C   UNL     1       0.347  -5.902   3.584  0.00  0.00    -0.082 C 
ATOM     10  C   UNL     1      -0.144  -4.452   3.610  0.00  0.00    -0.010 C 
ATOM     11  C   UNL     1       3.059  -1.887   3.083  0.00  0.00    +0.219 C 
ATOM     12  O   UNL     1       3.147  -0.734   3.447  0.00  0.00    -0.275 OA
ATOM     13  H   UNL     1      -1.355  -6.578   2.688  0.00  0.00    -0.086 HD
ATOM     14  H   UNL     1      -0.080  -7.611   2.557  0.00  0.00    -0.086 HD
ENDROOT
BRANCH  11  15
ATOM     15  C   UNL     1       4.179  -2.855   3.367  0.00  0.00    +0.079 C 
ATOM     16  C   UNL     1       5.197  -2.203   4.311  0.00  0.00    +0.017 C 
ATOM     17  C   UNL     1       6.223  -3.261   4.722  0.00  0.00    +0.027 C 
ATOM     18  C   UNL     1       6.742  -3.977   3.510  0.00  0.00    -0.031 C 
ATOM     19  C   UNL     1       6.160  -3.961   2.354  0.00  0.00    -0.030 C 
ATOM     20  C   UNL     1       4.888  -3.220   2.061  0.00  0.00    +0.039 C 
ENDBRANCH  11  15
BRANCH   1  22
ATOM     21  N   UNL     1      -2.753  -2.354   1.388  0.00  0.00    -0.316 N 
ATOM     22  C   UNL     1      -1.439  -2.201   1.128  0.00  0.00    +0.218 C 
ATOM     23  O   UNL     1      -1.072  -1.927   0.005  0.00  0.00    -0.275 OA
ATOM     24  H   UNL     1      -3.047  -2.573   2.286  0.00  0.00    +0.149 HD
BRANCH  21  25
ATOM     25  C   UNL     1      -3.736  -2.190   0.315  0.00  0.00    +0.093 C 
BRANCH  25  26
ATOM     26  C   UNL     1      -5.129  -2.544   0.841  0.00  0.00    -0.021 C 
BRANCH  26  27
ATOM     27  C   UNL     1      -5.185  -4.015   1.166  0.00  0.00    -0.059 A 
ATOM     28  C   UNL     1      -5.364  -4.939   0.153  0.00  0.00    +0.005 A 
ATOM     29  C   UNL     1      -5.416  -6.287   0.448  0.00  0.00    +0.046 A 
ATOM     30  C   UNL     1      -5.287  -6.714   1.761  0.00  0.00    +0.120 A 
ATOM     31  C   UNL     1      -5.107  -5.785   2.776  0.00  0.00    +0.046 A 
ATOM     32  C   UNL     1      -5.050  -4.438   2.475  0.00  0.00    +0.005 A 
BRANCH  30  33
ATOM     33  O   UNL     1      -5.338  -8.040   2.054  0.00  0.00    -0.495 OA
ATOM     34  C   UNL     1      -5.198  -8.408   3.428  0.00  0.00    +0.277 C 
ENDBRANCH  30  33
ENDBRANCH  26  27
BRANCH  26  36
ATOM     35  C   UNL     1      -7.473  -2.552   0.329  0.00  0.00    -0.096 C 
ATOM     36  N   UNL     1      -6.134  -2.230  -0.183  0.00  0.00    +0.382 N 
ATOM     37  C   UNL     1      -6.066  -0.800  -0.513  0.00  0.00    -0.096 C 
ATOM     38  H   UNL     1      -5.951  -2.776  -1.012  0.00  0.00    -0.082 HD
ENDBRANCH  26  36
ENDBRANCH  25  26
ENDBRANCH  21  25
ENDBRANCH   1  22
TORSDOF 7
