REMARK  Name = ZINC61882228
REMARK  5 active torsions:
REMARK  status: ('A' for Active; 'I' for Inactive)
REMARK    1  A    between atoms: C_1  and  N_2
REMARK    2  A    between atoms: C_6  and  N_9
REMARK    3  A    between atoms: N_9  and  S_10
REMARK    4  A    between atoms: S_10  and  C_13
REMARK    5  A    between atoms: C_17  and  N_20
REMARK                            x       y       z     vdW  Elec       q    Type
REMARK                         _______ _______ _______ _____ _____    ______ ____
ROOT
ATOM      1  S   UNL     1       2.402  -3.894   2.262  0.00  0.00    +0.060 S 
ATOM      2  O   UNL     1       2.889  -4.272   3.542  0.00  0.00    -0.153 OA
ATOM      3  O   UNL     1       1.549  -4.732   1.494  0.00  0.00    -0.153 OA
ENDROOT
BRANCH   1   4
ATOM      4  C   UNL     1       3.814  -3.561   1.263  0.00  0.00    +0.122 A 
ATOM      5  C   UNL     1       3.923  -4.132   0.008  0.00  0.00    +0.049 A 
ATOM      6  C   UNL     1       5.031  -3.872  -0.779  0.00  0.00    +0.045 A 
ATOM      7  C   UNL     1       6.032  -3.041  -0.314  0.00  0.00    +0.044 A 
ATOM      8  C   UNL     1       5.926  -2.466   0.946  0.00  0.00    +0.042 A 
ATOM      9  C   UNL     1       4.809  -2.725   1.732  0.00  0.00    +0.065 A 
ATOM     10 BR   UNL     1       4.656  -1.938   3.445  0.00  0.00    -0.046 Br
ATOM     11 CL   UNL     1       5.163  -4.592  -2.354  0.00  0.00    -0.083 Cl
BRANCH   8  12
ATOM     12  N   UNL     1       6.937  -1.626   1.419  0.00  0.00    -0.357 N 
ATOM     13  H   UNL     1       7.714  -1.444   0.869  0.00  0.00    +0.142 HD
ATOM     14  H   UNL     1       6.861  -1.225   2.300  0.00  0.00    +0.142 HD
ENDBRANCH   8  12
ENDBRANCH   1   4
BRANCH   1  15
ATOM     15  N   UNL     1       1.597  -2.461   2.466  0.00  0.00    -0.189 NA
ATOM     16  H   UNL     1       1.523  -2.068   3.350  0.00  0.00    +0.148 HD
BRANCH  15  22
ATOM     17  C   UNL     1       0.702   1.858   0.466  0.00  0.00    -0.096 C 
ATOM     18  N   UNL     1       0.516   0.407   0.332  0.00  0.00    +0.379 N 
ATOM     19  C   UNL     1      -0.918   0.103   0.267  0.00  0.00    -0.079 C 
ATOM     20  C   UNL     1      -1.116  -1.398   0.046  0.00  0.00    -0.017 C 
ATOM     21  C   UNL     1      -0.481  -2.167   1.208  0.00  0.00    +0.017 C 
ATOM     22  C   UNL     1       0.998  -1.786   1.312  0.00  0.00    +0.060 C 
ATOM     23  C   UNL     1       1.117  -0.270   1.486  0.00  0.00    -0.059 C 
ATOM     24  H   UNL     1       0.964   0.089  -0.515  0.00  0.00    -0.082 HD
ENDBRANCH  15  22
ENDBRANCH   1  15
TORSDOF 4
