REMARK  Name = ZINC04390028
REMARK  9 active torsions:
REMARK  status: ('A' for Active; 'I' for Inactive)
REMARK    1  A    between atoms: C_1  and  C_2
REMARK    2  A    between atoms: C_2  and  C_3
REMARK    3  A    between atoms: C_2  and  C_12
REMARK    4  A    between atoms: C_2  and  O_21
REMARK    5  A    between atoms: C_3  and  N_40
REMARK    6  A    between atoms: C_4  and  C_5
REMARK    7  A    between atoms: C_4  and  N_40
REMARK    8  A    between atoms: C_12  and  S_13
REMARK    9  A    between atoms: S_13  and  C_14
REMARK                            x       y       z     vdW  Elec       q    Type
REMARK                         _______ _______ _______ _____ _____    ______ ____
ROOT
ATOM      1  C   UNL     1      -2.221   1.167  -1.159  0.00  0.00    +0.040 C 
ATOM      2  C   UNL     1      -0.753   1.593  -1.232  0.00  0.00    +0.058 C 
ENDROOT
BRANCH   2   3
ATOM      3  O   UNL     1      -0.672   3.018  -1.285  0.00  0.00    -0.390 OA
ATOM      4  H   UNL     1       0.232   3.360  -1.333  0.00  0.00    +0.210 HD
ENDBRANCH   2   3
BRANCH   2   5
ATOM      5  C   UNL     1      -0.013   1.086   0.008  0.00  0.00    -0.046 C 
BRANCH   5   6
ATOM      6  N   UNL     1      -0.709   1.566   1.217  0.00  0.00    +0.384 N 
ATOM      7  H   UNL     1      -1.672   1.210   1.216  0.00  0.00    -0.085 HD
ATOM      8  H   UNL     1      -0.723   2.592   1.214  0.00  0.00    -0.085 HD
BRANCH   6   9
ATOM      9  C   UNL     1      -0.016   1.091   2.429  0.00  0.00    -0.047 C 
BRANCH   9  10
ATOM     10  C   UNL     1      -0.749   1.596   3.646  0.00  0.00    -0.064 A 
ATOM     11  C   UNL     1      -0.403   2.811   4.206  0.00  0.00    +0.003 A 
ATOM     12  C   UNL     1      -1.078   3.277   5.318  0.00  0.00    +0.020 A 
ATOM     13  C   UNL     1      -2.092   2.521   5.878  0.00  0.00    +0.041 A 
ATOM     14  C   UNL     1      -2.434   1.302   5.321  0.00  0.00    +0.020 A 
ATOM     15  C   UNL     1      -1.762   0.840   4.205  0.00  0.00    +0.003 A 
ATOM     16 CL   UNL     1      -2.937   3.103   7.279  0.00  0.00    -0.084 Cl
ENDBRANCH   9  10
ENDBRANCH   6   9
ENDBRANCH   5   6
ENDBRANCH   2   5
BRANCH   2  17
ATOM     17  C   UNL     1      -0.111   0.998  -2.487  0.00  0.00    +0.107 C 
BRANCH  17  18
ATOM     18  S   UNL     1      -1.077   1.479  -3.945  0.00  0.00    -0.122 S 
BRANCH  18  19
ATOM     19  C   UNL     1      -0.222   0.728  -5.290  0.00  0.00    +0.008 A 
ATOM     20  C   UNL     1       0.924  -0.022  -5.054  0.00  0.00    +0.016 A 
ATOM     21  C   UNL     1       1.589  -0.614  -6.110  0.00  0.00    +0.021 A 
ATOM     22  C   UNL     1       1.121  -0.453  -7.402  0.00  0.00    +0.041 A 
ATOM     23  C   UNL     1      -0.017   0.297  -7.641  0.00  0.00    +0.021 A 
ATOM     24  C   UNL     1      -0.690   0.887  -6.589  0.00  0.00    +0.016 A 
ATOM     25 CL   UNL     1       1.963  -1.194  -8.727  0.00  0.00    -0.084 Cl
ENDBRANCH  18  19
ENDBRANCH  17  18
ENDBRANCH   2  17
TORSDOF 8
