REMARK  Name = ZINC50441520
REMARK  8 active torsions:
REMARK  status: ('A' for Active; 'I' for Inactive)
REMARK    1  A    between atoms: C_1  and  C_2
REMARK    2  A    between atoms: C_2  and  N_3
REMARK    3  A    between atoms: N_3  and  C_4
REMARK    4  A    between atoms: C_4  and  C_6
REMARK    5  A    between atoms: C_4  and  C_19
REMARK    6  A    between atoms: C_6  and  O_7
REMARK    7  A    between atoms: O_7  and  C_8
REMARK    8  A    between atoms: C_11  and  N_15
REMARK                            x       y       z     vdW  Elec       q    Type
REMARK                         _______ _______ _______ _____ _____    ______ ____
ROOT
ATOM      1  C   UNL     1      -2.787  -2.510  -0.111  0.00  0.00    +0.222 C 
ENDROOT
BRANCH   1   2
ATOM      2  C   UNL     1      -1.356  -1.981   0.004  0.00  0.00    +0.054 C 
BRANCH   2   3
ATOM      3  C   UNL     1      -0.737  -2.482   1.284  0.00  0.00    +0.200 C 
ATOM      4  O   UNL     1      -0.350  -1.694   2.120  0.00  0.00    -0.278 OA
ATOM      5  N   UNL     1      -0.613  -3.807   1.498  0.00  0.00    -0.331 N 
ATOM      6  H   UNL     1      -0.922  -4.438   0.830  0.00  0.00    +0.145 HD
ATOM      7  H   UNL     1      -0.214  -4.130   2.322  0.00  0.00    +0.145 HD
ENDBRANCH   2   3
BRANCH   2   8
ATOM      8  N   UNL     1      -1.376  -0.512   0.012  0.00  0.00    +0.389 N 
ATOM      9  H   UNL     1      -1.848  -0.187   0.843  0.00  0.00    -0.085 HD
ATOM     10  H   UNL     1      -1.864  -0.178  -0.805  0.00  0.00    -0.085 HD
BRANCH   8  12
ATOM     11  C   UNL     1      -0.019   1.526   0.010  0.00  0.00    -0.017 C 
ATOM     12  C   UNL     1       0.002  -0.004   0.002  0.00  0.00    -0.085 C 
ENDBRANCH   8  12
ENDBRANCH   2   8
ENDBRANCH   1   2
BRANCH   1  13
ATOM     13  O   UNL     1      -3.524  -2.149   1.059  0.00  0.00    -0.491 OA
BRANCH  13  14
ATOM     14  C   UNL     1      -4.823  -2.545   1.117  0.00  0.00    +0.148 A 
ATOM     15  C   UNL     1      -5.823  -1.725   0.613  0.00  0.00    +0.063 A 
ATOM     16  C   UNL     1      -7.143  -2.131   0.673  0.00  0.00    +0.051 A 
ATOM     17  C   UNL     1      -7.468  -3.352   1.235  0.00  0.00    +0.129 A 
ATOM     18  C   UNL     1      -6.473  -4.170   1.738  0.00  0.00    +0.051 A 
ATOM     19  C   UNL     1      -5.151  -3.772   1.676  0.00  0.00    +0.063 A 
ATOM     20 BR   UNL     1      -3.791  -4.896   2.357  0.00  0.00    -0.046 Br
ATOM     21 BR   UNL     1      -5.380  -0.055  -0.154  0.00  0.00    -0.046 Br
BRANCH  17  22
ATOM     22  N   UNL     1      -8.882  -3.783   1.299  0.00  0.00    +0.056 N 
ATOM     23  O   UNL     1      -9.753  -3.068   0.860  0.00  0.00    -0.126 OA
ATOM     24  O   UNL     1      -9.167  -4.850   1.790  0.00  0.00    -0.126 OA
ENDBRANCH  17  22
ENDBRANCH  13  14
ENDBRANCH   1  13
TORSDOF 7
