REMARK  Name = ZINC13555458
REMARK  10 active torsions:
REMARK  status: ('A' for Active; 'I' for Inactive)
REMARK    1  A    between atoms: C_1  and  C_2
REMARK    2  A    between atoms: C_6  and  C_26
REMARK    3  A    between atoms: C_9  and  N_58
REMARK    4  A    between atoms: C_12  and  C_13
REMARK    5  A    between atoms: C_12  and  N_58
REMARK    6  A    between atoms: C_16  and  O_21
REMARK    7  A    between atoms: C_17  and  O_19
REMARK    8  A    between atoms: O_19  and  C_20
REMARK    9  A    between atoms: O_21  and  C_22
REMARK   10  A    between atoms: C_22  and  C_23
REMARK                            x       y       z     vdW  Elec       q    Type
REMARK                         _______ _______ _______ _____ _____    ______ ____
ROOT
ATOM      1  C   UNL     1      -2.810  -4.041   0.007  0.00  0.00    -0.046 C 
ENDROOT
BRANCH   1   2
ATOM      2  C   UNL     1      -4.237  -4.524   0.018  0.00  0.00    -0.061 A 
ATOM      3  C   UNL     1      -4.902  -4.739  -1.175  0.00  0.00    +0.005 A 
ATOM      4  C   UNL     1      -6.211  -5.184  -1.170  0.00  0.00    +0.049 A 
ATOM      5  C   UNL     1      -6.860  -5.415   0.032  0.00  0.00    +0.163 A 
ATOM      6  C   UNL     1      -6.191  -5.198   1.233  0.00  0.00    +0.162 A 
ATOM      7  C   UNL     1      -4.877  -4.758   1.221  0.00  0.00    +0.051 A 
BRANCH   6   8
ATOM      8  O   UNL     1      -6.824  -5.423   2.416  0.00  0.00    -0.491 OA
ATOM      9  C   UNL     1      -6.075  -5.179   3.608  0.00  0.00    +0.277 C 
ENDBRANCH   6   8
BRANCH   5  10
ATOM     10  O   UNL     1      -8.147  -5.853   0.039  0.00  0.00    -0.479 OA
BRANCH  10  11
ATOM     11  C   UNL     1      -8.771  -6.054  -1.231  0.00  0.00    +0.324 C 
BRANCH  11  12
ATOM     12  C   UNL     1     -10.184  -6.536  -1.027  0.00  0.00    +0.248 C 
ATOM     13  O   UNL     1     -10.614  -6.692   0.096  0.00  0.00    -0.272 OA
ATOM     14  N   UNL     1     -10.968  -6.794  -2.092  0.00  0.00    -0.327 N 
ATOM     15  H   UNL     1     -10.624  -6.669  -2.990  0.00  0.00    +0.145 HD
ATOM     16  H   UNL     1     -11.878  -7.104  -1.960  0.00  0.00    +0.145 HD
ENDBRANCH  11  12
ENDBRANCH  10  11
ENDBRANCH   5  10
ENDBRANCH   1   2
BRANCH   1  17
ATOM     17  N   UNL     1      -2.800  -2.566   0.015  0.00  0.00    +0.385 N 
ATOM     18  H   UNL     1      -3.292  -2.219  -0.817  0.00  0.00    -0.085 HD
ATOM     19  H   UNL     1      -3.276  -2.228   0.860  0.00  0.00    -0.085 HD
BRANCH  17  28
ATOM     20  C   UNL     1       1.455  -2.521  -2.524  0.00  0.00    +0.011 C 
ATOM     21  C   UNL     1       0.739  -2.027  -1.265  0.00  0.00    -0.033 C 
ATOM     22  C   UNL     1       1.479  -2.534  -0.026  0.00  0.00    +0.010 C 
ATOM     23  C   UNL     1       0.763  -2.041   1.233  0.00  0.00    -0.011 C 
ATOM     24  C   UNL     1       0.742  -0.511   1.242  0.00  0.00    +0.010 C 
ATOM     25  C   UNL     1       0.002  -0.004   0.002  0.00  0.00    -0.033 C 
ATOM     26  C   UNL     1       0.718  -0.497  -1.257  0.00  0.00    +0.013 C 
ATOM     27  C   UNL     1      -1.433  -0.534   0.013  0.00  0.00    -0.006 C 
ATOM     28  C   UNL     1      -1.413  -2.063   0.004  0.00  0.00    -0.067 C 
ATOM     29  C   UNL     1      -0.673  -2.570   1.244  0.00  0.00    -0.009 C 
ATOM     30  C   UNL     1      -0.696  -2.557  -1.254  0.00  0.00    -0.006 C 
ATOM     31  C   UNL     1      -0.019   1.526   0.010  0.00  0.00    +0.011 C 
ENDBRANCH  17  28
ENDBRANCH   1  17
TORSDOF 7
