REMARK  Name = ZINC35313071
REMARK  4 active torsions:
REMARK  status: ('A' for Active; 'I' for Inactive)
REMARK    1  A    between atoms: C_3  and  C_21
REMARK    2  A    between atoms: C_4  and  S_7
REMARK    3  A    between atoms: S_7  and  C_8
REMARK    4  A    between atoms: C_8  and  C_9
REMARK                            x       y       z     vdW  Elec       q    Type
REMARK                         _______ _______ _______ _____ _____    ______ ____
ROOT
ATOM      1  C   UNL     1       4.414  -3.648  -0.060  0.00  0.00    +0.229 C 
ATOM      2  O   UNL     1       5.537  -3.192  -0.069  0.00  0.00    -0.275 OA
ATOM      3  N   UNL     1       4.228  -4.983  -0.066  0.00  0.00    -0.264 N 
ATOM      4  C   UNL     1       5.325  -5.837  -0.081  0.00  0.00    +0.165 A 
ATOM      5  N   UNL     1       6.603  -5.526  -0.087  0.00  0.00    -0.229 NA
ATOM      6  C   UNL     1       7.553  -6.456  -0.102  0.00  0.00    +0.054 A 
ATOM      7  C   UNL     1       7.099  -7.736  -0.112  0.00  0.00    +0.014 A 
ATOM      8  S   UNL     1       5.341  -7.522  -0.091  0.00  0.00    -0.057 S 
ATOM      9  C   UNL     1       7.906  -8.989  -0.131  0.00  0.00    +0.044 C 
ATOM     10  C   UNL     1       9.351  -8.624  -0.508  0.00  0.00    +0.006 C 
ATOM     11  C   UNL     1       9.793  -7.426   0.336  0.00  0.00    +0.006 C 
ATOM     12  C   UNL     1       9.047  -6.165  -0.106  0.00  0.00    +0.056 C 
ATOM     13  H   UNL     1       3.330  -5.348  -0.059  0.00  0.00    +0.157 HD
ENDROOT
BRANCH   1  14
ATOM     14  C   UNL     1       3.224  -2.722  -0.044  0.00  0.00    +0.172 C 
BRANCH  14  15
ATOM     15  S   UNL     1       3.798  -1.001  -0.040  0.00  0.00    -0.096 S 
BRANCH  15  19
ATOM     16  C   UNL     1      -0.017   1.380   0.010  0.00  0.00    +0.021 A 
ATOM     17  C   UNL     1       1.177   2.078   0.002  0.00  0.00    +0.019 A 
ATOM     18  C   UNL     1       2.374   1.350  -0.013  0.00  0.00    +0.095 A 
ATOM     19  C   UNL     1       2.311  -0.057  -0.020  0.00  0.00    +0.111 A 
ATOM     20  N   UNL     1       1.138  -0.673  -0.012  0.00  0.00    -0.248 NA
ATOM     21  C   UNL     1       0.002  -0.004   0.002  0.00  0.00    +0.112 A 
BRANCH  18  22
ATOM     22  C   UNL     1       3.671   2.041  -0.022  0.00  0.00    +0.389 C 
ATOM     23  O   UNL     1       3.713   3.264  -0.017  0.00  0.00    -0.241 OA
ATOM     24  O   UNL     1       4.709   1.394  -0.036  0.00  0.00    -0.241 OA
ENDBRANCH  18  22
ENDBRANCH  15  19
ENDBRANCH  14  15
ENDBRANCH   1  14
TORSDOF 4
