REMARK  Name = ZINC35778518
REMARK  15 active torsions:
REMARK  status: ('A' for Active; 'I' for Inactive)
REMARK    1  A    between atoms: C_1  and  C_2
REMARK    2  A    between atoms: C_2  and  C_3
REMARK    3  A    between atoms: C_2  and  C_4
REMARK    4  A    between atoms: C_4  and  N_5
REMARK    5  A    between atoms: N_5  and  C_6
REMARK    6  A    between atoms: N_5  and  C_27
REMARK    7  A    between atoms: C_6  and  C_7
REMARK    8  A    between atoms: C_8  and  C_21
REMARK    9  A    between atoms: N_10  and  C_20
REMARK   10  A    between atoms: C_11  and  O_12
REMARK   11  A    between atoms: O_12  and  C_13
REMARK   12  A    between atoms: C_27  and  C_28
REMARK   13  A    between atoms: C_28  and  C_29
REMARK   14  A    between atoms: C_28  and  C_30
REMARK   15  A    between atoms: C_28  and  O_32
REMARK                            x       y       z     vdW  Elec       q    Type
REMARK                         _______ _______ _______ _____ _____    ______ ____
ROOT
ATOM      1  C   UNL     1       0.567  -2.476   0.561  0.00  0.00    +0.025 A 
ATOM      2  C   UNL     1       1.587  -3.314   0.072  0.00  0.00    +0.098 A 
ATOM      3  N   UNL     1       2.745  -2.775   0.385  0.00  0.00    -0.168 NA
ATOM      4  N   UNL     1       2.502  -1.582   1.079  0.00  0.00    -0.235 N 
ATOM      5  C   UNL     1       1.157  -1.416   1.170  0.00  0.00    +0.221 A 
ATOM      6  C   UNL     1       3.519  -0.671   1.608  0.00  0.00    +0.176 C 
ENDROOT
BRANCH   2   7
ATOM      7  C   UNL     1       1.389  -4.586  -0.667  0.00  0.00    +0.002 A 
ATOM      8  C   UNL     1       0.432  -5.503  -0.238  0.00  0.00    +0.010 A 
ATOM      9  C   UNL     1       0.252  -6.684  -0.929  0.00  0.00    +0.001 A 
ATOM     10  C   UNL     1       1.021  -6.958  -2.046  0.00  0.00    +0.000 A 
ATOM     11  C   UNL     1       1.973  -6.051  -2.477  0.00  0.00    +0.001 A 
ATOM     12  C   UNL     1       2.157  -4.865  -1.796  0.00  0.00    +0.010 A 
ENDBRANCH   2   7
BRANCH   1  13
ATOM     13  C   UNL     1      -0.916  -2.710   0.426  0.00  0.00    -0.035 C 
BRANCH  13  14
ATOM     14  N   UNL     1      -1.391  -2.124  -0.835  0.00  0.00    +0.385 N 
ATOM     15  H   UNL     1      -0.889  -2.535  -1.607  0.00  0.00    -0.081 HD
BRANCH  14  16
ATOM     16  C   UNL     1      -1.161  -0.673  -0.818  0.00  0.00    -0.075 C 
BRANCH  16  18
ATOM     17  C   UNL     1      -1.365   1.437  -2.141  0.00  0.00    +0.005 C 
ATOM     18  C   UNL     1      -1.511  -0.086  -2.187  0.00  0.00    -0.034 C 
ATOM     19  C   UNL     1      -0.563  -0.657  -3.244  0.00  0.00    +0.005 C 
ENDBRANCH  16  18
ENDBRANCH  14  16
BRANCH  14  20
ATOM     20  C   UNL     1      -2.828  -2.390  -0.987  0.00  0.00    -0.039 C 
BRANCH  20  21
ATOM     21  C   UNL     1      -3.049  -3.889  -1.201  0.00  0.00    +0.067 C 
ATOM     22  C   UNL     1      -2.181  -4.372  -2.365  0.00  0.00    +0.044 C 
BRANCH  21  23
ATOM     23  C   UNL     1      -4.500  -4.143  -1.517  0.00  0.00    -0.003 C 
ATOM     24  C   UNL     1      -5.215  -4.917  -0.739  0.00  0.00    +0.006 C 
ENDBRANCH  21  23
BRANCH  21  25
ATOM     25  O   UNL     1      -2.689  -4.598  -0.013  0.00  0.00    -0.387 OA
ATOM     26  H   UNL     1      -3.200  -4.342   0.767  0.00  0.00    +0.210 HD
ENDBRANCH  21  25
ENDBRANCH  20  21
ENDBRANCH  14  20
ENDBRANCH  13  14
ENDBRANCH   1  13
BRANCH   5  27
ATOM     27  O   UNL     1       0.518  -0.377   1.766  0.00  0.00    -0.435 OA
BRANCH  27  28
ATOM     28  C   UNL     1       0.304  -0.444   3.107  0.00  0.00    +0.165 A 
ATOM     29  C   UNL     1       0.827  -1.498   3.842  0.00  0.00    +0.049 A 
ATOM     30  C   UNL     1       0.609  -1.563   5.205  0.00  0.00    +0.004 A 
ATOM     31  C   UNL     1      -0.129  -0.580   5.837  0.00  0.00    +0.003 A 
ATOM     32  C   UNL     1      -0.652   0.473   5.108  0.00  0.00    +0.042 A 
ATOM     33  C   UNL     1      -0.432   0.547   3.744  0.00  0.00    +0.165 A 
ATOM     34  F   UNL     1      -0.938   1.577   3.033  0.00  0.00    -0.202 F 
ENDBRANCH  27  28
ENDBRANCH   5  27
TORSDOF 11
