REMARK  Name = ZINC13978648
REMARK  11 active torsions:
REMARK  status: ('A' for Active; 'I' for Inactive)
REMARK    1  A    between atoms: C_1  and  C_2
REMARK    2  A    between atoms: C_5  and  C_8
REMARK    3  A    between atoms: C_9  and  C_10
REMARK    4  A    between atoms: N_12  and  C_13
REMARK    5  A    between atoms: C_13  and  N_15
REMARK    6  A    between atoms: N_15  and  N_16
REMARK    7  A    between atoms: C_17  and  C_19
REMARK    8  A    between atoms: C_19  and  C_20
REMARK    9  A    between atoms: C_20  and  C_21
REMARK   10  A    between atoms: N_23  and  C_24
REMARK   11  A    between atoms: C_29  and  C_30
REMARK                            x       y       z     vdW  Elec       q    Type
REMARK                         _______ _______ _______ _____ _____    ______ ____
ROOT
ATOM      1  N   UNL     1       3.459   3.334  -0.045  0.00  0.00    -0.235 N 
ATOM      2  C   UNL     1       4.617   4.024  -0.049  0.00  0.00    +0.230 C 
ATOM      3  O   UNL     1       5.676   3.433  -0.069  0.00  0.00    -0.274 OA
ATOM      4  H   UNL     1       2.613   3.808  -0.029  0.00  0.00    +0.173 HD
ENDROOT
BRANCH   1   5
ATOM      5  N   UNL     1       3.478   1.934  -0.063  0.00  0.00    -0.246 N 
ATOM      6  H   UNL     1       4.325   1.460  -0.079  0.00  0.00    +0.172 HD
BRANCH   5   7
ATOM      7  C   UNL     1       2.321   1.244  -0.059  0.00  0.00    +0.153 C 
ATOM      8  S   UNL     1       2.344  -0.468  -0.082  0.00  0.00    -0.017 S 
BRANCH   7  11
ATOM      9  C   UNL     1      -0.013   1.211  -0.033  0.00  0.00    +0.242 C 
ATOM     10  O   UNL     1       0.003  -0.005  -0.049  0.00  0.00    -0.270 OA
ATOM     11  N   UNL     1       1.145   1.901  -0.037  0.00  0.00    -0.263 N 
ATOM     12  H   UNL     1       1.131   2.871  -0.024  0.00  0.00    +0.157 HD
BRANCH   9  14
ATOM     13  C   UNL     1      -2.449   1.235  -0.017  0.00  0.00    +0.013 C 
ATOM     14  C   UNL     1      -1.290   1.925  -0.015  0.00  0.00    +0.068 C 
BRANCH  13  19
ATOM     15  C   UNL     1      -7.466   4.040   0.054  0.00  0.00    +0.044 C 
ATOM     16  C   UNL     1      -6.151   3.305   0.036  0.00  0.00    -0.050 A 
ATOM     17  C   UNL     1      -6.136   1.921   0.017  0.00  0.00    +0.004 A 
ATOM     18  C   UNL     1      -4.937   1.241   0.000  0.00  0.00    +0.008 A 
ATOM     19  C   UNL     1      -3.734   1.953   0.002  0.00  0.00    -0.025 A 
ATOM     20  C   UNL     1      -3.757   3.351   0.026  0.00  0.00    +0.008 A 
ATOM     21  C   UNL     1      -4.964   4.017   0.038  0.00  0.00    +0.004 A 
ENDBRANCH  13  19
ENDBRANCH   9  14
ENDBRANCH   7  11
ENDBRANCH   5   7
ENDBRANCH   1   5
BRANCH   2  22
ATOM     22  C   UNL     1       4.596   5.531  -0.029  0.00  0.00    +0.106 C 
BRANCH  22  23
ATOM     23  C   UNL     1       6.032   6.061  -0.038  0.00  0.00    +0.105 C 
BRANCH  23  24
ATOM     24  C   UNL     1       6.011   7.568  -0.018  0.00  0.00    +0.218 C 
ATOM     25  O   UNL     1       4.953   8.159   0.002  0.00  0.00    -0.275 OA
ATOM     26  N   UNL     1       7.169   8.258  -0.022  0.00  0.00    -0.285 N 
ATOM     27  H   UNL     1       8.014   7.787   0.043  0.00  0.00    +0.155 HD
BRANCH  26  28
ATOM     28  C   UNL     1       7.151   9.653  -0.120  0.00  0.00    +0.038 A 
ATOM     29  C   UNL     1       6.072  10.296  -0.712  0.00  0.00    +0.023 A 
ATOM     30  C   UNL     1       6.056  11.673  -0.807  0.00  0.00    +0.003 A 
ATOM     31  C   UNL     1       7.114  12.414  -0.314  0.00  0.00    +0.020 A 
ATOM     32  C   UNL     1       8.192  11.777   0.277  0.00  0.00    +0.046 A 
ATOM     33  C   UNL     1       8.210  10.399   0.380  0.00  0.00    -0.011 A 
ATOM     34  C   UNL     1       9.381   9.706   1.028  0.00  0.00    +0.047 C 
ATOM     35 CL   UNL     1       9.518  12.711   0.896  0.00  0.00    -0.083 Cl
ENDBRANCH  26  28
ENDBRANCH  23  24
ENDBRANCH  22  23
ENDBRANCH   2  22
TORSDOF 9
