REMARK  Name = ZINC45510539
REMARK  9 active torsions:
REMARK  status: ('A' for Active; 'I' for Inactive)
REMARK    1  A    between atoms: C_1  and  C_2
REMARK    2  A    between atoms: C_2  and  C_4
REMARK    3  A    between atoms: C_2  and  N_12
REMARK    4  A    between atoms: N_12  and  C_13
REMARK    5  A    between atoms: C_13  and  C_15
REMARK    6  A    between atoms: C_13  and  C_16
REMARK    7  A    between atoms: N_18  and  C_19
REMARK    8  A    between atoms: C_23  and  S_25
REMARK    9  A    between atoms: S_25  and  N_28
REMARK                            x       y       z     vdW  Elec       q    Type
REMARK                         _______ _______ _______ _____ _____    ______ ____
ROOT
ATOM      1  C   UNL     1      -3.340  -0.921  -1.374  0.00  0.00    +0.203 C 
ATOM      2  O   UNL     1      -3.771  -1.546  -0.429  0.00  0.00    -0.277 OA
ATOM      3  N   UNL     1      -4.095  -0.765  -2.480  0.00  0.00    -0.287 N 
ATOM      4  H   UNL     1      -3.723  -0.329  -3.263  0.00  0.00    +0.155 HD
ENDROOT
BRANCH   3   5
ATOM      5  C   UNL     1      -5.414  -1.231  -2.498  0.00  0.00    +0.035 A 
ATOM      6  C   UNL     1      -5.954  -1.744  -3.671  0.00  0.00    +0.023 A 
ATOM      7  C   UNL     1      -7.256  -2.204  -3.686  0.00  0.00    +0.004 A 
ATOM      8  C   UNL     1      -8.022  -2.154  -2.535  0.00  0.00    +0.028 A 
ATOM      9  C   UNL     1      -7.487  -1.643  -1.367  0.00  0.00    +0.107 A 
ATOM     10  C   UNL     1      -6.183  -1.188  -1.344  0.00  0.00    +0.051 A 
BRANCH   9  11
ATOM     11  S   UNL     1      -8.467  -1.581   0.096  0.00  0.00    +0.056 S 
ATOM     12  O   UNL     1      -7.914  -0.558   0.912  0.00  0.00    -0.153 OA
ATOM     13  O   UNL     1      -9.825  -1.569  -0.325  0.00  0.00    -0.153 OA
BRANCH  11  14
ATOM     14  N   UNL     1      -8.235  -3.008   0.903  0.00  0.00    -0.204 NA
ATOM     15  H   UNL     1      -8.300  -3.034   1.870  0.00  0.00    +0.144 HD
ATOM     16  H   UNL     1      -8.034  -3.818   0.408  0.00  0.00    +0.144 HD
ENDBRANCH  11  14
ENDBRANCH   9  11
ENDBRANCH   3   5
BRANCH   1  17
ATOM     17  C   UNL     1      -1.960  -0.318  -1.312  0.00  0.00    +0.014 C 
ATOM     18  C   UNL     1      -2.059   1.200  -1.482  0.00  0.00    -0.004 C 
BRANCH  17  19
ATOM     19  N   UNL     1      -1.349  -0.627  -0.013  0.00  0.00    +0.391 N 
ATOM     20  H   UNL     1      -1.361  -1.625   0.136  0.00  0.00    -0.084 HD
ATOM     21  H   UNL     1      -1.870  -0.171   0.721  0.00  0.00    -0.084 HD
BRANCH  19  23
ATOM     22  C   UNL     1       0.625  -0.322   1.404  0.00  0.00    -0.009 C 
ATOM     23  C   UNL     1       0.040  -0.147   0.001  0.00  0.00    -0.042 C 
BRANCH  23  24
ATOM     24  C   UNL     1       0.856  -0.940  -0.986  0.00  0.00    -0.043 A 
ATOM     25  C   UNL     1       0.406  -2.172  -1.423  0.00  0.00    +0.005 A 
ATOM     26  C   UNL     1       1.153  -2.901  -2.329  0.00  0.00    +0.020 A 
ATOM     27  C   UNL     1       2.353  -2.397  -2.800  0.00  0.00    +0.042 A 
ATOM     28  C   UNL     1       2.804  -1.164  -2.364  0.00  0.00    +0.040 A 
ATOM     29  C   UNL     1       2.052  -0.433  -1.460  0.00  0.00    +0.044 A 
ATOM     30 CL   UNL     1       2.614   1.117  -0.917  0.00  0.00    -0.083 Cl
ATOM     31 CL   UNL     1       3.293  -3.312  -3.937  0.00  0.00    -0.083 Cl
ENDBRANCH  23  24
ENDBRANCH  19  23
ENDBRANCH  17  19
ENDBRANCH   1  17
TORSDOF 7
