REMARK  Name = ZINC44178694
REMARK  9 active torsions:
REMARK  status: ('A' for Active; 'I' for Inactive)
REMARK    1  A    between atoms: C_1  and  C_2
REMARK    2  A    between atoms: C_2  and  C_3
REMARK    3  A    between atoms: C_3  and  C_5
REMARK    4  A    between atoms: C_3  and  N_21
REMARK    5  A    between atoms: C_5  and  N_6
REMARK    6  A    between atoms: N_9  and  C_10
REMARK    7  A    between atoms: C_15  and  C_16
REMARK    8  A    between atoms: C_16  and  C_17
REMARK    9  A    between atoms: N_19  and  C_20
REMARK                            x       y       z     vdW  Elec       q    Type
REMARK                         _______ _______ _______ _____ _____    ______ ____
ROOT
ATOM      1  N   UNL     1       1.439  -2.572  -2.193  0.00  0.00    -0.301 N 
ATOM      2  C   UNL     1       1.606  -3.908  -2.261  0.00  0.00    +0.304 C 
ATOM      3  O   UNL     1       1.138  -4.624  -1.397  0.00  0.00    -0.253 OA
ATOM      4  N   UNL     1       2.292  -4.450  -3.287  0.00  0.00    -0.269 N 
ATOM      5  H   UNL     1       1.813  -2.001  -2.882  0.00  0.00    +0.150 HD
ATOM      6  H   UNL     1       2.722  -3.876  -3.940  0.00  0.00    +0.156 HD
ENDROOT
BRANCH   4   7
ATOM      7  C   UNL     1       2.383  -5.841  -3.409  0.00  0.00    +0.038 A 
ATOM      8  C   UNL     1       2.286  -6.647  -2.283  0.00  0.00    +0.023 A 
ATOM      9  C   UNL     1       2.376  -8.019  -2.407  0.00  0.00    +0.002 A 
ATOM     10  C   UNL     1       2.564  -8.591  -3.652  0.00  0.00    +0.000 A 
ATOM     11  C   UNL     1       2.662  -7.792  -4.776  0.00  0.00    +0.006 A 
ATOM     12  C   UNL     1       2.567  -6.418  -4.659  0.00  0.00    -0.017 A 
BRANCH  12  13
ATOM     13  C   UNL     1       2.667  -5.548  -5.885  0.00  0.00    +0.132 C 
BRANCH  13  14
ATOM     14  C   UNL     1       4.090  -5.080  -6.053  0.00  0.00    +0.217 C 
ATOM     15  O   UNL     1       4.938  -5.420  -5.256  0.00  0.00    -0.275 OA
ATOM     16  N   UNL     1       4.419  -4.284  -7.089  0.00  0.00    -0.318 N 
ATOM     17  C   UNL     1       5.802  -3.829  -7.253  0.00  0.00    +0.128 C 
ATOM     18  H   UNL     1       3.741  -4.012  -7.727  0.00  0.00    +0.148 HD
ENDBRANCH  13  14
ENDBRANCH  12  13
ENDBRANCH   4   7
BRANCH   1  19
ATOM     19  C   UNL     1       0.694  -1.983  -1.078  0.00  0.00    +0.090 C 
BRANCH  19  20
ATOM     20  C   UNL     1       0.527  -0.480  -1.313  0.00  0.00    -0.051 C 
BRANCH  20  21
ATOM     21  N   UNL     1      -0.481  -0.258  -2.358  0.00  0.00    +0.385 N 
ATOM     22  C   UNL     1      -1.720  -0.968  -2.006  0.00  0.00    -0.073 C 
ATOM     23  C   UNL     1      -2.839  -0.483  -2.929  0.00  0.00    +0.017 C 
ATOM     24  C   UNL     1      -2.388  -0.564  -4.364  0.00  0.00    -0.048 A 
ATOM     25  C   UNL     1      -3.344  -0.505  -5.366  0.00  0.00    +0.004 A 
ATOM     26  C   UNL     1      -2.968  -0.573  -6.693  0.00  0.00    +0.000 A 
ATOM     27  C   UNL     1      -1.631  -0.700  -7.023  0.00  0.00    +0.000 A 
ATOM     28  C   UNL     1      -0.679  -0.760  -6.026  0.00  0.00    +0.002 A 
ATOM     29  C   UNL     1      -1.055  -0.694  -4.693  0.00  0.00    -0.061 A 
ATOM     30  C   UNL     1       0.017  -0.771  -3.638  0.00  0.00    -0.042 C 
ATOM     31  H   UNL     1      -0.669   0.730  -2.441  0.00  0.00    -0.081 HD
ENDBRANCH  20  21
BRANCH  20  33
ATOM     32  C   UNL     1      -0.023   1.704  -0.232  0.00  0.00    +0.002 C 
ATOM     33  C   UNL     1       0.074   0.192  -0.016  0.00  0.00    -0.017 C 
ENDBRANCH  20  33
ENDBRANCH  19  20
ENDBRANCH   1  19
TORSDOF 7
