REMARK  Name = ZINC66244747
REMARK  7 active torsions:
REMARK  status: ('A' for Active; 'I' for Inactive)
REMARK    1  A    between atoms: C_1  and  C_2
REMARK    2  A    between atoms: C_4  and  C_25
REMARK    3  A    between atoms: N_5  and  C_7
REMARK    4  A    between atoms: C_10  and  C_17
REMARK    5  A    between atoms: C_11  and  C_13
REMARK    6  A    between atoms: C_17  and  N_18
REMARK    7  A    between atoms: N_20  and  C_21
REMARK                            x       y       z     vdW  Elec       q    Type
REMARK                         _______ _______ _______ _____ _____    ______ ____
ROOT
ATOM      1  C   UNL     1       0.281  -3.483   1.346  0.00  0.00    +0.066 A 
ATOM      2  C   UNL     1      -0.226  -4.612   0.717  0.00  0.00    +0.028 A 
ATOM      3  C   UNL     1      -0.218  -5.828   1.372  0.00  0.00    +0.008 A 
ATOM      4  C   UNL     1       0.293  -5.921   2.653  0.00  0.00    -0.017 A 
ATOM      5  C   UNL     1       0.797  -4.799   3.283  0.00  0.00    +0.062 A 
ATOM      6  C   UNL     1       0.799  -3.581   2.631  0.00  0.00    +0.040 A 
ENDROOT
BRANCH   1  11
ATOM      7  C   UNL     1       1.760   0.949  -0.321  0.00  0.00    +0.067 C 
ATOM      8  C   UNL     1       0.942  -0.287  -0.047  0.00  0.00    +0.061 A 
ATOM      9  C   UNL     1      -0.350  -0.536  -0.522  0.00  0.00    +0.047 A 
ATOM     10  C   UNL     1      -0.738  -1.748  -0.059  0.00  0.00    +0.042 A 
ATOM     11  N   UNL     1       0.275  -2.247   0.684  0.00  0.00    -0.237 N 
ATOM     12  N   UNL     1       1.319  -1.313   0.672  0.00  0.00    -0.171 NA
ATOM     13  C   UNL     1      -2.061  -2.419  -0.324  0.00  0.00    +0.066 C 
ENDBRANCH   1  11
BRANCH   5  14
ATOM     14  C   UNL     1       1.353  -4.905   4.680  0.00  0.00    +0.418 C 
ATOM     15  F   UNL     1       1.800  -3.648   5.101  0.00  0.00    -0.166 F 
ATOM     16  F   UNL     1       0.352  -5.358   5.546  0.00  0.00    -0.166 F 
ATOM     17  F   UNL     1       2.422  -5.807   4.689  0.00  0.00    -0.166 F 
ENDBRANCH   5  14
BRANCH   4  18
ATOM     18  C   UNL     1       0.299  -7.250   3.365  0.00  0.00    +0.151 C 
BRANCH  18  19
ATOM     19  N   UNL     1      -0.829  -7.309   4.298  0.00  0.00    -0.354 N 
ATOM     20  C   UNL     1      -1.029  -8.433   5.064  0.00  0.00    +0.169 C 
ATOM     21  N   UNL     1      -2.033  -8.486   5.894  0.00  0.00    -0.355 N 
ATOM     22  N   UNL     1      -0.170  -9.501   4.955  0.00  0.00    -0.371 N 
ATOM     23  H   UNL     1      -1.435  -6.555   4.375  0.00  0.00    +0.163 HD
ATOM     24  H   UNL     1       0.530  -9.494   4.284  0.00  0.00    +0.159 HD
ATOM     25  H   UNL     1      -0.265 -10.262   5.550  0.00  0.00    +0.159 HD
ATOM     26  H   UNL     1      -2.685  -7.768   5.913  0.00  0.00    +0.163 HD
BRANCH  21  27
ATOM     27  C   UNL     1      -2.176  -9.630   6.798  0.00  0.00    +0.082 C 
ATOM     28  C   UNL     1      -3.582  -9.957   7.305  0.00  0.00    +0.026 C 
ATOM     29  C   UNL     1      -2.913 -10.861   6.267  0.00  0.00    +0.026 C 
ENDBRANCH  21  27
ENDBRANCH  18  19
ENDBRANCH   4  18
TORSDOF 5
