REMARK  Name = ZINC43401953
REMARK  6 active torsions:
REMARK  status: ('A' for Active; 'I' for Inactive)
REMARK    1  A    between atoms: C_1  and  C_2
REMARK    2  A    between atoms: C_2  and  C_3
REMARK    3  A    between atoms: C_2  and  C_4
REMARK    4  A    between atoms: C_2  and  N_20
REMARK    5  A    between atoms: C_6  and  C_9
REMARK    6  A    between atoms: C_9  and  N_10
REMARK                            x       y       z     vdW  Elec       q    Type
REMARK                         _______ _______ _______ _____ _____    ______ ____
ROOT
ATOM      1  C   UNL     1      -1.412  -0.526   0.013  0.00  0.00    +0.160 A 
ATOM      2  N   UNL     1      -1.960  -1.305  -0.926  0.00  0.00    -0.196 NA
ATOM      3  C   UNL     1      -3.197  -1.577  -0.615  0.00  0.00    +0.241 A 
ATOM      4  O   UNL     1      -3.481  -0.973   0.546  0.00  0.00    -0.337 OA
ATOM      5  N   UNL     1      -2.296  -0.296   0.940  0.00  0.00    -0.063 NA
ENDROOT
BRANCH   1   7
ATOM      6  C   UNL     1      -0.019   1.526   0.010  0.00  0.00    -0.003 C 
ATOM      7  C   UNL     1       0.002  -0.004   0.002  0.00  0.00    -0.012 C 
ATOM      8  C   UNL     1       0.742  -0.511   1.242  0.00  0.00    -0.003 C 
BRANCH   7   9
ATOM      9  N   UNL     1       0.690  -0.478  -1.207  0.00  0.00    +0.386 N 
ATOM     10  H   UNL     1       1.636  -0.129  -1.214  0.00  0.00    -0.089 HD
ATOM     11  H   UNL     1       0.703  -1.487  -1.212  0.00  0.00    -0.089 HD
ATOM     12  H   UNL     1       0.202  -0.144  -2.024  0.00  0.00    -0.089 HD
ENDBRANCH   7   9
ENDBRANCH   1   7
BRANCH   3  13
ATOM     13  C   UNL     1      -4.145  -2.425  -1.424  0.00  0.00    +0.183 C 
BRANCH  13  14
ATOM     14  N   UNL     1      -4.032  -3.826  -0.998  0.00  0.00    -0.289 NA
ATOM     15  C   UNL     1      -4.779  -4.714  -1.904  0.00  0.00    +0.090 C 
ATOM     16  C   UNL     1      -4.337  -6.155  -1.644  0.00  0.00    +0.051 C 
ATOM     17  C   UNL     1      -4.404  -6.455  -0.169  0.00  0.00    -0.042 A 
ATOM     18  C   UNL     1      -4.393  -7.782   0.237  0.00  0.00    +0.004 A 
ATOM     19  C   UNL     1      -4.449  -8.100   1.579  0.00  0.00    +0.000 A 
ATOM     20  C   UNL     1      -4.515  -7.093   2.523  0.00  0.00    +0.000 A 
ATOM     21  C   UNL     1      -4.527  -5.773   2.120  0.00  0.00    +0.005 A 
ATOM     22  C   UNL     1      -4.474  -5.450   0.772  0.00  0.00    -0.030 A 
ATOM     23  C   UNL     1      -4.502  -3.996   0.381  0.00  0.00    +0.120 C 
ENDBRANCH  13  14
ENDBRANCH   3  13
TORSDOF 4
