REMARK  Name = ZINC12497098
REMARK  10 active torsions:
REMARK  status: ('A' for Active; 'I' for Inactive)
REMARK    1  A    between atoms: C_1  and  C_2
REMARK    2  A    between atoms: C_2  and  O_3
REMARK    3  A    between atoms: O_3  and  C_4
REMARK    4  A    between atoms: C_4  and  C_6
REMARK    5  A    between atoms: C_6  and  C_33
REMARK    6  A    between atoms: C_11  and  C_13
REMARK    7  A    between atoms: C_16  and  O_21
REMARK    8  A    between atoms: C_17  and  O_19
REMARK    9  A    between atoms: O_19  and  C_20
REMARK   10  A    between atoms: N_24  and  C_27
REMARK                            x       y       z     vdW  Elec       q    Type
REMARK                         _______ _______ _______ _____ _____    ______ ____
ROOT
ATOM      1  C   UNL     1       0.298   0.725  -2.160  0.00  0.00    +0.070 C 
ATOM      2  C   UNL     1      -0.588   1.683  -1.368  0.00  0.00    +0.090 C 
ATOM      3  C   UNL     1      -0.097   1.284   0.080  0.00  0.00    +0.078 C 
ATOM      4  C   UNL     1       1.367   1.328  -0.072  0.00  0.00    -0.026 C 
ATOM      5  C   UNL     1      -1.153   1.832   0.893  0.00  0.00    +0.229 C 
ATOM      6  O   UNL     1      -1.057   2.320   1.999  0.00  0.00    -0.275 OA
ATOM      7  N   UNL     1      -2.291   1.680   0.164  0.00  0.00    -0.210 N 
ATOM      8  C   UNL     1      -2.039   1.361  -1.140  0.00  0.00    +0.229 C 
ATOM      9  O   UNL     1      -2.823   0.911  -1.947  0.00  0.00    -0.275 OA
ATOM     10  N   UNL     1       1.561   0.631  -1.382  0.00  0.00    +0.398 N 
ATOM     11  H   UNL     1       2.323   1.080  -1.903  0.00  0.00    -0.083 HD
ATOM     12  H   UNL     1       1.794  -0.356  -1.217  0.00  0.00    -0.083 HD
ENDROOT
BRANCH   4  13
ATOM     13  C   UNL     1       2.045   0.581   1.048  0.00  0.00    -0.057 A 
ATOM     14  C   UNL     1       2.264  -0.779   0.935  0.00  0.00    +0.006 A 
ATOM     15  C   UNL     1       2.890  -1.468   1.958  0.00  0.00    +0.049 A 
ATOM     16  C   UNL     1       3.289  -0.797   3.102  0.00  0.00    +0.158 A 
ATOM     17  C   UNL     1       3.063   0.571   3.218  0.00  0.00    +0.161 A 
ATOM     18  C   UNL     1       2.440   1.257   2.187  0.00  0.00    +0.051 A 
BRANCH  17  19
ATOM     19  O   UNL     1       3.453   1.234   4.339  0.00  0.00    -0.491 OA
ATOM     20  C   UNL     1       3.188   2.638   4.388  0.00  0.00    +0.277 C 
ENDBRANCH  17  19
BRANCH  16  21
ATOM     21  O   UNL     1       3.901  -1.474   4.111  0.00  0.00    -0.503 OA
ATOM     22  H   UNL     1       3.292  -1.831   4.771  0.00  0.00    +0.292 HD
ENDBRANCH  16  21
ENDBRANCH   4  13
BRANCH   7  23
ATOM     23  C   UNL     1      -3.581   1.838   0.690  0.00  0.00    +0.044 A 
ATOM     24  C   UNL     1      -4.690   1.673  -0.129  0.00  0.00    +0.024 A 
ATOM     25  C   UNL     1      -5.960   1.823   0.394  0.00  0.00    +0.002 A 
ATOM     26  C   UNL     1      -6.127   2.148   1.727  0.00  0.00    +0.000 A 
ATOM     27  C   UNL     1      -5.024   2.318   2.543  0.00  0.00    +0.002 A 
ATOM     28  C   UNL     1      -3.752   2.164   2.029  0.00  0.00    +0.024 A 
ENDBRANCH   7  23
BRANCH   1  29
ATOM     29  C   UNL     1      -0.357  -0.629  -2.262  0.00  0.00    -0.047 A 
ATOM     30  C   UNL     1      -0.217  -1.544  -1.235  0.00  0.00    +0.003 A 
ATOM     31  C   UNL     1      -0.822  -2.784  -1.327  0.00  0.00    +0.000 A 
ATOM     32  C   UNL     1      -1.557  -3.113  -2.450  0.00  0.00    +0.000 A 
ATOM     33  C   UNL     1      -1.692  -2.200  -3.479  0.00  0.00    +0.000 A 
ATOM     34  C   UNL     1      -1.092  -0.958  -3.385  0.00  0.00    +0.003 A 
ENDBRANCH   1  29
BRANCH   1  35
ATOM     35  C   UNL     1       0.566   1.278  -3.535  0.00  0.00    +0.301 C 
ATOM     36  O   UNL     1      -0.233   2.023  -4.053  0.00  0.00    -0.252 OA
BRANCH  35  37
ATOM     37  O   UNL     1       1.692   0.945  -4.185  0.00  0.00    -0.466 OA
BRANCH  37  39
ATOM     38  C   UNL     1       3.212   1.026  -6.086  0.00  0.00    +0.048 C 
ATOM     39  C   UNL     1       1.884   1.516  -5.506  0.00  0.00    +0.228 C 
ENDBRANCH  37  39
ENDBRANCH  35  37
ENDBRANCH   1  35
TORSDOF 8
