REMARK  Name = ZINC10069444
REMARK  11 active torsions:
REMARK  status: ('A' for Active; 'I' for Inactive)
REMARK    1  A    between atoms: C_1  and  C_2
REMARK    2  A    between atoms: C_2  and  O_3
REMARK    3  A    between atoms: O_3  and  C_4
REMARK    4  A    between atoms: C_7  and  C_32
REMARK    5  A    between atoms: C_9  and  S_10
REMARK    6  A    between atoms: S_10  and  N_13
REMARK    7  A    between atoms: N_13  and  C_14
REMARK    8  A    between atoms: C_17  and  C_20
REMARK    9  A    between atoms: C_31  and  N_68
REMARK   10  A    between atoms: C_32  and  C_33
REMARK   11  A    between atoms: C_32  and  C_34
REMARK                            x       y       z     vdW  Elec       q    Type
REMARK                         _______ _______ _______ _____ _____    ______ ____
ROOT
ATOM      1  C   UNL     1      -4.329   5.734  -8.456  0.00  0.00    +0.048 A 
ATOM      2  C   UNL     1      -4.014   4.393  -8.272  0.00  0.00    +0.025 A 
ATOM      3  C   UNL     1      -3.260   4.003  -7.187  0.00  0.00    +0.012 A 
ATOM      4  C   UNL     1      -2.813   4.955  -6.271  0.00  0.00    +0.002 A 
ATOM      5  C   UNL     1      -3.135   6.299  -6.453  0.00  0.00    +0.012 A 
ATOM      6  C   UNL     1      -3.884   6.686  -7.544  0.00  0.00    +0.025 A 
ENDROOT
BRANCH   4   7
ATOM      7  C   UNL     1      -2.001   4.538  -5.103  0.00  0.00    +0.093 A 
ATOM      8  C   UNL     1      -1.552   5.493  -4.183  0.00  0.00    +0.033 A 
ATOM      9  C   UNL     1      -0.798   5.055  -3.110  0.00  0.00    +0.047 A 
ATOM     10  C   UNL     1      -0.532   3.688  -3.010  0.00  0.00    +0.144 A 
ATOM     11  N   UNL     1      -0.994   2.856  -3.931  0.00  0.00    -0.134 NA
ATOM     12  N   UNL     1      -1.698   3.259  -4.925  0.00  0.00    -0.147 NA
ATOM     13  N   UNL     1       0.223   3.201  -1.948  0.00  0.00    -0.317 N 
ATOM     14  C   UNL     1       0.380   1.743  -2.038  0.00  0.00    +0.088 C 
ATOM     15  C   UNL     1       1.280   1.258  -0.899  0.00  0.00    -0.060 C 
ATOM     16  C   UNL     1       0.528   3.100   0.479  0.00  0.00    -0.060 C 
ATOM     17  C   UNL     1      -0.372   3.585  -0.660  0.00  0.00    +0.088 C 
ATOM     18  C   UNL     1       1.483   1.128   1.511  0.00  0.00    -0.096 C 
ATOM     19  N   UNL     1       0.660   1.631   0.390  0.00  0.00    +0.380 N 
ATOM     20  H   UNL     1      -0.274   1.208   0.446  0.00  0.00    -0.082 HD
ENDBRANCH   4   7
BRANCH   1  21
ATOM     21  N   UNL     1      -5.091   6.127  -9.556  0.00  0.00    -0.216 N 
ATOM     22  H   UNL     1      -4.879   5.787 -10.439  0.00  0.00    +0.174 HD
BRANCH  21  23
ATOM     23  S   UNL     1      -6.359   7.174  -9.354  0.00  0.00    +0.076 S 
ATOM     24  O   UNL     1      -6.942   7.358 -10.636  0.00  0.00    -0.150 OA
ATOM     25  O   UNL     1      -7.103   6.700  -8.239  0.00  0.00    -0.150 OA
BRANCH  23  31
ATOM     26  C   UNL     1      -4.867   9.428  -9.762  0.00  0.00    +0.147 A 
ATOM     27  C   UNL     1      -4.334  10.653  -9.387  0.00  0.00    +0.048 A 
ATOM     28  C   UNL     1      -4.614  11.174  -8.139  0.00  0.00    +0.007 A 
ATOM     29  C   UNL     1      -5.425  10.476  -7.263  0.00  0.00    -0.043 A 
ATOM     30  C   UNL     1      -5.961   9.257  -7.636  0.00  0.00    +0.036 A 
ATOM     31  C   UNL     1      -5.680   8.729  -8.881  0.00  0.00    +0.150 A 
BRANCH  29  32
ATOM     32  C   UNL     1      -5.729  11.046  -5.902  0.00  0.00    +0.013 C 
ATOM     33  C   UNL     1      -4.424  11.238  -5.126  0.00  0.00    +0.012 C 
ATOM     34  C   UNL     1      -6.431  12.396  -6.060  0.00  0.00    +0.012 C 
ENDBRANCH  29  32
BRANCH  26  35
ATOM     35  O   UNL     1      -4.593   8.913 -10.990  0.00  0.00    -0.490 OA
BRANCH  35  37
ATOM     36  C   UNL     1      -3.743   9.047 -13.248  0.00  0.00    +0.048 C 
ATOM     37  C   UNL     1      -3.846   9.738 -11.887  0.00  0.00    +0.226 C 
ENDBRANCH  35  37
ENDBRANCH  26  35
ENDBRANCH  23  31
ENDBRANCH  21  23
ENDBRANCH   1  21
TORSDOF 7
