REMARK  Name = ZINC12437167
REMARK  8 active torsions:
REMARK  status: ('A' for Active; 'I' for Inactive)
REMARK    1  A    between atoms: C_1  and  C_2
REMARK    2  A    between atoms: N_13  and  C_19
REMARK    3  A    between atoms: C_19  and  C_20
REMARK    4  A    between atoms: C_20  and  C_22
REMARK    5  A    between atoms: C_20  and  O_31
REMARK    6  A    between atoms: C_22  and  N_23
REMARK    7  A    between atoms: N_23  and  C_24
REMARK    8  A    between atoms: C_24  and  C_25
REMARK                            x       y       z     vdW  Elec       q    Type
REMARK                         _______ _______ _______ _____ _____    ______ ____
ROOT
ATOM      1  C   UNL     1       0.258   1.436  -0.263  0.00  0.00    +0.044 C 
ATOM      2  C   UNL     1       0.259  -0.070  -0.223  0.00  0.00    -0.050 A 
ATOM      3  C   UNL     1       0.354  -0.773  -1.412  0.00  0.00    +0.005 A 
ATOM      4  C   UNL     1       0.361  -2.156  -1.453  0.00  0.00    +0.026 A 
ATOM      5  C   UNL     1       0.267  -2.829  -0.237  0.00  0.00    +0.050 A 
ATOM      6  C   UNL     1       0.171  -2.101   0.987  0.00  0.00    +0.004 A 
ATOM      7  C   UNL     1       0.171  -0.702   0.992  0.00  0.00    +0.013 A 
ATOM      8  C   UNL     1       0.097  -3.086   2.031  0.00  0.00    -0.017 A 
ATOM      9  C   UNL     1       0.170  -4.290   1.428  0.00  0.00    +0.040 A 
ATOM     10  N   UNL     1       0.240  -4.156   0.070  0.00  0.00    -0.341 N 
ATOM     11  C   UNL     1       0.259  -5.334  -0.812  0.00  0.00    +0.137 C 
ATOM     12  C   UNL     1       0.598  -6.562   0.041  0.00  0.00    +0.106 C 
ATOM     13  N   UNL     1      -0.249  -6.628   1.241  0.00  0.00    -0.290 NA
ATOM     14  C   UNL     1       0.134  -5.582   2.212  0.00  0.00    +0.104 C 
ATOM     15  C   UNL     1      -0.922  -5.450   3.298  0.00  0.00    +0.025 C 
ATOM     16  C   UNL     1      -1.015  -4.108   3.982  0.00  0.00    +0.007 C 
ATOM     17  C   UNL     1      -0.042  -3.030   3.527  0.00  0.00    +0.037 C 
ENDROOT
BRANCH  13  18
ATOM     18  C   UNL     1      -0.191  -7.962   1.854  0.00  0.00    +0.114 C 
BRANCH  18  19
ATOM     19  C   UNL     1      -1.070  -8.928   1.057  0.00  0.00    +0.112 C 
BRANCH  19  20
ATOM     20  O   UNL     1      -0.510  -9.119  -0.244  0.00  0.00    -0.392 OA
ATOM     21  H   UNL     1       0.385  -9.487  -0.236  0.00  0.00    +0.210 HD
ENDBRANCH  19  20
BRANCH  19  22
ATOM     22  C   UNL     1      -1.140 -10.272   1.785  0.00  0.00    -0.049 C 
BRANCH  22  23
ATOM     23  N   UNL     1      -1.984 -11.200   1.020  0.00  0.00    +0.383 N 
ATOM     24  H   UNL     1      -2.913 -10.816   0.932  0.00  0.00    -0.085 HD
ATOM     25  H   UNL     1      -1.588 -11.335   0.101  0.00  0.00    -0.085 HD
BRANCH  23  26
ATOM     26  C   UNL     1      -2.051 -12.490   1.718  0.00  0.00    -0.047 C 
BRANCH  26  27
ATOM     27  C   UNL     1      -2.917 -13.442   0.933  0.00  0.00    -0.064 A 
ATOM     28  C   UNL     1      -4.277 -13.497   1.173  0.00  0.00    +0.002 A 
ATOM     29  C   UNL     1      -5.071 -14.370   0.453  0.00  0.00    +0.000 A 
ATOM     30  C   UNL     1      -4.505 -15.187  -0.507  0.00  0.00    +0.000 A 
ATOM     31  C   UNL     1      -3.145 -15.131  -0.748  0.00  0.00    +0.000 A 
ATOM     32  C   UNL     1      -2.352 -14.255  -0.031  0.00  0.00    +0.002 A 
ENDBRANCH  26  27
ENDBRANCH  23  26
ENDBRANCH  22  23
ENDBRANCH  19  22
ENDBRANCH  18  19
ENDBRANCH  13  18
TORSDOF 7
