REMARK  Name = ZINC04322150
REMARK  6 active torsions:
REMARK  status: ('A' for Active; 'I' for Inactive)
REMARK    1  A    between atoms: C_4  and  C_12
REMARK    2  A    between atoms: C_5  and  C_7
REMARK    3  A    between atoms: N_14  and  N_15
REMARK    4  A    between atoms: N_15  and  C_16
REMARK    5  A    between atoms: C_16  and  N_18
REMARK    6  A    between atoms: N_18  and  C_19
REMARK                            x       y       z     vdW  Elec       q    Type
REMARK                         _______ _______ _______ _____ _____    ______ ____
ROOT
ATOM      1  C   UNL     1       3.632   3.644   0.321  0.00  0.00    +0.261 C 
ATOM      2  O   UNL     1       3.610   2.490   0.703  0.00  0.00    -0.269 OA
ATOM      3  N   UNL     1       4.753   4.379   0.464  0.00  0.00    -0.231 N 
ATOM      4  H   UNL     1       4.772   5.299   0.159  0.00  0.00    +0.173 HD
ENDROOT
BRANCH   1   8
ATOM      5  C   UNL     1       0.173   5.367  -1.461  0.00  0.00    +0.001 A 
ATOM      6  C   UNL     1       1.348   6.095  -1.378  0.00  0.00    +0.001 A 
ATOM      7  C   UNL     1       2.474   5.539  -0.803  0.00  0.00    +0.014 A 
ATOM      8  C   UNL     1       2.431   4.241  -0.299  0.00  0.00    +0.048 A 
ATOM      9  C   UNL     1       1.238   3.501  -0.388  0.00  0.00    +0.025 A 
ATOM     10  C   UNL     1       0.113   4.077  -0.970  0.00  0.00    +0.012 A 
BRANCH   9  11
ATOM     11  C   UNL     1       1.179   2.119   0.140  0.00  0.00    +0.100 C 
ATOM     12  C   UNL     1       0.177   0.520   1.666  0.00  0.00    +0.115 C 
ATOM     13  C   UNL     1       0.773  -0.556   0.756  0.00  0.00    +0.040 C 
ATOM     14  C   UNL     1       2.181  -0.110   0.334  0.00  0.00    +0.104 C 
ATOM     15  N   UNL     1       2.042   1.174  -0.371  0.00  0.00    -0.330 N 
ATOM     16  H   UNL     1       2.552   1.353  -1.177  0.00  0.00    +0.147 HD
ATOM     17  N   UNL     1       0.263   1.913   1.092  0.00  0.00    -0.373 N 
ATOM     18  H   UNL     1      -0.354   2.667   1.416  0.00  0.00    +0.161 HD
ENDBRANCH   9  11
ENDBRANCH   1   8
BRANCH   3  19
ATOM     19  N   UNL     1       5.892   3.813   1.052  0.00  0.00    -0.245 N 
ATOM     20  H   UNL     1       5.874   2.892   1.356  0.00  0.00    +0.172 HD
BRANCH  19  21
ATOM     21  C   UNL     1       7.013   4.547   1.194  0.00  0.00    +0.151 C 
ATOM     22  S   UNL     1       8.405   3.856   1.912  0.00  0.00    -0.017 S 
BRANCH  21  23
ATOM     23  N   UNL     1       7.038   5.827   0.771  0.00  0.00    -0.295 N 
ATOM     24  H   UNL     1       6.237   6.232   0.403  0.00  0.00    +0.154 HD
BRANCH  23  25
ATOM     25  C   UNL     1       8.220   6.571   0.862  0.00  0.00    +0.051 A 
ATOM     26  C   UNL     1       9.443   5.971   0.591  0.00  0.00    +0.025 A 
ATOM     27  C   UNL     1      10.607   6.708   0.678  0.00  0.00    +0.002 A 
ATOM     28  C   UNL     1      10.558   8.041   1.044  0.00  0.00    +0.002 A 
ATOM     29  C   UNL     1       9.343   8.641   1.319  0.00  0.00    +0.022 A 
ATOM     30  C   UNL     1       8.173   7.910   1.229  0.00  0.00    +0.062 A 
ATOM     31 CL   UNL     1       6.648   8.663   1.576  0.00  0.00    -0.082 Cl
ENDBRANCH  23  25
ENDBRANCH  21  23
ENDBRANCH  19  21
ENDBRANCH   3  19
TORSDOF 6
