REMARK  Name = ZINC29134124
REMARK  13 active torsions:
REMARK  status: ('A' for Active; 'I' for Inactive)
REMARK    1  A    between atoms: C_1  and  C_2
REMARK    2  A    between atoms: C_6  and  C_8
REMARK    3  A    between atoms: C_8  and  N_9
REMARK    4  A    between atoms: C_12  and  C_25
REMARK    5  A    between atoms: N_18  and  C_19
REMARK    6  A    between atoms: C_19  and  C_20
REMARK    7  A    between atoms: C_20  and  C_22
REMARK    8  A    between atoms: C_20  and  O_24
REMARK    9  A    between atoms: C_22  and  O_23
REMARK   10  A    between atoms: C_25  and  N_26
REMARK   11  A    between atoms: N_26  and  C_27
REMARK   12  A    between atoms: C_29  and  C_34
REMARK   13  A    between atoms: C_31  and  C_33
REMARK                            x       y       z     vdW  Elec       q    Type
REMARK                         _______ _______ _______ _____ _____    ______ ____
ROOT
ATOM      1  N   UNL     1      -4.683   3.856  -1.980  0.00  0.00    -0.307 N 
ATOM      2  C   UNL     1      -4.644   4.627  -0.829  0.00  0.00    +0.069 A 
ATOM      3  C   UNL     1      -4.570   4.332   0.523  0.00  0.00    +0.033 A 
ATOM      4  C   UNL     1      -4.549   5.354   1.449  0.00  0.00    -0.028 A 
ATOM      5  C   UNL     1      -4.600   6.677   1.036  0.00  0.00    +0.007 A 
ATOM      6  C   UNL     1      -4.674   6.989  -0.303  0.00  0.00    +0.028 A 
ATOM      7  C   UNL     1      -4.696   5.965  -1.253  0.00  0.00    +0.066 A 
ATOM      8  N   UNL     1      -4.764   5.952  -2.611  0.00  0.00    -0.327 N 
ATOM      9  C   UNL     1      -4.750   4.715  -3.040  0.00  0.00    +0.175 A 
ATOM     10  N   UNL     1      -4.800   4.335  -4.365  0.00  0.00    -0.314 N 
ATOM     11  H   UNL     1      -4.712   3.399  -4.605  0.00  0.00    +0.149 HD
ATOM     12  H   UNL     1      -4.810   6.739  -3.175  0.00  0.00    +0.169 HD
ENDROOT
BRANCH   1  13
ATOM     13  C   UNL     1      -4.652   2.393  -2.047  0.00  0.00    +0.182 C 
BRANCH  13  19
ATOM     14  C   UNL     1      -8.371   0.916  -4.841  0.00  0.00    +0.063 C 
ATOM     15  C   UNL     1      -7.817   1.167  -3.462  0.00  0.00    +0.013 A 
ATOM     16  C   UNL     1      -8.602   0.910  -2.354  0.00  0.00    +0.024 A 
ATOM     17  C   UNL     1      -8.086   1.144  -1.090  0.00  0.00    +0.054 A 
ATOM     18  C   UNL     1      -6.787   1.632  -0.986  0.00  0.00    +0.200 A 
ATOM     19  C   UNL     1      -6.061   1.865  -2.144  0.00  0.00    +0.083 A 
ATOM     20  N   UNL     1      -6.587   1.624  -3.329  0.00  0.00    -0.358 N 
ATOM     21  O   UNL     1      -6.238   1.877   0.233  0.00  0.00    -0.286 OA
ATOM     22  H   UNL     1      -6.057   1.792  -4.123  0.00  0.00    +0.165 HD
ENDBRANCH  13  19
ENDBRANCH   1  13
BRANCH  10  23
ATOM     23  C   UNL     1      -4.984   5.345  -5.410  0.00  0.00    +0.137 C 
BRANCH  23  24
ATOM     24  C   UNL     1      -5.003   4.664  -6.779  0.00  0.00    +0.157 C 
BRANCH  24  25
ATOM     25  O   UNL     1      -3.765   3.982  -6.990  0.00  0.00    -0.388 OA
ATOM     26  H   UNL     1      -2.990   4.560  -6.969  0.00  0.00    +0.210 HD
ENDBRANCH  24  25
BRANCH  24  27
ATOM     27  C   UNL     1      -5.196   5.719  -7.871  0.00  0.00    +0.188 C 
BRANCH  27  28
ATOM     28  O   UNL     1      -5.331   5.074  -9.139  0.00  0.00    -0.392 OA
ATOM     29  H   UNL     1      -5.456   5.683  -9.879  0.00  0.00    +0.210 HD
ENDBRANCH  27  28
ENDBRANCH  24  27
ENDBRANCH  23  24
ENDBRANCH  10  23
BRANCH   4  30
ATOM     30  C   UNL     1      -4.469   5.031   2.919  0.00  0.00    +0.137 C 
BRANCH  30  31
ATOM     31  N   UNL     1      -3.064   4.959   3.328  0.00  0.00    -0.340 N 
ATOM     32  H   UNL     1      -2.361   5.111   2.677  0.00  0.00    +0.146 HD
BRANCH  31  33
ATOM     33  C   UNL     1      -2.737   4.671   4.655  0.00  0.00    +0.028 A 
ATOM     34  C   UNL     1      -3.742   4.447   5.587  0.00  0.00    +0.026 A 
ATOM     35  C   UNL     1      -3.415   4.162   6.898  0.00  0.00    -0.048 A 
ATOM     36  C   UNL     1      -2.089   4.100   7.284  0.00  0.00    +0.006 A 
ATOM     37  C   UNL     1      -1.085   4.322   6.358  0.00  0.00    -0.048 A 
ATOM     38  C   UNL     1      -1.405   4.602   5.044  0.00  0.00    +0.026 A 
ATOM     39  C   UNL     1       0.359   4.253   6.783  0.00  0.00    +0.044 C 
ATOM     40  C   UNL     1      -4.505   3.919   7.910  0.00  0.00    +0.044 C 
ENDBRANCH  31  33
ENDBRANCH  30  31
ENDBRANCH   4  30
TORSDOF 10
