REMARK  Name = ZINC04082292
REMARK  10 active torsions:
REMARK  status: ('A' for Active; 'I' for Inactive)
REMARK    1  A    between atoms: C_1  and  C_2
REMARK    2  A    between atoms: C_2  and  C_4
REMARK    3  A    between atoms: C_2  and  C_5
REMARK    4  A    between atoms: C_5  and  C_7
REMARK    5  A    between atoms: C_5  and  N_57
REMARK    6  A    between atoms: C_12  and  C_15
REMARK    7  A    between atoms: N_17  and  C_18
REMARK    8  A    between atoms: C_18  and  C_20
REMARK    9  A    between atoms: C_18  and  C_21
REMARK   10  A    between atoms: N_23  and  C_24
REMARK                            x       y       z     vdW  Elec       q    Type
REMARK                         _______ _______ _______ _____ _____    ______ ____
ROOT
ATOM      1  C   UNL     1       3.325   4.024  -5.309  0.00  0.00    +0.217 C 
ATOM      2  O   UNL     1       2.976   3.898  -6.463  0.00  0.00    -0.275 OA
ATOM      3  N   UNL     1       4.040   5.103  -4.934  0.00  0.00    -0.304 N 
ATOM      4  H   UNL     1       4.319   5.204  -4.011  0.00  0.00    +0.149 HD
ENDROOT
BRANCH   1  10
ATOM      5  C   UNL     1      -0.065   0.954  -2.381  0.00  0.00    +0.201 C 
ATOM      6  O   UNL     1      -0.620   0.060  -2.984  0.00  0.00    -0.277 OA
ATOM      7  N   UNL     1       1.131   1.411  -2.804  0.00  0.00    -0.303 N 
ATOM      8  C   UNL     1       1.775   2.550  -2.136  0.00  0.00    +0.108 C 
ATOM      9  C   UNL     1       2.119   3.609  -3.182  0.00  0.00    +0.032 C 
ATOM     10  C   UNL     1       2.959   2.974  -4.292  0.00  0.00    +0.078 C 
ATOM     11  C   UNL     1       2.153   1.865  -4.972  0.00  0.00    +0.032 C 
ATOM     12  C   UNL     1       1.812   0.782  -3.944  0.00  0.00    +0.108 C 
BRANCH   5  13
ATOM     13  C   UNL     1      -0.713   1.554  -1.160  0.00  0.00    +0.016 C 
BRANCH  13  16
ATOM     14  H   UNL     1      -2.554   1.875  -2.022  0.00  0.00    -0.089 HD
ATOM     15  H   UNL     1      -2.408   0.393  -1.283  0.00  0.00    -0.089 HD
ATOM     16  N   UNL     1      -2.175   1.382  -1.216  0.00  0.00    +0.386 N 
ATOM     17  H   UNL     1      -2.593   1.767  -0.360  0.00  0.00    -0.089 HD
ENDBRANCH  13  16
BRANCH  13  19
ATOM     18  C   UNL     1       1.317   1.155   0.241  0.00  0.00    +0.006 C 
ATOM     19  C   UNL     1      -0.177   0.860   0.094  0.00  0.00    -0.023 C 
ATOM     20  C   UNL     1      -0.924   1.382   1.323  0.00  0.00    +0.006 C 
ENDBRANCH  13  19
ENDBRANCH   5  13
ENDBRANCH   1  10
BRANCH   3  21
ATOM     21  C   UNL     1       4.396   6.125  -5.923  0.00  0.00    +0.156 C 
ATOM     22  C   UNL     1       3.243   7.121  -6.065  0.00  0.00    +0.038 C 
BRANCH  21  23
ATOM     23  C   UNL     1       5.636   6.852  -5.469  0.00  0.00    +0.237 C 
ATOM     24  O   UNL     1       6.169   6.548  -4.423  0.00  0.00    -0.273 OA
ATOM     25  N   UNL     1       6.151   7.841  -6.226  0.00  0.00    -0.284 N 
ATOM     26  H   UNL     1       5.684   8.136  -7.023  0.00  0.00    +0.155 HD
BRANCH  25  27
ATOM     27  C   UNL     1       7.361   8.444  -5.860  0.00  0.00    +0.034 A 
ATOM     28  C   UNL     1       7.567   9.795  -6.107  0.00  0.00    +0.026 A 
ATOM     29  C   UNL     1       8.759  10.389  -5.739  0.00  0.00    +0.040 A 
ATOM     30  C   UNL     1       9.753   9.635  -5.138  0.00  0.00    +0.124 A 
ATOM     31  C   UNL     1       9.552   8.287  -4.897  0.00  0.00    +0.040 A 
ATOM     32  C   UNL     1       8.359   7.690  -5.256  0.00  0.00    +0.026 A 
ATOM     33  F   UNL     1      10.920  10.217  -4.785  0.00  0.00    -0.205 F 
ENDBRANCH  25  27
ENDBRANCH  21  23
ENDBRANCH   3  21
TORSDOF 7
