REMARK  Name = ZINC27238505
REMARK  11 active torsions:
REMARK  status: ('A' for Active; 'I' for Inactive)
REMARK    1  A    between atoms: C_1  and  C_2
REMARK    2  A    between atoms: C_2  and  O_3
REMARK    3  A    between atoms: O_3  and  C_4
REMARK    4  A    between atoms: C_7  and  C_10
REMARK    5  A    between atoms: C_10  and  C_11
REMARK    6  A    between atoms: C_10  and  C_17
REMARK    7  A    between atoms: C_10  and  O_34
REMARK    8  A    between atoms: C_17  and  C_19
REMARK    9  A    between atoms: C_17  and  O_27
REMARK   10  A    between atoms: C_19  and  N_20
REMARK   11  A    between atoms: O_27  and  C_28
REMARK                            x       y       z     vdW  Elec       q    Type
REMARK                         _______ _______ _______ _____ _____    ______ ____
ROOT
ATOM      1  C   UNL     1       4.773   0.955   0.238  0.00  0.00    +0.151 C 
ENDROOT
BRANCH   1   5
ATOM      2  C   UNL     1       2.340  -1.174   3.032  0.00  0.00    +0.121 A 
ATOM      3  C   UNL     1       3.619  -0.773   3.389  0.00  0.00    +0.046 A 
ATOM      4  C   UNL     1       4.404  -0.084   2.484  0.00  0.00    +0.010 A 
ATOM      5  C   UNL     1       3.915   0.204   1.223  0.00  0.00    -0.008 A 
ATOM      6  C   UNL     1       2.639  -0.190   0.867  0.00  0.00    +0.010 A 
ATOM      7  C   UNL     1       1.852  -0.883   1.767  0.00  0.00    +0.046 A 
BRANCH   2   8
ATOM      8  O   UNL     1       1.566  -1.851   3.921  0.00  0.00    -0.492 OA
BRANCH   8  10
ATOM      9  C   UNL     1      -0.456  -2.979   4.612  0.00  0.00    +0.048 C 
ATOM     10  C   UNL     1       0.260  -2.233   3.485  0.00  0.00    +0.225 C 
ENDBRANCH   8  10
ENDBRANCH   2   8
ENDBRANCH   1   5
BRANCH   1  11
ATOM     11  C   UNL     1       4.885   0.161  -1.038  0.00  0.00    -0.008 A 
ATOM     12  C   UNL     1       3.841   0.158  -1.944  0.00  0.00    +0.007 A 
ATOM     13  C   UNL     1       3.946  -0.567  -3.116  0.00  0.00    +0.000 A 
ATOM     14  C   UNL     1       5.090  -1.296  -3.378  0.00  0.00    +0.000 A 
ATOM     15  C   UNL     1       6.132  -1.298  -2.470  0.00  0.00    +0.000 A 
ATOM     16  C   UNL     1       6.030  -0.569  -1.300  0.00  0.00    +0.007 A 
ENDBRANCH   1  11
BRANCH   1  17
ATOM     17  O   UNL     1       6.075   1.151   0.793  0.00  0.00    -0.376 OA
ATOM     18  H   UNL     1       6.845   1.684   0.215  0.00  0.00    +0.211 HD
ENDBRANCH   1  17
BRANCH   1  19
ATOM     19  C   UNL     1       4.137   2.314  -0.061  0.00  0.00    +0.198 C 
BRANCH  19  20
ATOM     20  C   UNL     1       4.873   2.977  -1.227  0.00  0.00    -0.030 C 
BRANCH  20  21
ATOM     21  N   UNL     1       6.288   3.157  -0.873  0.00  0.00    +0.382 N 
ATOM     22  C   UNL     1       6.443   4.169   0.195  0.00  0.00    -0.079 C 
ATOM     23  C   UNL     1       7.874   4.586   0.402  0.00  0.00    -0.019 C 
ATOM     24  C   UNL     1       8.145   5.845  -0.447  0.00  0.00    -0.002 C 
ATOM     25  C   UNL     1       8.357   5.526  -1.855  0.00  0.00    -0.002 C 
ATOM     26  C   UNL     1       7.125   4.849  -2.491  0.00  0.00    -0.019 C 
ATOM     27  C   UNL     1       7.109   3.402  -2.079  0.00  0.00    -0.079 C 
ATOM     28  H   UNL     1       6.669   2.218  -0.444  0.00  0.00    -0.082 HD
ENDBRANCH  20  21
ENDBRANCH  19  20
BRANCH  19  29
ATOM     29  O   UNL     1       2.763   2.130  -0.409  0.00  0.00    -0.487 OA
BRANCH  29  30
ATOM     30  C   UNL     1       1.935   3.194  -0.239  0.00  0.00    +0.121 A 
ATOM     31  C   UNL     1       0.584   3.078  -0.531  0.00  0.00    +0.045 A 
ATOM     32  C   UNL     1      -0.254   4.163  -0.362  0.00  0.00    +0.004 A 
ATOM     33  C   UNL     1       0.251   5.361   0.109  0.00  0.00    +0.000 A 
ATOM     34  C   UNL     1       1.597   5.479   0.402  0.00  0.00    +0.004 A 
ATOM     35  C   UNL     1       2.440   4.399   0.229  0.00  0.00    +0.045 A 
ENDBRANCH  29  30
ENDBRANCH  19  29
ENDBRANCH   1  19
TORSDOF 10
