REMARK  Name = ZINC39676316
REMARK  4 active torsions:
REMARK  status: ('A' for Active; 'I' for Inactive)
REMARK    1  A    between atoms: C_11  and  C_13
REMARK    2  A    between atoms: C_13  and  N_14
REMARK    3  A    between atoms: C_15  and  C_17
REMARK    4  A    between atoms: C_28  and  C_30
REMARK                            x       y       z     vdW  Elec       q    Type
REMARK                         _______ _______ _______ _____ _____    ______ ____
ROOT
ATOM      1  C   UNL     1       8.575  -0.163   0.539  0.00  0.00    +0.100 C 
ATOM      2  C   UNL     1       8.525   0.102  -0.982  0.00  0.00    +0.121 C 
ATOM      3  N   UNL     1       9.937   0.332  -1.369  0.00  0.00    -0.300 N 
ATOM      4  C   UNL     1      10.703  -0.653  -0.568  0.00  0.00    +0.115 C 
ATOM      5  C   UNL     1      10.006  -0.659   0.807  0.00  0.00    -0.004 C 
ATOM      6  C   UNL     1       9.977  -2.074   1.376  0.00  0.00    -0.010 C 
ATOM      7  C   UNL     1      11.407  -2.523   1.689  0.00  0.00    -0.082 C 
ATOM      8  N   UNL     1      12.013  -1.598   2.654  0.00  0.00    +0.379 N 
ATOM      9  C   UNL     1      12.122  -0.259   2.063  0.00  0.00    -0.082 C 
ATOM     10  C   UNL     1      10.722   0.286   1.766  0.00  0.00    -0.010 C 
ATOM     11  C   UNL     1      10.416   1.233  -2.249  0.00  0.00    +0.219 C 
ATOM     12  O   UNL     1       9.665   2.030  -2.771  0.00  0.00    -0.275 OA
ATOM     13  H   UNL     1      11.437  -1.553   3.481  0.00  0.00    -0.086 HD
ATOM     14  H   UNL     1      12.932  -1.930   2.904  0.00  0.00    -0.086 HD
ENDROOT
BRANCH  11  15
ATOM     15  C   UNL     1      11.885   1.250  -2.586  0.00  0.00    +0.079 C 
ATOM     16  C   UNL     1      12.290   2.653  -3.055  0.00  0.00    +0.017 C 
ATOM     17  C   UNL     1      13.811   2.688  -3.217  0.00  0.00    +0.027 C 
ATOM     18  C   UNL     1      14.272   1.513  -4.028  0.00  0.00    -0.031 C 
ATOM     19  C   UNL     1      13.557   0.455  -4.243  0.00  0.00    -0.030 C 
ATOM     20  C   UNL     1      12.165   0.257  -3.716  0.00  0.00    +0.039 C 
ENDBRANCH  11  15
BRANCH   1  22
ATOM     21  N   UNL     1       7.038  -1.229   2.158  0.00  0.00    -0.308 N 
ATOM     22  C   UNL     1       7.573  -1.222   0.921  0.00  0.00    +0.219 C 
ATOM     23  O   UNL     1       7.247  -2.067   0.114  0.00  0.00    -0.275 OA
ATOM     24  H   UNL     1       7.299  -0.553   2.803  0.00  0.00    +0.149 HD
BRANCH  21  25
ATOM     25  C   UNL     1       6.064  -2.258   2.529  0.00  0.00    +0.178 C 
BRANCH  25  36
ATOM     26  C   UNL     1       5.027  -0.329   8.532  0.00  0.00    +0.001 A 
ATOM     27  C   UNL     1       5.952   0.501   7.911  0.00  0.00    +0.002 A 
ATOM     28  C   UNL     1       6.334   0.279   6.607  0.00  0.00    +0.028 A 
ATOM     29  C   UNL     1       5.787  -0.793   5.899  0.00  0.00    +0.078 A 
ATOM     30  C   UNL     1       4.848  -1.635   6.534  0.00  0.00    +0.065 A 
ATOM     31  C   UNL     1       4.474  -1.393   7.854  0.00  0.00    +0.015 A 
ATOM     32  C   UNL     1       4.290  -2.754   5.761  0.00  0.00    +0.259 A 
ATOM     33  O   UNL     1       3.476  -3.517   6.249  0.00  0.00    -0.267 OA
ATOM     34  N   UNL     1       4.717  -2.904   4.485  0.00  0.00    -0.309 N 
ATOM     35  H   UNL     1       4.371  -3.631   3.945  0.00  0.00    +0.170 HD
ATOM     36  C   UNL     1       5.625  -2.044   3.954  0.00  0.00    +0.128 A 
ATOM     37  N   UNL     1       6.135  -1.048   4.613  0.00  0.00    -0.232 NA
ENDBRANCH  25  36
ENDBRANCH  21  25
ENDBRANCH   1  22
TORSDOF 4
