REMARK  Name = ZINC12635251
REMARK  11 active torsions:
REMARK  status: ('A' for Active; 'I' for Inactive)
REMARK    1  A    between atoms: C_1  and  C_2
REMARK    2  A    between atoms: C_2  and  C_4
REMARK    3  A    between atoms: C_2  and  N_53
REMARK    4  A    between atoms: C_7  and  S_16
REMARK    5  A    between atoms: N_8  and  C_9
REMARK    6  A    between atoms: S_16  and  C_17
REMARK    7  A    between atoms: C_17  and  C_19
REMARK    8  A    between atoms: C_17  and  C_20
REMARK    9  A    between atoms: N_22  and  C_23
REMARK   10  A    between atoms: C_30  and  N_53
REMARK   11  A    between atoms: C_31  and  N_53
REMARK                            x       y       z     vdW  Elec       q    Type
REMARK                         _______ _______ _______ _____ _____    ______ ____
ROOT
ATOM      1  C   UNL     1      -2.714  11.941   0.474  0.00  0.00    +0.125 A 
ATOM      2  N   UNL     1      -1.538  11.624   0.011  0.00  0.00    -0.135 NA
ATOM      3  N   UNL     1      -1.416  10.346  -0.050  0.00  0.00    -0.122 NA
ATOM      4  C   UNL     1      -2.521   9.771   0.366  0.00  0.00    +0.197 A 
ATOM      5  N   UNL     1      -3.385  10.772   0.718  0.00  0.00    -0.275 N 
ENDROOT
BRANCH   5   6
ATOM      6  C   UNL     1      -4.686  10.631   1.223  0.00  0.00    +0.050 A 
ATOM      7  C   UNL     1      -5.771  11.086   0.487  0.00  0.00    +0.029 A 
ATOM      8  C   UNL     1      -7.051  10.942   0.983  0.00  0.00    +0.040 A 
ATOM      9  C   UNL     1      -7.253  10.352   2.220  0.00  0.00    +0.124 A 
ATOM     10  C   UNL     1      -6.171   9.902   2.958  0.00  0.00    +0.040 A 
ATOM     11  C   UNL     1      -4.890  10.040   2.463  0.00  0.00    +0.029 A 
ATOM     12  F   UNL     1      -8.506  10.216   2.707  0.00  0.00    -0.205 F 
ENDBRANCH   5   6
BRANCH   1  14
ATOM     13  C   UNL     1      -2.588  13.930   1.951  0.00  0.00    -0.005 C 
ATOM     14  C   UNL     1      -3.239  13.336   0.700  0.00  0.00    -0.003 C 
BRANCH  14  17
ATOM     15  C   UNL     1      -3.517  15.509  -0.332  0.00  0.00    -0.096 C 
ATOM     16  C   UNL     1      -1.466  14.266  -0.662  0.00  0.00    -0.096 C 
ATOM     17  N   UNL     1      -2.930  14.161  -0.487  0.00  0.00    +0.382 N 
ATOM     18  H   UNL     1      -3.334  13.715  -1.318  0.00  0.00    -0.082 HD
ENDBRANCH  14  17
ENDBRANCH   1  14
BRANCH   4  19
ATOM     19  S   UNL     1      -2.830   8.039   0.462  0.00  0.00    -0.073 S 
BRANCH  19  20
ATOM     20  C   UNL     1      -1.254   7.404  -0.162  0.00  0.00    +0.137 C 
ATOM     21  C   UNL     1      -1.083   7.814  -1.627  0.00  0.00    +0.029 C 
BRANCH  20  22
ATOM     22  C   UNL     1      -1.241   5.901  -0.057  0.00  0.00    +0.230 C 
ATOM     23  O   UNL     1      -2.285   5.285  -0.050  0.00  0.00    -0.274 OA
ATOM     24  N   UNL     1      -0.068   5.242   0.030  0.00  0.00    -0.285 N 
ATOM     25  H   UNL     1       0.763   5.738   0.102  0.00  0.00    +0.155 HD
BRANCH  24  26
ATOM     26  C   UNL     1      -0.050   3.843   0.017  0.00  0.00    +0.034 A 
ATOM     27  C   UNL     1      -0.989   3.142  -0.727  0.00  0.00    +0.023 A 
ATOM     28  C   UNL     1      -0.969   1.761  -0.738  0.00  0.00    +0.003 A 
ATOM     29  C   UNL     1      -0.014   1.076  -0.009  0.00  0.00    +0.015 A 
ATOM     30  C   UNL     1       0.920   1.771   0.739  0.00  0.00    +0.020 A 
ATOM     31  C   UNL     1       0.908   3.154   0.749  0.00  0.00    +0.038 A 
ATOM     32 BR   UNL     1       2.218   0.830   1.741  0.00  0.00    -0.050 Br
ENDBRANCH  24  26
ENDBRANCH  20  22
ENDBRANCH  19  20
ENDBRANCH   4  19
TORSDOF 7
