REMARK  Name = ZINC20884844
REMARK  12 active torsions:
REMARK  status: ('A' for Active; 'I' for Inactive)
REMARK    1  A    between atoms: C_1  and  C_2
REMARK    2  A    between atoms: C_2  and  C_3
REMARK    3  A    between atoms: C_2  and  C_4
REMARK    4  A    between atoms: C_2  and  C_5
REMARK    5  A    between atoms: C_8  and  C_11
REMARK    6  A    between atoms: C_16  and  C_26
REMARK    7  A    between atoms: C_28  and  O_36
REMARK    8  A    between atoms: C_29  and  O_34
REMARK    9  A    between atoms: C_30  and  O_32
REMARK   10  A    between atoms: O_32  and  C_33
REMARK   11  A    between atoms: O_34  and  C_35
REMARK   12  A    between atoms: O_36  and  C_37
REMARK                            x       y       z     vdW  Elec       q    Type
REMARK                         _______ _______ _______ _____ _____    ______ ____
ROOT
ATOM      1  C   UNL     1      -0.965   2.254   8.720  0.00  0.00    +0.032 C 
ATOM      2  C   UNL     1      -0.479   0.897   9.226  0.00  0.00    +0.059 C 
ATOM      3  C   UNL     1       0.276   0.171   8.126  0.00  0.00    +0.017 C 
ATOM      4  C   UNL     1       0.983   0.860   7.215  0.00  0.00    +0.036 C 
ATOM      5  C   UNL     1       1.787   0.267   6.083  0.00  0.00    +0.136 C 
ATOM      6  N   UNL     1       1.979  -1.165   6.167  0.00  0.00    -0.331 N 
ATOM      7  C   UNL     1       0.898  -2.040   6.077  0.00  0.00    +0.049 A 
ATOM      8  C   UNL     1       0.771  -2.930   5.023  0.00  0.00    +0.025 A 
ATOM      9  C   UNL     1      -0.346  -3.745   4.952  0.00  0.00    +0.002 A 
ATOM     10  C   UNL     1      -1.328  -3.673   5.922  0.00  0.00    +0.002 A 
ATOM     11  C   UNL     1      -1.196  -2.797   6.987  0.00  0.00    +0.025 A 
ATOM     12  C   UNL     1      -0.069  -1.998   7.070  0.00  0.00    +0.052 A 
ATOM     13  N   UNL     1       0.183  -1.182   8.168  0.00  0.00    -0.316 N 
ATOM     14  C   UNL     1       1.018   2.275   7.261  0.00  0.00    +0.163 C 
ATOM     15  O   UNL     1       1.680   2.873   6.435  0.00  0.00    -0.292 OA
ATOM     16  C   UNL     1       0.268   3.061   8.294  0.00  0.00    +0.088 C 
ATOM     17  H   UNL     1       2.990  -1.577   6.303  0.00  0.00    +0.147 HD
ATOM     18  H   UNL     1       0.310  -1.713   9.122  0.00  0.00    +0.152 HD
ENDROOT
BRANCH   1  22
ATOM     19  C   UNL     1      -3.037   4.307  11.840  0.00  0.00    -0.042 A 
ATOM     20  C   UNL     1      -3.689   4.004  10.660  0.00  0.00    +0.004 A 
ATOM     21  C   UNL     1      -3.019   3.339   9.650  0.00  0.00    +0.004 A 
ATOM     22  C   UNL     1      -1.696   2.978   9.821  0.00  0.00    -0.043 A 
ATOM     23  C   UNL     1      -1.044   3.277  11.003  0.00  0.00    +0.004 A 
ATOM     24  C   UNL     1      -1.713   3.946  12.011  0.00  0.00    +0.004 A 
BRANCH  19  26
ATOM     25  C   UNL     1      -4.971   4.200  13.388  0.00  0.00    +0.015 C 
ATOM     26  C   UNL     1      -3.767   5.032  12.941  0.00  0.00    -0.013 C 
ATOM     27  C   UNL     1      -2.824   5.242  14.127  0.00  0.00    +0.015 C 
ATOM     28  C   UNL     1      -4.249   6.389  12.426  0.00  0.00    +0.015 C 
ENDBRANCH  19  26
ENDBRANCH   1  22
BRANCH   5  29
ATOM     29  C   UNL     1       1.086   0.579   4.786  0.00  0.00    -0.016 A 
ATOM     30  C   UNL     1       1.708   1.372   3.840  0.00  0.00    +0.055 A 
ATOM     31  C   UNL     1       1.067   1.661   2.644  0.00  0.00    +0.165 A 
ATOM     32  C   UNL     1      -0.203   1.152   2.398  0.00  0.00    +0.204 A 
ATOM     33  C   UNL     1      -0.827   0.360   3.354  0.00  0.00    +0.165 A 
ATOM     34  C   UNL     1      -0.177   0.071   4.545  0.00  0.00    +0.055 A 
BRANCH  33  35
ATOM     35  O   UNL     1      -2.071  -0.136   3.120  0.00  0.00    -0.491 OA
ATOM     36  C   UNL     1      -2.696  -0.850   4.189  0.00  0.00    +0.277 C 
ENDBRANCH  33  35
BRANCH  32  37
ATOM     37  O   UNL     1      -0.835   1.434   1.227  0.00  0.00    -0.488 OA
ATOM     38  C   UNL     1      -0.619   0.532   0.140  0.00  0.00    +0.277 C 
ENDBRANCH  32  37
BRANCH  31  39
ATOM     39  O   UNL     1       1.680   2.441   1.714  0.00  0.00    -0.491 OA
ATOM     40  C   UNL     1       2.984   2.929   2.035  0.00  0.00    +0.277 C 
ENDBRANCH  31  39
ENDBRANCH   5  29
TORSDOF 6
