REMARK  Name = ZINC47257520
REMARK  9 active torsions:
REMARK  status: ('A' for Active; 'I' for Inactive)
REMARK    1  A    between atoms: C_1  and  C_2
REMARK    2  A    between atoms: C_2  and  C_4
REMARK    3  A    between atoms: C_2  and  N_11
REMARK    4  A    between atoms: N_11  and  C_12
REMARK    5  A    between atoms: N_11  and  C_26
REMARK    6  A    between atoms: C_12  and  C_13
REMARK    7  A    between atoms: N_15  and  C_16
REMARK    8  A    between atoms: C_20  and  S_22
REMARK    9  A    between atoms: S_22  and  N_25
REMARK                            x       y       z     vdW  Elec       q    Type
REMARK                         _______ _______ _______ _____ _____    ______ ____
ROOT
ATOM      1  C   UNL     1       0.324   0.247   3.593  0.00  0.00    +0.201 C 
ATOM      2  O   UNL     1       1.396  -0.308   3.713  0.00  0.00    -0.278 OA
ATOM      3  N   UNL     1      -0.288   0.770   4.674  0.00  0.00    -0.287 N 
ATOM      4  H   UNL     1      -1.179   1.146   4.592  0.00  0.00    +0.155 HD
ENDROOT
BRANCH   3   5
ATOM      5  C   UNL     1       0.360   0.771   5.914  0.00  0.00    +0.035 A 
ATOM      6  C   UNL     1       1.737   0.939   5.979  0.00  0.00    +0.023 A 
ATOM      7  C   UNL     1       2.374   0.939   7.204  0.00  0.00    +0.004 A 
ATOM      8  C   UNL     1       1.642   0.771   8.366  0.00  0.00    +0.028 A 
ATOM      9  C   UNL     1       0.271   0.604   8.304  0.00  0.00    +0.107 A 
ATOM     10  C   UNL     1      -0.373   0.609   7.082  0.00  0.00    +0.051 A 
BRANCH   9  11
ATOM     11  S   UNL     1      -0.657   0.390   9.787  0.00  0.00    +0.056 S 
ATOM     12  O   UNL     1      -1.850  -0.292   9.425  0.00  0.00    -0.153 OA
ATOM     13  O   UNL     1       0.245  -0.117  10.761  0.00  0.00    -0.153 OA
BRANCH  11  14
ATOM     14  N   UNL     1      -1.111   1.897  10.301  0.00  0.00    -0.204 NA
ATOM     15  H   UNL     1      -0.853   2.682   9.793  0.00  0.00    +0.144 HD
ATOM     16  H   UNL     1      -1.636   1.996  11.111  0.00  0.00    +0.144 HD
ENDBRANCH  11  14
ENDBRANCH   9  11
ENDBRANCH   3   5
BRANCH   1  17
ATOM     17  C   UNL     1      -0.322   0.352   2.236  0.00  0.00    +0.020 C 
BRANCH  17  18
ATOM     18  N   UNL     1       0.538  -0.290   1.233  0.00  0.00    +0.392 N 
ATOM     19  H   UNL     1       1.472   0.086   1.301  0.00  0.00    -0.080 HD
BRANCH  18  20
ATOM     20  C   UNL     1       0.574  -1.739   1.474  0.00  0.00    -0.067 C 
ATOM     21  C   UNL     1       1.920  -2.358   1.857  0.00  0.00    -0.017 C 
ATOM     22  C   UNL     1       1.332  -2.604   0.466  0.00  0.00    -0.017 C 
ENDBRANCH  18  20
BRANCH  18  24
ATOM     23  C   UNL     1      -1.520  -0.181  -0.089  0.00  0.00    -0.008 C 
ATOM     24  C   UNL     1       0.002  -0.030  -0.110  0.00  0.00    -0.038 C 
BRANCH  24  25
ATOM     25  C   UNL     1       0.363   1.370  -0.532  0.00  0.00    -0.043 A 
ATOM     26  C   UNL     1       0.809   2.282   0.406  0.00  0.00    +0.003 A 
ATOM     27  C   UNL     1       1.140   3.567   0.018  0.00  0.00    +0.000 A 
ATOM     28  C   UNL     1       1.024   3.941  -1.308  0.00  0.00    +0.001 A 
ATOM     29  C   UNL     1       0.579   3.030  -2.247  0.00  0.00    +0.020 A 
ATOM     30  C   UNL     1       0.253   1.742  -1.860  0.00  0.00    +0.043 A 
ATOM     31 CL   UNL     1      -0.301   0.596  -3.040  0.00  0.00    -0.083 Cl
ENDBRANCH  24  25
ENDBRANCH  18  24
ENDBRANCH  17  18
ENDBRANCH   1  17
TORSDOF 8
