REMARK  Name = ZINC63755312
REMARK  11 active torsions:
REMARK  status: ('A' for Active; 'I' for Inactive)
REMARK    1  A    between atoms: C_1  and  C_2
REMARK    2  A    between atoms: C_2  and  C_3
REMARK    3  A    between atoms: C_3  and  C_4
REMARK    4  A    between atoms: C_4  and  N_5
REMARK    5  A    between atoms: N_5  and  C_6
REMARK    6  A    between atoms: N_5  and  C_14
REMARK    7  A    between atoms: C_6  and  C_7
REMARK    8  A    between atoms: C_14  and  C_15
REMARK    9  A    between atoms: N_17  and  C_18
REMARK   10  A    between atoms: C_22  and  S_24
REMARK   11  A    between atoms: S_24  and  N_27
REMARK                            x       y       z     vdW  Elec       q    Type
REMARK                         _______ _______ _______ _____ _____    ______ ____
ROOT
ATOM      1  C   UNL     1      -0.412  -4.160  -2.790  0.00  0.00    +0.201 C 
ATOM      2  O   UNL     1      -1.196  -3.239  -2.695  0.00  0.00    -0.278 OA
ATOM      3  N   UNL     1      -0.868  -5.417  -2.959  0.00  0.00    -0.287 N 
ATOM      4  H   UNL     1      -0.246  -6.162  -2.960  0.00  0.00    +0.155 HD
ENDROOT
BRANCH   3   5
ATOM      5  C   UNL     1      -2.237  -5.648  -3.134  0.00  0.00    +0.035 A 
ATOM      6  C   UNL     1      -3.014  -4.730  -3.827  0.00  0.00    +0.023 A 
ATOM      7  C   UNL     1      -4.365  -4.960  -3.998  0.00  0.00    +0.004 A 
ATOM      8  C   UNL     1      -4.944  -6.104  -3.478  0.00  0.00    +0.028 A 
ATOM      9  C   UNL     1      -4.173  -7.020  -2.787  0.00  0.00    +0.107 A 
ATOM     10  C   UNL     1      -2.820  -6.798  -2.619  0.00  0.00    +0.051 A 
BRANCH   9  11
ATOM     11  S   UNL     1      -4.915  -8.475  -2.127  0.00  0.00    +0.056 S 
ATOM     12  O   UNL     1      -4.086  -8.903  -1.054  0.00  0.00    -0.153 OA
ATOM     13  O   UNL     1      -6.295  -8.185  -1.954  0.00  0.00    -0.153 OA
BRANCH  11  14
ATOM     14  N   UNL     1      -4.820  -9.646  -3.294  0.00  0.00    -0.204 NA
ATOM     15  H   UNL     1      -4.754 -10.580  -3.040  0.00  0.00    +0.144 HD
ATOM     16  H   UNL     1      -4.831  -9.398  -4.232  0.00  0.00    +0.144 HD
ENDBRANCH  11  14
ENDBRANCH   9  11
ENDBRANCH   3   5
BRANCH   1  17
ATOM     17  C   UNL     1       1.070  -3.899  -2.720  0.00  0.00    +0.019 C 
BRANCH  17  18
ATOM     18  N   UNL     1       1.305  -2.461  -2.534  0.00  0.00    +0.388 N 
ATOM     19  H   UNL     1       0.841  -1.946  -3.267  0.00  0.00    -0.081 HD
BRANCH  18  20
ATOM     20  C   UNL     1       0.774  -2.042  -1.230  0.00  0.00    -0.078 C 
BRANCH  20  21
ATOM     21  C   UNL     1       0.885  -0.522  -1.098  0.00  0.00    -0.019 C 
BRANCH  21  23
ATOM     22  C   UNL     1       0.327   1.448   0.335  0.00  0.00    +0.004 C 
ATOM     23  C   UNL     1       0.217  -0.072   0.203  0.00  0.00    -0.005 C 
ENDBRANCH  21  23
ENDBRANCH  20  21
ENDBRANCH  18  20
BRANCH  18  24
ATOM     24  C   UNL     1       2.748  -2.190  -2.585  0.00  0.00    -0.039 C 
BRANCH  24  25
ATOM     25  C   UNL     1       3.267  -2.488  -3.968  0.00  0.00    -0.029 A 
ATOM     26  C   UNL     1       4.002  -3.636  -4.198  0.00  0.00    +0.004 A 
ATOM     27  C   UNL     1       4.477  -3.910  -5.467  0.00  0.00    +0.000 A 
ATOM     28  C   UNL     1       4.219  -3.037  -6.507  0.00  0.00    +0.003 A 
ATOM     29  C   UNL     1       3.484  -1.889  -6.279  0.00  0.00    +0.038 A 
ATOM     30  C   UNL     1       3.003  -1.616  -5.010  0.00  0.00    +0.125 A 
ATOM     31  F   UNL     1       2.280  -0.496  -4.787  0.00  0.00    -0.205 F 
ENDBRANCH  24  25
ENDBRANCH  18  24
ENDBRANCH  17  18
ENDBRANCH   1  17
TORSDOF 10
