REMARK  Name = ZINC66836623
REMARK  7 active torsions:
REMARK  status: ('A' for Active; 'I' for Inactive)
REMARK    1  A    between atoms: C_1  and  C_2
REMARK    2  A    between atoms: C_2  and  C_4
REMARK    3  A    between atoms: C_2  and  N_18
REMARK    4  A    between atoms: N_6  and  C_7
REMARK    5  A    between atoms: C_14  and  O_16
REMARK    6  A    between atoms: O_16  and  C_17
REMARK    7  A    between atoms: C_19  and  C_21
REMARK                            x       y       z     vdW  Elec       q    Type
REMARK                         _______ _______ _______ _____ _____    ______ ____
ROOT
ATOM      1  C   UNL     1       0.731  -0.503   1.223  0.00  0.00    +0.233 C 
ATOM      2  O   UNL     1       1.725  -1.187   1.099  0.00  0.00    -0.274 OA
ATOM      3  N   UNL     1       0.278  -0.191   2.453  0.00  0.00    -0.309 N 
ATOM      4  H   UNL     1      -0.517   0.356   2.553  0.00  0.00    +0.149 HD
ENDROOT
BRANCH   3   5
ATOM      5  C   UNL     1       0.986  -0.676   3.640  0.00  0.00    +0.090 C 
ATOM      6  C   UNL     1       0.705   0.257   4.820  0.00  0.00    +0.025 C 
ATOM      7  C   UNL     1       1.471  -0.231   6.052  0.00  0.00    +0.021 C 
ATOM      8  C   UNL     1       0.991  -1.638   6.423  0.00  0.00    +0.111 C 
ATOM      9  N   UNL     1       1.124  -2.508   5.246  0.00  0.00    -0.266 N 
ATOM     10  C   UNL     1       0.502  -2.088   3.983  0.00  0.00    +0.133 C 
ATOM     11  C   UNL     1       1.804  -3.669   5.324  0.00  0.00    +0.403 C 
ATOM     12  O   UNL     1       1.906  -4.380   4.344  0.00  0.00    -0.226 OA
BRANCH  11  13
ATOM     13  O   UNL     1       2.369  -4.041   6.488  0.00  0.00    -0.454 OA
ATOM     14  C   UNL     1       3.075  -5.284   6.498  0.00  0.00    +0.282 C 
ENDBRANCH  11  13
ENDBRANCH   3   5
BRANCH   1  16
ATOM     15  C   UNL     1      -0.019   1.526   0.010  0.00  0.00    +0.038 C 
ATOM     16  C   UNL     1       0.002  -0.004   0.002  0.00  0.00    +0.156 C 
BRANCH  16  17
ATOM     17  N   UNL     1       0.688  -0.476  -1.203  0.00  0.00    -0.304 N 
ATOM     18  C   UNL     1       0.006  -0.608  -2.358  0.00  0.00    +0.217 C 
ATOM     19  O   UNL     1      -1.175  -0.336  -2.400  0.00  0.00    -0.275 OA
ATOM     20  H   UNL     1       1.632  -0.695  -1.170  0.00  0.00    +0.149 HD
BRANCH  18  21
ATOM     21  C   UNL     1       0.712  -1.094  -3.598  0.00  0.00    +0.079 C 
ATOM     22  C   UNL     1       1.844  -0.127  -3.956  0.00  0.00    +0.041 C 
ATOM     23  C   UNL     1       2.503  -0.585  -5.260  0.00  0.00    +0.160 C 
ATOM     24  O   UNL     1       1.519  -0.648  -6.293  0.00  0.00    -0.380 OA
ATOM     25  C   UNL     1       0.460  -1.572  -6.035  0.00  0.00    +0.160 C 
ATOM     26  C   UNL     1      -0.282  -1.153  -4.763  0.00  0.00    +0.041 C 
ENDBRANCH  18  21
ENDBRANCH  16  17
ENDBRANCH   1  16
TORSDOF 5
