REMARK  Name = ZINC43021467
REMARK  9 active torsions:
REMARK  status: ('A' for Active; 'I' for Inactive)
REMARK    1  A    between atoms: C_1  and  C_2
REMARK    2  A    between atoms: C_2  and  C_4
REMARK    3  A    between atoms: C_2  and  N_9
REMARK    4  A    between atoms: N_9  and  C_10
REMARK    5  A    between atoms: N_9  and  C_11
REMARK    6  A    between atoms: C_11  and  C_13
REMARK    7  A    between atoms: C_11  and  C_20
REMARK    8  A    between atoms: C_20  and  C_22
REMARK    9  A    between atoms: C_20  and  N_23
REMARK                            x       y       z     vdW  Elec       q    Type
REMARK                         _______ _______ _______ _____ _____    ______ ____
ROOT
ATOM      1  C   UNL     1       2.286   0.139  -0.991  0.00  0.00    +0.072 C 
ENDROOT
BRANCH   1   2
ATOM      2  C   UNL     1       2.633   0.058  -2.455  0.00  0.00    -0.031 A 
ATOM      3  C   UNL     1       1.669   0.324  -3.409  0.00  0.00    +0.005 A 
ATOM      4  C   UNL     1       1.986   0.249  -4.753  0.00  0.00    +0.001 A 
ATOM      5  C   UNL     1       3.268  -0.091  -5.142  0.00  0.00    +0.015 A 
ATOM      6  C   UNL     1       4.233  -0.357  -4.188  0.00  0.00    +0.018 A 
ATOM      7  C   UNL     1       3.916  -0.277  -2.843  0.00  0.00    +0.020 A 
ATOM      8 BR   UNL     1       5.986  -0.824  -4.720  0.00  0.00    -0.050 Br
ENDBRANCH   1   2
BRANCH   1   9
ATOM      9  N   UNL     1       0.888  -0.269  -0.795  0.00  0.00    -0.293 NA
ATOM     10  C   UNL     1      -0.017   0.883  -0.900  0.00  0.00    +0.106 C 
BRANCH   9  12
ATOM     11  C   UNL     1      -0.763  -1.285   0.700  0.00  0.00    +0.030 C 
ATOM     12  C   UNL     1       0.716  -0.958   0.491  0.00  0.00    +0.091 C 
BRANCH  12  13
ATOM     13  C   UNL     1       1.518  -2.234   0.489  0.00  0.00    +0.007 A 
ATOM     14  C   UNL     1       2.327  -2.736   1.454  0.00  0.00    +0.013 A 
ATOM     15  C   UNL     1       2.969  -3.939   1.231  0.00  0.00    +0.008 A 
ATOM     16  C   UNL     1       2.771  -4.582   0.054  0.00  0.00    +0.045 A 
ATOM     17  S   UNL     1       1.642  -3.481  -0.783  0.00  0.00    -0.100 S 
ENDBRANCH  12  13
ENDBRANCH   9  12
ENDBRANCH   1   9
BRANCH   1  18
ATOM     18  C   UNL     1       2.470   1.577  -0.502  0.00  0.00    -0.056 C 
ATOM     19  C   UNL     1       2.264   1.632   1.013  0.00  0.00    -0.012 C 
BRANCH  18  20
ATOM     20  N   UNL     1       3.827   2.035  -0.828  0.00  0.00    +0.381 N 
ATOM     21  H   UNL     1       3.963   2.000  -1.827  0.00  0.00    -0.090 HD
ATOM     22  H   UNL     1       3.949   2.984  -0.506  0.00  0.00    -0.090 HD
ATOM     23  H   UNL     1       4.502   1.437  -0.376  0.00  0.00    -0.090 HD
ENDBRANCH  18  20
ENDBRANCH   1  18
TORSDOF 6
