REMARK  Name = ZINC35065895
REMARK  11 active torsions:
REMARK  status: ('A' for Active; 'I' for Inactive)
REMARK    1  A    between atoms: C_1  and  C_2
REMARK    2  A    between atoms: C_6  and  N_8
REMARK    3  A    between atoms: C_18  and  C_19
REMARK    4  A    between atoms: C_19  and  C_21
REMARK    5  A    between atoms: C_19  and  N_22
REMARK    6  A    between atoms: N_22  and  C_23
REMARK    7  A    between atoms: C_23  and  C_24
REMARK    8  A    between atoms: C_24  and  N_25
REMARK    9  A    between atoms: N_25  and  C_26
REMARK   10  A    between atoms: N_25  and  C_27
REMARK   11  A    between atoms: N_30  and  C_31
REMARK                            x       y       z     vdW  Elec       q    Type
REMARK                         _______ _______ _______ _____ _____    ______ ____
ROOT
ATOM      1  C   UNL     1       0.153  -5.051   1.059  0.00  0.00    +0.141 C 
ATOM      2  C   UNL     1       1.289  -4.767   0.074  0.00  0.00    +0.036 C 
ENDROOT
BRANCH   1  13
ATOM      3  N   UNL     1      -0.684  -4.107   3.175  0.00  0.00    -0.263 N 
ATOM      4  C   UNL     1      -0.548  -3.391   4.316  0.00  0.00    +0.266 A 
ATOM      5  O   UNL     1      -1.471  -3.270   5.100  0.00  0.00    -0.267 OA
ATOM      6  C   UNL     1       0.758  -2.767   4.571  0.00  0.00    +0.065 A 
ATOM      7  C   UNL     1       1.002  -2.010   5.715  0.00  0.00    +0.015 A 
ATOM      8  C   UNL     1       2.245  -1.447   5.905  0.00  0.00    +0.001 A 
ATOM      9  C   UNL     1       3.253  -1.628   4.966  0.00  0.00    +0.002 A 
ATOM     10  C   UNL     1       3.033  -2.371   3.829  0.00  0.00    +0.028 A 
ATOM     11  C   UNL     1       1.781  -2.953   3.614  0.00  0.00    +0.078 A 
ATOM     12  N   UNL     1       1.521  -3.693   2.508  0.00  0.00    -0.231 NA
ATOM     13  C   UNL     1       0.359  -4.238   2.311  0.00  0.00    +0.138 A 
BRANCH   3  19
ATOM     14  C   UNL     1      -4.003  -7.601   4.155  0.00  0.00    +0.044 C 
ATOM     15  C   UNL     1      -3.540  -6.418   3.343  0.00  0.00    -0.048 A 
ATOM     16  C   UNL     1      -4.325  -5.941   2.309  0.00  0.00    +0.003 A 
ATOM     17  C   UNL     1      -3.904  -4.856   1.562  0.00  0.00    +0.002 A 
ATOM     18  C   UNL     1      -2.698  -4.246   1.847  0.00  0.00    +0.026 A 
ATOM     19  C   UNL     1      -1.908  -4.723   2.884  0.00  0.00    +0.051 A 
ATOM     20  C   UNL     1      -2.336  -5.809   3.636  0.00  0.00    +0.029 A 
ENDBRANCH   3  19
ENDBRANCH   1  13
BRANCH   1  21
ATOM     21  N   UNL     1       0.144  -6.476   1.398  0.00  0.00    -0.277 N 
ATOM     22  C   UNL     1      -0.908  -7.244   1.053  0.00  0.00    +0.307 C 
ATOM     23  O   UNL     1      -1.851  -6.754   0.461  0.00  0.00    -0.252 OA
ATOM     24  N   UNL     1      -0.916  -8.555   1.365  0.00  0.00    -0.269 N 
ATOM     25  H   UNL     1      -0.203  -8.930   1.905  0.00  0.00    +0.156 HD
BRANCH  24  26
ATOM     26  C   UNL     1      -1.954  -9.377   0.910  0.00  0.00    +0.035 A 
ATOM     27  C   UNL     1      -2.539  -9.138  -0.327  0.00  0.00    +0.025 A 
ATOM     28  C   UNL     1      -3.563  -9.950  -0.773  0.00  0.00    +0.022 A 
ATOM     29  C   UNL     1      -4.007 -11.001   0.010  0.00  0.00    +0.041 A 
ATOM     30  C   UNL     1      -3.426 -11.240   1.244  0.00  0.00    +0.022 A 
ATOM     31  C   UNL     1      -2.398 -10.435   1.692  0.00  0.00    +0.025 A 
ATOM     32 CL   UNL     1      -5.294 -12.020  -0.554  0.00  0.00    -0.084 Cl
ENDBRANCH  24  26
BRANCH  21  33
ATOM     33  C   UNL     1       1.279  -7.066   2.112  0.00  0.00    +0.091 C 
BRANCH  33  34
ATOM     34  C   UNL     1       0.977  -7.101   3.611  0.00  0.00    -0.060 C 
BRANCH  34  35
ATOM     35  N   UNL     1       2.162  -7.574   4.339  0.00  0.00    +0.377 N 
ATOM     36  C   UNL     1       1.913  -7.494   5.784  0.00  0.00    -0.097 C 
ATOM     37  C   UNL     1       2.441  -8.967   3.966  0.00  0.00    -0.097 C 
ATOM     38  H   UNL     1       2.955  -6.997   4.101  0.00  0.00    -0.083 HD
ENDBRANCH  34  35
ENDBRANCH  33  34
ENDBRANCH  21  33
ENDBRANCH   1  21
TORSDOF 7
