REMARK  Name = ZINC62848767
REMARK  5 active torsions:
REMARK  status: ('A' for Active; 'I' for Inactive)
REMARK    1  A    between atoms: C_1  and  C_2
REMARK    2  A    between atoms: C_2  and  C_3
REMARK    3  A    between atoms: C_3  and  C_4
REMARK    4  A    between atoms: C_4  and  C_10
REMARK    5  A    between atoms: N_12  and  C_13
REMARK                            x       y       z     vdW  Elec       q    Type
REMARK                         _______ _______ _______ _____ _____    ______ ____
ROOT
ATOM      1  C   UNL     1      -0.282  -3.012   0.926  0.00  0.00    +0.223 C 
ATOM      2  O   UNL     1      -0.503  -3.967   1.641  0.00  0.00    -0.275 OA
ATOM      3  N   UNL     1      -1.257  -2.523   0.135  0.00  0.00    -0.284 N 
ATOM      4  H   UNL     1      -1.108  -1.708  -0.371  0.00  0.00    +0.155 HD
ENDROOT
BRANCH   1   5
ATOM      5  C   UNL     1       1.082  -2.372   0.924  0.00  0.00    +0.044 C 
ATOM      6  C   UNL     1       1.604  -2.279  -0.513  0.00  0.00    -0.003 C 
ATOM      7  C   UNL     1       1.769  -3.690  -1.082  0.00  0.00    -0.082 C 
ATOM      8  N   UNL     1       2.724  -4.444  -0.261  0.00  0.00    +0.379 N 
ATOM      9  C   UNL     1       2.197  -4.599   1.100  0.00  0.00    -0.082 C 
ATOM     10  C   UNL     1       2.049  -3.223   1.753  0.00  0.00    -0.003 C 
ATOM     11  H   UNL     1       2.871  -5.355  -0.670  0.00  0.00    -0.086 HD
ATOM     12  H   UNL     1       3.601  -3.948  -0.227  0.00  0.00    -0.086 HD
BRANCH   5  13
ATOM     13  C   UNL     1       0.991  -0.969   1.527  0.00  0.00    +0.016 C 
BRANCH  13  15
ATOM     14  C   UNL     1       0.205   0.358   3.492  0.00  0.00    +0.004 C 
ATOM     15  C   UNL     1       0.360  -1.052   2.918  0.00  0.00    -0.002 C 
ENDBRANCH  13  15
ENDBRANCH   5  13
ENDBRANCH   1   5
BRANCH   3  16
ATOM     16  C   UNL     1      -2.484  -3.190   0.042  0.00  0.00    +0.052 A 
ATOM     17  C   UNL     1      -2.971  -3.905   1.128  0.00  0.00    +0.026 A 
ATOM     18  C   UNL     1      -4.182  -4.562   1.034  0.00  0.00    +0.016 A 
ATOM     19  C   UNL     1      -4.911  -4.509  -0.140  0.00  0.00    +0.015 A 
ATOM     20  C   UNL     1      -4.429  -3.797  -1.224  0.00  0.00    +0.036 A 
ATOM     21  C   UNL     1      -3.220  -3.133  -1.135  0.00  0.00    +0.063 A 
ATOM     22 CL   UNL     1      -2.619  -2.235  -2.494  0.00  0.00    -0.082 Cl
ATOM     23  I   UNL     1      -6.747  -5.508  -0.278  0.00  0.00    -0.044 I 
ENDBRANCH   3  16
TORSDOF 4
