REMARK  Name = ZINC20465660
REMARK  8 active torsions:
REMARK  status: ('A' for Active; 'I' for Inactive)
REMARK    1  A    between atoms: N_10  and  C_13
REMARK    2  A    between atoms: C_15  and  C_25
REMARK    3  A    between atoms: C_18  and  C_23
REMARK    4  A    between atoms: C_20  and  O_22
REMARK    5  A    between atoms: C_23  and  O_24
REMARK    6  A    between atoms: C_25  and  N_26
REMARK    7  A    between atoms: N_26  and  C_27
REMARK    8  A    between atoms: C_27  and  C_28
REMARK                            x       y       z     vdW  Elec       q    Type
REMARK                         _______ _______ _______ _____ _____    ______ ____
ROOT
ATOM      1  C   UNL     1      -5.606   6.335  -0.951  0.00  0.00    +0.115 C 
ATOM      2  C   UNL     1      -6.415   6.120  -2.250  0.00  0.00    +0.122 C 
ATOM      3  O   UNL     1      -7.366   5.082  -1.925  0.00  0.00    -0.369 OA
ATOM      4  C   UNL     1      -7.822   5.390  -0.589  0.00  0.00    +0.174 C 
ATOM      5  C   UNL     1      -6.554   5.844   0.167  0.00  0.00    +0.165 C 
ENDROOT
BRANCH   1  15
ATOM      6  C   UNL     1      -0.307   0.684  -0.150  0.00  0.00    +0.005 A 
ATOM      7  C   UNL     1       0.906   1.354  -0.055  0.00  0.00    +0.018 A 
ATOM      8  C   UNL     1       0.912   2.730   0.053  0.00  0.00    +0.084 A 
ATOM      9  N   UNL     1      -0.217   3.413   0.069  0.00  0.00    -0.350 N 
ATOM     10  C   UNL     1      -1.393   2.811  -0.019  0.00  0.00    +0.099 A 
ATOM     11  C   UNL     1      -1.474   1.427  -0.137  0.00  0.00    +0.042 A 
ATOM     12  N   UNL     1      -2.558   3.570   0.000  0.00  0.00    -0.314 N 
ATOM     13  C   UNL     1      -3.376   3.310  -1.192  0.00  0.00    +0.122 C 
ATOM     14  C   UNL     1      -4.682   4.101  -1.095  0.00  0.00    +0.104 C 
ATOM     15  N   UNL     1      -4.375   5.533  -0.972  0.00  0.00    -0.292 NA
ATOM     16  C   UNL     1      -3.558   5.793   0.221  0.00  0.00    +0.104 C 
ATOM     17  C   UNL     1      -2.251   5.002   0.123  0.00  0.00    +0.122 C 
ATOM     18  H   UNL     1      -0.195   4.509   0.156  0.00  0.00    +0.166 HD
ENDBRANCH   1  15
BRANCH   5  19
ATOM     19  O   UNL     1      -5.969   4.748   0.873  0.00  0.00    -0.388 OA
ATOM     20  H   UNL     1      -6.513   4.276   1.704  0.00  0.00    +0.210 HD
ENDBRANCH   5  19
BRANCH   4  21
ATOM     21  C   UNL     1      -8.419   4.146   0.072  0.00  0.00    +0.190 C 
BRANCH  21  22
ATOM     22  O   UNL     1      -9.652   3.811  -0.569  0.00  0.00    -0.392 OA
ATOM     23  H   UNL     1     -10.230   2.940  -0.228  0.00  0.00    +0.210 HD
ENDBRANCH  21  22
ENDBRANCH   4  21
BRANCH   2  24
ATOM     24  C   UNL     1      -5.492   5.661  -3.381  0.00  0.00    -0.049 C 
BRANCH  24  25
ATOM     25  N   UNL     1      -6.248   5.614  -4.640  0.00  0.00    +0.383 N 
ATOM     26  H   UNL     1      -7.084   4.907  -4.539  0.00  0.00    -0.085 HD
ATOM     27  H   UNL     1      -6.640   6.615  -4.870  0.00  0.00    -0.085 HD
BRANCH  25  28
ATOM     28  C   UNL     1      -5.392   5.176  -5.751  0.00  0.00    -0.047 C 
BRANCH  28  29
ATOM     29  C   UNL     1      -6.200   5.140  -7.023  0.00  0.00    -0.063 A 
ATOM     30  C   UNL     1      -6.862   3.983  -7.389  0.00  0.00    +0.002 A 
ATOM     31  C   UNL     1      -7.607   3.950  -8.553  0.00  0.00    +0.002 A 
ATOM     32  C   UNL     1      -7.682   5.072  -9.357  0.00  0.00    +0.020 A 
ATOM     33  C   UNL     1      -7.015   6.229  -8.994  0.00  0.00    +0.041 A 
ATOM     34  C   UNL     1      -6.274   6.262  -7.826  0.00  0.00    +0.021 A 
ATOM     35 CL   UNL     1      -7.108   7.638 -10.004  0.00  0.00    -0.084 Cl
ENDBRANCH  28  29
ENDBRANCH  25  28
ENDBRANCH  24  25
ENDBRANCH   2  24
TORSDOF 8
