REMARK  Name = ZINC66244842
REMARK  5 active torsions:
REMARK  status: ('A' for Active; 'I' for Inactive)
REMARK    1  A    between atoms: C_4  and  C_7
REMARK    2  A    between atoms: C_7  and  N_8
REMARK    3  A    between atoms: N_11  and  C_12
REMARK    4  A    between atoms: C_12  and  C_13
REMARK    5  A    between atoms: N_16  and  C_18
REMARK                            x       y       z     vdW  Elec       q    Type
REMARK                         _______ _______ _______ _____ _____    ______ ____
ROOT
ATOM      1  N   UNL     1       4.152  -0.952   1.338  0.00  0.00    -0.354 N 
ATOM      2  C   UNL     1       5.334  -1.613   1.573  0.00  0.00    +0.169 C 
ATOM      3  N   UNL     1       6.063  -2.022   0.573  0.00  0.00    -0.371 N 
ATOM      4  N   UNL     1       5.747  -1.844   2.864  0.00  0.00    -0.352 N 
ATOM      5  H   UNL     1       3.610  -0.648   2.082  0.00  0.00    +0.163 HD
ATOM      6  H   UNL     1       6.897  -2.488   0.739  0.00  0.00    +0.159 HD
ATOM      7  H   UNL     1       5.205  -1.540   3.609  0.00  0.00    +0.163 HD
ATOM      8  H   UNL     1       5.771  -1.860  -0.338  0.00  0.00    +0.159 HD
ENDROOT
BRANCH   1   9
ATOM      9  C   UNL     1       3.711  -0.707  -0.038  0.00  0.00    +0.151 C 
BRANCH   9  13
ATOM     10  C   UNL     1      -0.017   1.378   0.010  0.00  0.00    +0.000 A 
ATOM     11  C   UNL     1       1.171   2.086   0.002  0.00  0.00    +0.000 A 
ATOM     12  C   UNL     1       2.377   1.411  -0.013  0.00  0.00    +0.005 A 
ATOM     13  C   UNL     1       2.396   0.029  -0.020  0.00  0.00    -0.028 A 
ATOM     14  C   UNL     1       1.208  -0.679  -0.012  0.00  0.00    +0.005 A 
ATOM     15  C   UNL     1       0.002  -0.004   0.002  0.00  0.00    +0.000 A 
ENDBRANCH   9  13
ENDBRANCH   1   9
BRANCH   4  16
ATOM     16  C   UNL     1       7.007  -2.548   3.115  0.00  0.00    +0.173 C 
BRANCH  16  17
ATOM     17  C   UNL     1       7.227  -2.670   4.601  0.00  0.00    +0.086 A 
ATOM     18  C   UNL     1       7.897  -1.742   5.411  0.00  0.00    -0.001 A 
ATOM     19  C   UNL     1       7.882  -2.211   6.678  0.00  0.00    +0.048 A 
ATOM     20  N   UNL     1       7.225  -3.395   6.672  0.00  0.00    -0.236 N 
ATOM     21  N   UNL     1       6.821  -3.657   5.357  0.00  0.00    -0.169 NA
ATOM     22  C   UNL     1       8.594  -1.247   7.603  0.00  0.00    +0.056 C 
ATOM     23  C   UNL     1       9.422  -0.336   6.670  0.00  0.00    +0.011 C 
ATOM     24  C   UNL     1       8.621  -0.414   5.352  0.00  0.00    +0.039 C 
BRANCH  20  25
ATOM     25  C   UNL     1       6.987  -4.213   7.786  0.00  0.00    +0.066 A 
ATOM     26  C   UNL     1       7.931  -4.296   8.801  0.00  0.00    +0.028 A 
ATOM     27  C   UNL     1       7.694  -5.103   9.898  0.00  0.00    +0.002 A 
ATOM     28  C   UNL     1       6.519  -5.826   9.984  0.00  0.00    +0.000 A 
ATOM     29  C   UNL     1       5.578  -5.746   8.974  0.00  0.00    +0.002 A 
ATOM     30  C   UNL     1       5.806  -4.936   7.878  0.00  0.00    +0.028 A 
ENDBRANCH  20  25
ENDBRANCH  16  17
ENDBRANCH   4  16
TORSDOF 5
