REMARK  Name = ZINC51036255
REMARK  6 active torsions:
REMARK  status: ('A' for Active; 'I' for Inactive)
REMARK    1  A    between atoms: C_1  and  C_2
REMARK    2  A    between atoms: C_2  and  C_4
REMARK    3  A    between atoms: C_2  and  N_23
REMARK    4  A    between atoms: C_4  and  C_6
REMARK    5  A    between atoms: C_4  and  S_12
REMARK    6  A    between atoms: S_12  and  C_13
REMARK                            x       y       z     vdW  Elec       q    Type
REMARK                         _______ _______ _______ _____ _____    ______ ____
ROOT
ATOM      1  C   UNL     1       0.711  -0.418   1.293  0.00  0.00    +0.075 C 
ENDROOT
BRANCH   1   2
ATOM      2  C   UNL     1       0.969  -1.890   1.097  0.00  0.00    +0.003 A 
ATOM      3  C   UNL     1       0.585  -2.934   1.871  0.00  0.00    +0.013 A 
ATOM      4  C   UNL     1       0.940  -4.215   1.491  0.00  0.00    +0.023 A 
ATOM      5  C   UNL     1       1.661  -4.389   0.356  0.00  0.00    +0.055 A 
ATOM      6  S   UNL     1       1.853  -2.710  -0.219  0.00  0.00    -0.085 S 
ATOM      7 BR   UNL     1       2.292  -5.994  -0.420  0.00  0.00    -0.043 Br
ENDBRANCH   1   2
BRANCH   1   9
ATOM      8  C   UNL     1      -1.440  -0.569   0.030  0.00  0.00    -0.013 C 
ATOM      9  C   UNL     1      -0.078   0.125   0.100  0.00  0.00    -0.060 C 
BRANCH   9  10
ATOM     10  N   UNL     1      -0.274   1.572   0.260  0.00  0.00    +0.381 N 
ATOM     11  H   UNL     1      -0.786   1.750   1.111  0.00  0.00    -0.090 HD
ATOM     12  H   UNL     1       0.624   2.030   0.306  0.00  0.00    -0.090 HD
ATOM     13  H   UNL     1      -0.794   1.930  -0.527  0.00  0.00    -0.090 HD
ENDBRANCH   9  10
ENDBRANCH   1   9
BRANCH   1  14
ATOM     14  S   UNL     1       2.292   0.461   1.423  0.00  0.00    -0.097 S 
BRANCH  14  15
ATOM     15  C   UNL     1       2.968  -0.101   2.950  0.00  0.00    +0.126 A 
ATOM     16  C   UNL     1       4.252   0.282   3.347  0.00  0.00    +0.117 A 
ATOM     17  C   UNL     1       4.746  -0.192   4.573  0.00  0.00    +0.182 A 
ATOM     18  N   UNL     1       5.985   0.316   4.717  0.00  0.00    -0.216 NA
ATOM     19  H   UNL     1       5.216   1.542   1.965  0.00  0.00    +0.167 HD
ATOM     20  C   UNL     1       6.281   1.055   3.684  0.00  0.00    +0.199 A 
ATOM     21  N   UNL     1       5.249   1.068   2.811  0.00  0.00    -0.341 N 
ATOM     22  N   UNL     1       3.969  -0.991   5.312  0.00  0.00    -0.214 NA
ATOM     23  C   UNL     1       2.767  -1.324   4.898  0.00  0.00    +0.224 A 
ATOM     24  N   UNL     1       2.265  -0.895   3.755  0.00  0.00    -0.227 NA
ENDBRANCH  14  15
ENDBRANCH   1  14
TORSDOF 5
