REMARK  Name = ZINC16027325
REMARK  8 active torsions:
REMARK  status: ('A' for Active; 'I' for Inactive)
REMARK    1  A    between atoms: C_1  and  C_2
REMARK    2  A    between atoms: C_12  and  C_21
REMARK    3  A    between atoms: C_15  and  C_17
REMARK    4  A    between atoms: C_17  and  C_19
REMARK    5  A    between atoms: C_17  and  O_20
REMARK    6  A    between atoms: N_23  and  C_24
REMARK    7  A    between atoms: C_29  and  O_30
REMARK    8  A    between atoms: O_30  and  C_31
REMARK                            x       y       z     vdW  Elec       q    Type
REMARK                         _______ _______ _______ _____ _____    ______ ____
ROOT
ATOM      1  C   UNL     1       3.004   4.336  -0.028  0.00  0.00    +0.045 C 
ATOM      2  C   UNL     1       1.502   4.460   0.001  0.00  0.00    -0.029 A 
ATOM      3  C   UNL     1       0.916   5.709   0.034  0.00  0.00    +0.005 A 
ATOM      4  C   UNL     1      -0.461   5.833   0.060  0.00  0.00    +0.001 A 
ATOM      5  C   UNL     1      -1.255   4.700   0.054  0.00  0.00    +0.004 A 
ATOM      6  C   UNL     1      -0.674   3.452   0.020  0.00  0.00    -0.027 A 
ATOM      7  C   UNL     1       0.710   3.315  -0.007  0.00  0.00    +0.039 A 
ATOM      8  N   UNL     1       1.060   1.964  -0.038  0.00  0.00    -0.286 N 
ATOM      9  C   UNL     1      -0.018   1.159  -0.034  0.00  0.00    +0.211 C 
ATOM     10  O   UNL     1      -0.016  -0.054  -0.057  0.00  0.00    -0.277 OA
ATOM     11  C   UNL     1      -1.230   2.054  -0.002  0.00  0.00    +0.049 C 
ATOM     12  C   UNL     1      -2.103   1.830  -1.247  0.00  0.00    +0.076 C 
ATOM     13  C   UNL     1      -3.231   0.904  -0.715  0.00  0.00    -0.001 C 
ATOM     14  C   UNL     1      -3.419   1.434   0.729  0.00  0.00    -0.040 C 
ATOM     15  H   UNL     1       1.975   1.642  -0.060  0.00  0.00    +0.155 HD
ATOM     16  N   UNL     1      -2.058   1.789   1.175  0.00  0.00    +0.395 N 
ATOM     17  H   UNL     1      -2.096   2.628   1.766  0.00  0.00    -0.083 HD
ATOM     18  H   UNL     1      -1.657   1.011   1.711  0.00  0.00    -0.083 HD
ENDROOT
BRANCH  12  19
ATOM     19  C   UNL     1      -2.672   3.135  -1.741  0.00  0.00    +0.220 C 
ATOM     20  O   UNL     1      -3.778   3.487  -1.387  0.00  0.00    -0.275 OA
ATOM     21  N   UNL     1      -1.954   3.910  -2.577  0.00  0.00    -0.282 N 
ATOM     22  H   UNL     1      -1.093   3.603  -2.904  0.00  0.00    +0.155 HD
BRANCH  21  23
ATOM     23  C   UNL     1      -2.449   5.159  -2.974  0.00  0.00    +0.077 A 
ATOM     24  C   UNL     1      -3.816   5.397  -2.975  0.00  0.00    +0.047 A 
ATOM     25  C   UNL     1      -4.302   6.631  -3.368  0.00  0.00    +0.043 A 
ATOM     26  C   UNL     1      -3.428   7.629  -3.760  0.00  0.00    +0.024 A 
ATOM     27  C   UNL     1      -2.065   7.399  -3.761  0.00  0.00    +0.049 A 
ATOM     28  C   UNL     1      -1.570   6.167  -3.363  0.00  0.00    +0.141 A 
ATOM     29 CL   UNL     1      -6.013   6.927  -3.369  0.00  0.00    -0.083 Cl
BRANCH  28  30
ATOM     30  O   UNL     1      -0.229   5.941  -3.358  0.00  0.00    -0.493 OA
ATOM     31  C   UNL     1       0.612   7.021  -3.770  0.00  0.00    +0.277 C 
ENDBRANCH  28  30
ENDBRANCH  21  23
ENDBRANCH  12  19
BRANCH  14  32
ATOM     32  C   UNL     1      -4.012   0.345   1.625  0.00  0.00    +0.098 C 
ATOM     33  C   UNL     1      -4.116   0.867   3.060  0.00  0.00    +0.036 C 
BRANCH  32  34
ATOM     34  O   UNL     1      -5.313  -0.006   1.150  0.00  0.00    -0.394 OA
ATOM     35  H   UNL     1      -5.750  -0.693   1.672  0.00  0.00    +0.210 HD
ENDBRANCH  32  34
ENDBRANCH  14  32
TORSDOF 5
