REMARK  Name = ZINC00429543
REMARK  4 active torsions:
REMARK  status: ('A' for Active; 'I' for Inactive)
REMARK    1  A    between atoms: C_1  and  C_2
REMARK    2  A    between atoms: N_8  and  S_9
REMARK    3  A    between atoms: S_9  and  C_12
REMARK    4  A    between atoms: C_22  and  C_24
REMARK                            x       y       z     vdW  Elec       q    Type
REMARK                         _______ _______ _______ _____ _____    ______ ____
ROOT
ATOM      1  C   UNL     1      -5.673   0.123  -0.308  0.00  0.00    +0.106 A 
ATOM      2  C   UNL     1      -6.118  -0.525   0.829  0.00  0.00    +0.030 A 
ATOM      3  C   UNL     1      -6.806  -1.717   0.717  0.00  0.00    +0.026 A 
ATOM      4  C   UNL     1      -7.050  -2.264  -0.538  0.00  0.00    +0.040 A 
ATOM      5  C   UNL     1      -6.605  -1.613  -1.677  0.00  0.00    -0.024 A 
ATOM      6  C   UNL     1      -5.920  -0.415  -1.556  0.00  0.00    +0.034 A 
ATOM      7  C   UNL     1      -6.857  -2.172  -3.053  0.00  0.00    +0.038 C 
ATOM      8  C   UNL     1      -7.151  -3.670  -2.976  0.00  0.00    +0.024 C 
ATOM      9  C   UNL     1      -8.256  -3.906  -1.938  0.00  0.00    +0.114 C 
ATOM     10  N   UNL     1      -7.743  -3.479  -0.630  0.00  0.00    -0.271 N 
ATOM     11  C   UNL     1      -7.935  -4.243   0.464  0.00  0.00    +0.217 C 
ATOM     12  O   UNL     1      -7.546  -3.860   1.547  0.00  0.00    -0.276 OA
ATOM     13  C   UNL     1      -8.632  -5.573   0.341  0.00  0.00    +0.109 C 
ENDROOT
BRANCH   1  14
ATOM     14  S   UNL     1      -4.794   1.644  -0.166  0.00  0.00    +0.061 S 
ATOM     15  O   UNL     1      -5.173   2.216   1.079  0.00  0.00    -0.153 OA
ATOM     16  O   UNL     1      -4.961   2.327  -1.401  0.00  0.00    -0.153 OA
BRANCH  14  23
ATOM     17  C   UNL     1      -3.221   1.311  -2.496  0.00  0.00    +0.026 C 
ATOM     18  C   UNL     1      -2.385   1.013  -1.250  0.00  0.00    +0.077 C 
ATOM     19  C   UNL     1      -1.153   1.925  -1.228  0.00  0.00    +0.020 C 
ATOM     20  C   UNL     1      -0.396   1.721   0.086  0.00  0.00    +0.003 C 
ATOM     21  C   UNL     1      -1.300   2.100   1.262  0.00  0.00    +0.017 C 
ATOM     22  C   UNL     1      -2.532   1.191   1.268  0.00  0.00    +0.110 C 
ATOM     23  N   UNL     1      -3.185   1.271  -0.045  0.00  0.00    -0.174 NA
ENDBRANCH  14  23
ENDBRANCH   1  14
TORSDOF 2
