REMARK  Name = ZINC63102175
REMARK  7 active torsions:
REMARK  status: ('A' for Active; 'I' for Inactive)
REMARK    1  A    between atoms: C_7  and  C_10
REMARK    2  A    between atoms: C_10  and  C_11
REMARK    3  A    between atoms: C_11  and  N_12
REMARK    4  A    between atoms: N_12  and  C_13
REMARK    5  A    between atoms: C_13  and  S_15
REMARK    6  A    between atoms: S_15  and  C_16
REMARK    7  A    between atoms: C_16  and  C_17
REMARK                            x       y       z     vdW  Elec       q    Type
REMARK                         _______ _______ _______ _____ _____    ______ ____
ROOT
ATOM      1  N   UNL     1      -0.458  -4.798  -1.460  0.00  0.00    -0.333 N 
ATOM      2  H   UNL     1      -0.810  -5.136  -0.622  0.00  0.00    +0.147 HD
ENDROOT
BRANCH   1   3
ATOM      3  C   UNL     1      -0.811  -5.380  -2.623  0.00  0.00    +0.107 C 
ATOM      4  S   UNL     1      -0.189  -4.783  -4.103  0.00  0.00    -0.028 S 
BRANCH   3   5
ATOM      5  S   UNL     1      -1.911  -6.756  -2.621  0.00  0.00    -0.101 S 
BRANCH   5   6
ATOM      6  C   UNL     1      -2.082  -7.184  -4.376  0.00  0.00    +0.096 C 
BRANCH   6   7
ATOM      7  C   UNL     1      -3.024  -8.381  -4.520  0.00  0.00    +0.084 C 
ATOM      8  C   UNL     1      -3.148  -8.809  -6.005  0.00  0.00    +0.127 C 
ATOM      9  N   UNL     1      -4.500  -9.361  -6.112  0.00  0.00    -0.301 N 
ATOM     10  C   UNL     1      -5.098 -10.021  -7.156  0.00  0.00    +0.075 C 
ATOM     11  C   UNL     1      -6.424  -9.753  -7.308  0.00  0.00    +0.034 C 
ATOM     12  C   UNL     1      -7.064  -8.866  -6.415  0.00  0.00    +0.110 C 
ATOM     13  N   UNL     1      -6.538  -8.486  -5.288  0.00  0.00    -0.254 NA
ATOM     14  C   UNL     1      -5.235  -9.012  -4.879  0.00  0.00    +0.264 C 
ATOM     15  N   UNL     1      -4.425  -7.997  -4.175  0.00  0.00    -0.275 NA
ATOM     16  H   UNL     1      -4.576  -8.038  -3.178  0.00  0.00    +0.126 HD
ENDBRANCH   6   7
ENDBRANCH   5   6
ENDBRANCH   3   5
ENDBRANCH   1   3
BRANCH   1  17
ATOM     17  C   UNL     1       0.457  -3.653  -1.462  0.00  0.00    +0.107 C 
BRANCH  17  18
ATOM     18  C   UNL     1       0.691  -3.186  -0.024  0.00  0.00    +0.052 C 
BRANCH  18  25
ATOM     19  C   UNL     1      -0.016   1.348   0.009  0.00  0.00    +0.001 A 
ATOM     20  C   UNL     1       1.166   2.101   0.002  0.00  0.00    +0.002 A 
ATOM     21  C   UNL     1       2.391   1.535  -0.013  0.00  0.00    +0.026 A 
ATOM     22  C   UNL     1       2.529   0.120  -0.022  0.00  0.00    +0.043 A 
ATOM     23  N   UNL     1       3.587  -0.654  -0.037  0.00  0.00    -0.380 N 
ATOM     24  C   UNL     1       3.143  -2.053  -0.041  0.00  0.00    +0.144 C 
ATOM     25  C   UNL     1       1.631  -2.008  -0.025  0.00  0.00    -0.040 C 
ATOM     26  C   UNL     1       1.295  -0.698  -0.014  0.00  0.00    -0.001 A 
ATOM     27  C   UNL     1       0.002  -0.004   0.002  0.00  0.00    +0.010 A 
ATOM     28  H   UNL     1       4.509  -0.353  -0.045  0.00  0.00    +0.160 HD
ENDBRANCH  18  25
ENDBRANCH  17  18
ENDBRANCH   1  17
TORSDOF 7
