REMARK  Name = ZINC52757266
REMARK  10 active torsions:
REMARK  status: ('A' for Active; 'I' for Inactive)
REMARK    1  A    between atoms: C_1  and  C_2
REMARK    2  A    between atoms: C_2  and  C_3
REMARK    3  A    between atoms: C_3  and  C_5
REMARK    4  A    between atoms: C_3  and  N_23
REMARK    5  A    between atoms: C_5  and  C_7
REMARK    6  A    between atoms: C_5  and  N_13
REMARK    7  A    between atoms: C_17  and  C_19
REMARK    8  A    between atoms: C_19  and  C_20
REMARK    9  A    between atoms: C_20  and  C_21
REMARK   10  A    between atoms: C_21  and  O_22
REMARK                            x       y       z     vdW  Elec       q    Type
REMARK                         _______ _______ _______ _____ _____    ______ ____
ROOT
ATOM      1  C   UNL     1       0.599  -2.180  -0.671  0.00  0.00    +0.079 C 
ENDROOT
BRANCH   1   2
ATOM      2  C   UNL     1       1.530  -2.280  -1.852  0.00  0.00    +0.007 A 
ATOM      3  C   UNL     1       2.788  -2.781  -1.907  0.00  0.00    +0.014 A 
ATOM      4  C   UNL     1       3.462  -2.771  -3.114  0.00  0.00    +0.028 A 
ATOM      5  C   UNL     1       2.843  -2.259  -4.207  0.00  0.00    +0.078 A 
ATOM      6  S   UNL     1       1.258  -1.778  -3.543  0.00  0.00    -0.080 S 
ATOM      7 CL   UNL     1       3.437  -2.117  -5.833  0.00  0.00    -0.076 Cl
ENDBRANCH   1   2
BRANCH   1   8
ATOM      8  N   UNL     1      -0.783  -2.397  -1.117  0.00  0.00    -0.294 NA
ATOM      9  C   UNL     1      -1.730  -2.277   0.013  0.00  0.00    +0.085 C 
ATOM     10  C   UNL     1      -2.855  -3.293  -0.305  0.00  0.00    +0.017 C 
ATOM     11  C   UNL     1      -2.054  -4.460  -0.940  0.00  0.00    +0.020 C 
ATOM     12  C   UNL     1      -0.940  -3.732  -1.721  0.00  0.00    +0.057 C 
BRANCH  12  13
ATOM     13  C   UNL     1       0.371  -4.512  -1.607  0.00  0.00    +0.021 C 
BRANCH  13  14
ATOM     14  C   UNL     1       0.158  -5.944  -2.103  0.00  0.00    +0.029 C 
BRANCH  14  15
ATOM     15  C   UNL     1       1.435  -6.757  -1.880  0.00  0.00    +0.156 C 
BRANCH  15  16
ATOM     16  O   UNL     1       1.275  -8.059  -2.446  0.00  0.00    -0.395 OA
ATOM     17  H   UNL     1       2.017  -8.655  -2.276  0.00  0.00    +0.209 HD
ENDBRANCH  15  16
ENDBRANCH  14  15
ENDBRANCH  13  14
ENDBRANCH  12  13
ENDBRANCH   1   8
BRANCH   1  18
ATOM     18  C   UNL     1       0.720  -0.790  -0.043  0.00  0.00    -0.053 C 
BRANCH  18  19
ATOM     19  N   UNL     1       2.138  -0.478   0.187  0.00  0.00    +0.381 N 
ATOM     20  H   UNL     1       2.536  -1.164   0.810  0.00  0.00    -0.090 HD
ATOM     21  H   UNL     1       2.632  -0.494  -0.692  0.00  0.00    -0.090 HD
ATOM     22  H   UNL     1       2.217   0.439   0.601  0.00  0.00    -0.090 HD
ENDBRANCH  18  19
BRANCH  18  24
ATOM     23  C   UNL     1       0.261   0.551   2.015  0.00  0.00    +0.002 C 
ATOM     24  C   UNL     1      -0.030  -0.765   1.290  0.00  0.00    -0.018 C 
ENDBRANCH  18  24
ENDBRANCH   1  18
TORSDOF 9
