REMARK  Name = ZINC61913110
REMARK  6 active torsions:
REMARK  status: ('A' for Active; 'I' for Inactive)
REMARK    1  A    between atoms: C_1  and  C_2
REMARK    2  A    between atoms: N_5  and  C_10
REMARK    3  A    between atoms: C_10  and  C_11
REMARK    4  A    between atoms: C_11  and  C_13
REMARK    5  A    between atoms: C_11  and  O_20
REMARK    6  A    between atoms: C_16  and  N_19
REMARK                            x       y       z     vdW  Elec       q    Type
REMARK                         _______ _______ _______ _____ _____    ______ ____
ROOT
ATOM      1  C   UNL     1      -2.600  -3.569  -1.831  0.00  0.00    +0.128 C 
ENDROOT
BRANCH   1   2
ATOM      2  C   UNL     1      -3.839  -3.823  -2.651  0.00  0.00    -0.021 A 
ATOM      3  C   UNL     1      -3.880  -3.433  -3.978  0.00  0.00    +0.008 A 
ATOM      4  C   UNL     1      -5.013  -3.665  -4.732  0.00  0.00    +0.023 A 
ATOM      5  C   UNL     1      -6.112  -4.290  -4.158  0.00  0.00    +0.025 A 
ATOM      6  C   UNL     1      -6.068  -4.680  -2.825  0.00  0.00    +0.023 A 
ATOM      7  C   UNL     1      -4.929  -4.451  -2.078  0.00  0.00    +0.008 A 
BRANCH   5   8
ATOM      8  N   UNL     1      -7.260  -4.525  -4.918  0.00  0.00    -0.358 N 
ATOM      9  H   UNL     1      -7.290  -4.251  -5.848  0.00  0.00    +0.142 HD
ATOM     10  H   UNL     1      -8.027  -4.961  -4.516  0.00  0.00    +0.142 HD
ENDBRANCH   5   8
ENDBRANCH   1   2
BRANCH   1  11
ATOM     11  O   UNL     1      -1.444  -3.705  -2.660  0.00  0.00    -0.389 OA
ATOM     12  H   UNL     1      -1.422  -3.092  -3.407  0.00  0.00    +0.210 HD
ENDBRANCH   1  11
BRANCH   1  13
ATOM     13  C   UNL     1      -2.652  -2.152  -1.255  0.00  0.00    -0.042 C 
BRANCH  13  17
ATOM     14  C   UNL     1      -0.019   1.526   0.010  0.00  0.00    +0.036 C 
ATOM     15  C   UNL     1       0.002  -0.004   0.002  0.00  0.00    +0.099 C 
ATOM     16  C   UNL     1      -1.450  -0.526  -0.016  0.00  0.00    -0.047 C 
ATOM     17  N   UNL     1      -1.445  -1.905  -0.456  0.00  0.00    +0.383 N 
ATOM     18  C   UNL     1      -1.414  -2.862   0.673  0.00  0.00    -0.076 C 
ATOM     19  C   UNL     1      -0.452  -2.424   1.784  0.00  0.00    +0.009 C 
ATOM     20  C   UNL     1       0.840  -1.869   1.235  0.00  0.00    +0.158 C 
ATOM     21  O   UNL     1       0.685  -0.445   1.096  0.00  0.00    -0.379 OA
ATOM     22  H   UNL     1      -0.634  -2.059  -1.036  0.00  0.00    -0.082 HD
ENDBRANCH  13  17
ENDBRANCH   1  13
TORSDOF 5
