REMARK  Name = ZINC42362317
REMARK  9 active torsions:
REMARK  status: ('A' for Active; 'I' for Inactive)
REMARK    1  A    between atoms: C_1  and  N_2
REMARK    2  A    between atoms: N_2  and  C_3
REMARK    3  A    between atoms: N_2  and  C_15
REMARK    4  A    between atoms: C_3  and  C_4
REMARK    5  A    between atoms: C_4  and  O_5
REMARK    6  A    between atoms: O_5  and  C_6
REMARK    7  A    between atoms: C_11  and  C_12
REMARK    8  A    between atoms: C_12  and  N_14
REMARK    9  A    between atoms: C_15  and  C_16
REMARK                            x       y       z     vdW  Elec       q    Type
REMARK                         _______ _______ _______ _____ _____    ______ ____
ROOT
ATOM      1  C   UNL     1      -2.109   0.099   1.239  0.00  0.00    +0.210 C 
ENDROOT
BRANCH   1   2
ATOM      2  C   UNL     1      -1.411  -0.404  -0.026  0.00  0.00    -0.037 C 
BRANCH   2   4
ATOM      3  C   UNL     1       0.590  -0.254  -1.341  0.00  0.00    -0.096 C 
ATOM      4  N   UNL     1      -0.031   0.099  -0.058  0.00  0.00    +0.383 N 
ATOM      5  H   UNL     1      -0.037   1.103   0.049  0.00  0.00    -0.082 HD
BRANCH   4   6
ATOM      6  C   UNL     1       0.735  -0.506   1.040  0.00  0.00    -0.043 C 
BRANCH   6   7
ATOM      7  C   UNL     1       2.114   0.101   1.084  0.00  0.00    -0.056 A 
ATOM      8  C   UNL     1       3.150  -0.458   0.359  0.00  0.00    +0.024 A 
ATOM      9  C   UNL     1       4.378   0.113   0.420  0.00  0.00    +0.055 A 
ATOM     10  S   UNL     1       4.093   1.484   1.529  0.00  0.00    -0.090 S 
ATOM     11  C   UNL     1       2.355   1.206   1.830  0.00  0.00    +0.048 A 
ATOM     12 BR   UNL     1       5.978  -0.407  -0.443  0.00  0.00    -0.043 Br
ENDBRANCH   6   7
ENDBRANCH   4   6
ENDBRANCH   2   4
ENDBRANCH   1   2
BRANCH   1  13
ATOM     13  O   UNL     1      -2.224   1.522   1.187  0.00  0.00    -0.493 OA
BRANCH  13  14
ATOM     14  C   UNL     1      -2.823   2.131   2.240  0.00  0.00    +0.130 A 
ATOM     15  C   UNL     1      -3.288   1.378   3.308  0.00  0.00    +0.046 A 
ATOM     16  C   UNL     1      -3.898   1.999   4.380  0.00  0.00    +0.004 A 
ATOM     17  C   UNL     1      -4.051   3.376   4.398  0.00  0.00    +0.001 A 
ATOM     18  C   UNL     1      -3.595   4.140   3.346  0.00  0.00    +0.014 A 
ATOM     19  C   UNL     1      -2.971   3.525   2.257  0.00  0.00    +0.045 A 
BRANCH  19  20
ATOM     20  C   UNL     1      -2.476   4.337   1.131  0.00  0.00    +0.080 C 
ATOM     21  S   UNL     1      -1.719   3.578  -0.203  0.00  0.00    -0.035 S 
BRANCH  20  22
ATOM     22  N   UNL     1      -2.620   5.677   1.152  0.00  0.00    -0.352 N 
ATOM     23  H   UNL     1      -3.049   6.107   1.908  0.00  0.00    +0.143 HD
ATOM     24  H   UNL     1      -2.295   6.211   0.410  0.00  0.00    +0.143 HD
ENDBRANCH  20  22
ENDBRANCH  19  20
ENDBRANCH  13  14
ENDBRANCH   1  13
TORSDOF 8
