REMARK  Name = ZINC51361958
REMARK  4 active torsions:
REMARK  status: ('A' for Active; 'I' for Inactive)
REMARK    1  A    between atoms: C_1  and  N_2
REMARK    2  A    between atoms: C_6  and  C_12
REMARK    3  A    between atoms: C_12  and  C_14
REMARK    4  A    between atoms: C_12  and  N_21
REMARK                            x       y       z     vdW  Elec       q    Type
REMARK                         _______ _______ _______ _____ _____    ______ ____
ROOT
ATOM      1  C   UNL     1      -3.837  -4.135  -0.000  0.00  0.00    -0.013 C 
ENDROOT
BRANCH   1   7
ATOM      2  C   UNL     1      -0.018   1.461   0.010  0.00  0.00    +0.156 C 
ATOM      3  N   UNL     1       0.002  -0.004   0.002  0.00  0.00    -0.277 N 
ATOM      4  C   UNL     1      -1.111  -0.844   0.003  0.00  0.00    +0.090 A 
ATOM      5  C   UNL     1      -2.478  -0.613   0.010  0.00  0.00    +0.030 A 
ATOM      6  C   UNL     1      -3.355  -1.680   0.009  0.00  0.00    +0.004 A 
ATOM      7  C   UNL     1      -2.873  -2.977   0.000  0.00  0.00    -0.054 A 
ATOM      8  C   UNL     1      -1.513  -3.215  -0.008  0.00  0.00    +0.050 A 
ATOM      9  C   UNL     1      -0.625  -2.151  -0.007  0.00  0.00    +0.157 A 
ATOM     10  O   UNL     1       0.729  -2.076  -0.013  0.00  0.00    -0.407 OA
ATOM     11  C   UNL     1       1.100  -0.786  -0.013  0.00  0.00    +0.421 A 
ATOM     12  O   UNL     1       2.248  -0.385  -0.022  0.00  0.00    -0.223 OA
ENDBRANCH   1   7
BRANCH   1  13
ATOM     13  C   UNL     1      -4.356  -4.357  -1.398  0.00  0.00    -0.058 A 
ATOM     14  C   UNL     1      -5.365  -3.554  -1.896  0.00  0.00    +0.003 A 
ATOM     15  C   UNL     1      -5.841  -3.757  -3.178  0.00  0.00    +0.014 A 
ATOM     16  C   UNL     1      -5.307  -4.763  -3.962  0.00  0.00    +0.013 A 
ATOM     17  C   UNL     1      -4.297  -5.566  -3.463  0.00  0.00    +0.014 A 
ATOM     18  C   UNL     1      -3.818  -5.359  -2.184  0.00  0.00    +0.003 A 
ATOM     19  I   UNL     1      -6.028  -5.072  -5.904  0.00  0.00    -0.044 I 
ENDBRANCH   1  13
BRANCH   1  20
ATOM     20  N   UNL     1      -4.961  -3.837   0.897  0.00  0.00    +0.385 N 
ATOM     21  H   UNL     1      -4.614  -3.689   1.833  0.00  0.00    -0.089 HD
ATOM     22  H   UNL     1      -5.435  -3.005   0.579  0.00  0.00    -0.089 HD
ATOM     23  H   UNL     1      -5.607  -4.613   0.897  0.00  0.00    -0.089 HD
ENDBRANCH   1  20
TORSDOF 3
