REMARK  Name = ZINC67057618
REMARK  5 active torsions:
REMARK  status: ('A' for Active; 'I' for Inactive)
REMARK    1  A    between atoms: C_3  and  C_20
REMARK    2  A    between atoms: C_5  and  N_7
REMARK    3  A    between atoms: C_8  and  C_10
REMARK    4  A    between atoms: C_20  and  N_21
REMARK    5  A    between atoms: C_25  and  C_27
REMARK                            x       y       z     vdW  Elec       q    Type
REMARK                         _______ _______ _______ _____ _____    ______ ____
ROOT
ATOM      1  C   UNL     1      -0.028   1.373  -0.012  0.00  0.00    +0.002 A 
ATOM      2  C   UNL     1       1.157   2.086  -0.017  0.00  0.00    +0.002 A 
ATOM      3  C   UNL     1       2.369   1.419  -0.023  0.00  0.00    -0.062 A 
ATOM      4  C   UNL     1       2.399   0.038  -0.025  0.00  0.00    +0.025 A 
ATOM      5  C   UNL     1       1.211  -0.681  -0.019  0.00  0.00    +0.034 A 
ATOM      6  C   UNL     1      -0.004  -0.008  -0.013  0.00  0.00    +0.023 A 
ENDROOT
BRANCH   5   7
ATOM      7  N   UNL     1       1.238  -2.079  -0.021  0.00  0.00    -0.281 N 
ATOM      8  C   UNL     1       0.299  -2.772   0.654  0.00  0.00    +0.252 C 
ATOM      9  O   UNL     1      -0.619  -2.185   1.194  0.00  0.00    -0.270 OA
ATOM     10  H   UNL     1       1.932  -2.550  -0.508  0.00  0.00    +0.155 HD
BRANCH   8  11
ATOM     11  C   UNL     1       0.386  -4.242   0.737  0.00  0.00    +0.082 A 
ATOM     12  C   UNL     1       1.443  -4.919   0.122  0.00  0.00    +0.017 A 
ATOM     13  C   UNL     1       1.519  -6.292   0.202  0.00  0.00    +0.005 A 
ATOM     14  C   UNL     1       0.553  -7.008   0.889  0.00  0.00    +0.049 A 
ATOM     15  C   UNL     1      -0.501  -6.351   1.504  0.00  0.00    +0.163 A 
ATOM     16  C   UNL     1      -0.588  -4.966   1.438  0.00  0.00    +0.174 A 
ATOM     17  O   UNL     1      -1.606  -4.301   2.044  0.00  0.00    -0.484 OA
ATOM     18  C   UNL     1      -2.752  -5.076   2.412  0.00  0.00    +0.270 C 
ATOM     19  C   UNL     1      -2.264  -6.358   3.101  0.00  0.00    +0.270 C 
ATOM     20  O   UNL     1      -1.442  -7.076   2.171  0.00  0.00    -0.485 OA
ENDBRANCH   8  11
ENDBRANCH   5   7
BRANCH   3  21
ATOM     21  C   UNL     1       3.658   2.200  -0.029  0.00  0.00    -0.042 C 
BRANCH  21  22
ATOM     22  N   UNL     1       4.084   2.453   1.353  0.00  0.00    +0.390 N 
ATOM     23  C   UNL     1       3.112   3.347   2.018  0.00  0.00    -0.077 C 
ATOM     24  C   UNL     1       3.970   4.248   2.941  0.00  0.00    -0.020 C 
ATOM     25  C   UNL     1       5.239   4.465   2.075  0.00  0.00    -0.008 C 
ATOM     26  C   UNL     1       5.403   3.111   1.354  0.00  0.00    +0.019 C 
ATOM     27  H   UNL     1       4.139   1.581   1.857  0.00  0.00    -0.080 HD
BRANCH  26  28
ATOM     28  C   UNL     1       6.402   2.256   2.090  0.00  0.00    +0.197 C 
ATOM     29  O   UNL     1       6.057   1.198   2.572  0.00  0.00    -0.278 OA
ATOM     30  N   UNL     1       7.680   2.667   2.213  0.00  0.00    -0.331 N 
ATOM     31  H   UNL     1       7.956   3.514   1.828  0.00  0.00    +0.145 HD
ATOM     32  H   UNL     1       8.323   2.117   2.687  0.00  0.00    +0.145 HD
ENDBRANCH  26  28
ENDBRANCH  21  22
ENDBRANCH   3  21
TORSDOF 5
