REMARK  Name = ZINC00934299
REMARK  8 active torsions:
REMARK  status: ('A' for Active; 'I' for Inactive)
REMARK    1  A    between atoms: C_1  and  N_43
REMARK    2  A    between atoms: C_2  and  N_43
REMARK    3  A    between atoms: C_3  and  C_4
REMARK    4  A    between atoms: C_3  and  N_43
REMARK    5  A    between atoms: C_5  and  O_27
REMARK    6  A    between atoms: C_11  and  C_23
REMARK    7  A    between atoms: C_12  and  O_15
REMARK    8  A    between atoms: O_15  and  C_16
REMARK                            x       y       z     vdW  Elec       q    Type
REMARK                         _______ _______ _______ _____ _____    ______ ____
ROOT
ATOM      1  C   UNL     1      -1.312  -2.034  -0.243  0.00  0.00    +0.020 A 
ATOM      2  C   UNL     1      -1.200  -2.918   0.817  0.00  0.00    +0.122 A 
ATOM      3  C   UNL     1      -1.153  -4.292   0.592  0.00  0.00    +0.046 A 
ATOM      4  C   UNL     1      -1.217  -4.786  -0.680  0.00  0.00    +0.019 A 
ATOM      5  C   UNL     1      -1.330  -3.909  -1.758  0.00  0.00    +0.068 A 
ATOM      6  C   UNL     1      -1.383  -2.520  -1.541  0.00  0.00    +0.144 A 
ATOM      7  O   UNL     1      -1.486  -1.681  -2.591  0.00  0.00    -0.447 OA
ATOM      8  C   UNL     1      -1.553  -2.118  -3.855  0.00  0.00    +0.254 A 
ATOM      9  C   UNL     1      -1.515  -3.427  -4.177  0.00  0.00    +0.222 A 
ATOM     10  C   UNL     1      -1.401  -4.401  -3.145  0.00  0.00    +0.235 A 
ATOM     11  O   UNL     1      -1.364  -5.593  -3.398  0.00  0.00    -0.283 OA
ENDROOT
BRANCH   8  12
ATOM     12  C   UNL     1      -1.673  -1.105  -4.964  0.00  0.00    +0.454 C 
ATOM     13  F   UNL     1      -3.025  -0.851  -5.219  0.00  0.00    -0.163 F 
ATOM     14  F   UNL     1      -1.039   0.082  -4.582  0.00  0.00    -0.163 F 
ATOM     15  F   UNL     1      -1.067  -1.606  -6.122  0.00  0.00    -0.163 F 
ENDBRANCH   8  12
BRANCH   2  16
ATOM     16  O   UNL     1      -1.136  -2.441   2.087  0.00  0.00    -0.506 OA
ATOM     17  H   UNL     1      -1.998  -2.343   2.514  0.00  0.00    +0.292 HD
ENDBRANCH   2  16
BRANCH   1  18
ATOM     18  C   UNL     1      -1.362  -0.549   0.012  0.00  0.00    -0.036 C 
BRANCH  18  21
ATOM     19  C   UNL     1      -0.018   1.465   0.010  0.00  0.00    -0.096 C 
ATOM     20  C   UNL     1       0.786  -0.526   1.129  0.00  0.00    -0.096 C 
ATOM     21  N   UNL     1       0.015  -0.013  -0.022  0.00  0.00    +0.379 N 
ATOM     22  H   UNL     1       0.470  -0.317  -0.891  0.00  0.00    -0.082 HD
ENDBRANCH  18  21
ENDBRANCH   1  18
BRANCH   9  23
ATOM     23  O   UNL     1      -1.585  -3.814  -5.480  0.00  0.00    -0.447 OA
BRANCH  23  24
ATOM     24  C   UNL     1      -2.814  -4.050  -6.011  0.00  0.00    +0.143 A 
ATOM     25  C   UNL     1      -3.950  -3.900  -5.227  0.00  0.00    +0.047 A 
ATOM     26  C   UNL     1      -5.198  -4.135  -5.770  0.00  0.00    +0.004 A 
ATOM     27  C   UNL     1      -5.316  -4.530  -7.090  0.00  0.00    +0.001 A 
ATOM     28  C   UNL     1      -4.186  -4.686  -7.872  0.00  0.00    +0.019 A 
ATOM     29  C   UNL     1      -2.935  -4.447  -7.335  0.00  0.00    +0.060 A 
ATOM     30 BR   UNL     1      -1.390  -4.660  -8.405  0.00  0.00    -0.046 Br
ENDBRANCH  23  24
ENDBRANCH   9  23
TORSDOF 6
