REMARK  Name = ZINC32716541
REMARK  9 active torsions:
REMARK  status: ('A' for Active; 'I' for Inactive)
REMARK    1  A    between atoms: C_1  and  C_2
REMARK    2  A    between atoms: C_2  and  C_4
REMARK    3  A    between atoms: C_2  and  N_14
REMARK    4  A    between atoms: C_4  and  C_6
REMARK    5  A    between atoms: C_4  and  O_13
REMARK    6  A    between atoms: C_9  and  O_12
REMARK    7  A    between atoms: C_15  and  C_17
REMARK    8  A    between atoms: C_17  and  O_18
REMARK    9  A    between atoms: O_18  and  C_19
REMARK                            x       y       z     vdW  Elec       q    Type
REMARK                         _______ _______ _______ _____ _____    ______ ____
ROOT
ATOM      1  N   UNL     1       1.406   1.632   2.440  0.00  0.00    -0.307 N 
ATOM      2  C   UNL     1       2.117   1.818   3.570  0.00  0.00    +0.251 C 
ATOM      3  O   UNL     1       3.301   1.557   3.591  0.00  0.00    -0.272 OA
ATOM      4  H   UNL     1       0.332   1.869   2.421  0.00  0.00    +0.149 HD
ENDROOT
BRANCH   1   6
ATOM      5  C   UNL     1       2.098  -0.415   1.294  0.00  0.00    +0.031 C 
ATOM      6  C   UNL     1       2.064   1.114   1.238  0.00  0.00    +0.103 C 
BRANCH   6   7
ATOM      7  C   UNL     1       1.286   1.562  -0.002  0.00  0.00    +0.164 C 
BRANCH   7   8
ATOM      8  C   UNL     1       2.028   1.134  -1.242  0.00  0.00    -0.017 A 
ATOM      9  C   UNL     1       1.851  -0.141  -1.747  0.00  0.00    +0.010 A 
ATOM     10  C   UNL     1       2.526  -0.534  -2.887  0.00  0.00    +0.046 A 
ATOM     11  C   UNL     1       3.391   0.348  -3.518  0.00  0.00    +0.117 A 
ATOM     12  C   UNL     1       3.571   1.625  -3.006  0.00  0.00    +0.046 A 
ATOM     13  C   UNL     1       2.890   2.015  -1.869  0.00  0.00    +0.010 A 
BRANCH  11  14
ATOM     14  O   UNL     1       4.061  -0.038  -4.635  0.00  0.00    -0.507 OA
ATOM     15  H   UNL     1       4.747   0.662  -5.135  0.00  0.00    +0.292 HD
ENDBRANCH  11  14
ENDBRANCH   7   8
BRANCH   7  16
ATOM     16  O   UNL     1      -0.011   0.963   0.007  0.00  0.00    -0.385 OA
ATOM     17  H   UNL     1      -0.718   1.169  -0.810  0.00  0.00    +0.210 HD
ENDBRANCH   7  16
ENDBRANCH   6   7
ENDBRANCH   1   6
BRANCH   2  18
ATOM     18  C   UNL     1       1.440   2.351   4.806  0.00  0.00    +0.324 C 
BRANCH  18  19
ATOM     19  O   UNL     1       2.397   2.459   5.863  0.00  0.00    -0.483 OA
BRANCH  19  20
ATOM     20  C   UNL     1       1.946   2.928   7.057  0.00  0.00    +0.121 A 
ATOM     21  C   UNL     1       0.612   3.276   7.209  0.00  0.00    +0.046 A 
ATOM     22  C   UNL     1       0.160   3.751   8.423  0.00  0.00    +0.007 A 
ATOM     23  C   UNL     1       1.032   3.882   9.491  0.00  0.00    -0.044 A 
ATOM     24  C   UNL     1       2.362   3.535   9.342  0.00  0.00    -0.041 A 
ATOM     25  C   UNL     1       2.818   3.053   8.127  0.00  0.00    +0.049 A 
ATOM     26  C   UNL     1       3.100   3.767  10.643  0.00  0.00    +0.036 C 
ATOM     27  C   UNL     1       1.999   3.875  11.719  0.00  0.00    +0.009 C 
ATOM     28  C   UNL     1       0.786   4.371  10.903  0.00  0.00    +0.036 C 
ENDBRANCH  19  20
ENDBRANCH  18  19
ENDBRANCH   2  18
TORSDOF 8
