REMARK  Name = ZINC42398101
REMARK  9 active torsions:
REMARK  status: ('A' for Active; 'I' for Inactive)
REMARK    1  A    between atoms: C_1  and  C_2
REMARK    2  A    between atoms: C_2  and  O_3
REMARK    3  A    between atoms: O_3  and  C_4
REMARK    4  A    between atoms: C_7  and  N_20
REMARK    5  A    between atoms: C_9  and  C_10
REMARK    6  A    between atoms: C_10  and  N_11
REMARK    7  A    between atoms: N_11  and  C_12
REMARK    8  A    between atoms: N_11  and  C_13
REMARK    9  A    between atoms: C_13  and  C_14
REMARK                            x       y       z     vdW  Elec       q    Type
REMARK                         _______ _______ _______ _____ _____    ______ ____
ROOT
ATOM      1  C   UNL     1       0.777  -1.811  -1.336  0.00  0.00    +0.122 A 
ATOM      2  C   UNL     1       0.242  -2.668  -0.386  0.00  0.00    +0.047 A 
ATOM      3  C   UNL     1       0.350  -4.035  -0.550  0.00  0.00    +0.026 A 
ATOM      4  C   UNL     1       0.993  -4.552  -1.667  0.00  0.00    +0.025 A 
ATOM      5  C   UNL     1       1.527  -3.693  -2.618  0.00  0.00    +0.028 A 
ATOM      6  C   UNL     1       1.414  -2.326  -2.455  0.00  0.00    -0.021 A 
ENDROOT
BRANCH   4   7
ATOM      7  N   UNL     1       1.103  -5.937  -1.834  0.00  0.00    -0.358 N 
ATOM      8  H   UNL     1       0.730  -6.536  -1.169  0.00  0.00    +0.142 HD
ATOM      9  H   UNL     1       1.552  -6.297  -2.614  0.00  0.00    +0.142 HD
ENDBRANCH   4   7
BRANCH   1  10
ATOM     10  O   UNL     1       0.671  -0.465  -1.174  0.00  0.00    -0.492 OA
BRANCH  10  12
ATOM     11  C   UNL     1      -0.019   1.526   0.010  0.00  0.00    +0.048 C 
ATOM     12  C   UNL     1       0.002  -0.004   0.002  0.00  0.00    +0.225 C 
ENDBRANCH  10  12
ENDBRANCH   1  10
BRANCH   6  13
ATOM     13  C   UNL     1       1.989  -1.394  -3.490  0.00  0.00    -0.039 C 
BRANCH  13  14
ATOM     14  N   UNL     1       3.289  -0.889  -3.027  0.00  0.00    +0.384 N 
ATOM     15  C   UNL     1       4.242  -2.004  -2.936  0.00  0.00    -0.095 C 
ATOM     16  H   UNL     1       3.180  -0.464  -2.119  0.00  0.00    -0.081 HD
BRANCH  14  17
ATOM     17  C   UNL     1       3.794   0.110  -3.978  0.00  0.00    -0.036 C 
BRANCH  17  18
ATOM     18  C   UNL     1       5.065   0.716  -3.443  0.00  0.00    -0.026 A 
ATOM     19  C   UNL     1       6.346   0.316  -3.631  0.00  0.00    +0.024 A 
ATOM     20  C   UNL     1       7.367   1.033  -3.035  0.00  0.00    +0.025 A 
ATOM     21  C   UNL     1       7.056   2.116  -2.280  0.00  0.00    +0.060 A 
ATOM     22  S   UNL     1       5.275   2.152  -2.403  0.00  0.00    -0.102 S 
ATOM     23 BR   UNL     1       9.170   0.512  -3.268  0.00  0.00    -0.050 Br
ENDBRANCH  17  18
ENDBRANCH  14  17
ENDBRANCH  13  14
ENDBRANCH   6  13
TORSDOF 7
