REMARK  Name = ZINC63314362
REMARK  10 active torsions:
REMARK  status: ('A' for Active; 'I' for Inactive)
REMARK    1  A    between atoms: C_1  and  O_2
REMARK    2  A    between atoms: O_2  and  C_3
REMARK    3  A    between atoms: C_6  and  C_9
REMARK    4  A    between atoms: C_11  and  C_33
REMARK    5  A    between atoms: N_13  and  C_20
REMARK    6  A    between atoms: C_20  and  C_21
REMARK    7  A    between atoms: C_21  and  C_22
REMARK    8  A    between atoms: C_25  and  O_31
REMARK    9  A    between atoms: O_31  and  C_32
REMARK   10  A    between atoms: C_36  and  O_39
REMARK                            x       y       z     vdW  Elec       q    Type
REMARK                         _______ _______ _______ _____ _____    ______ ____
ROOT
ATOM      1  C   UNL     1      -4.963  -2.620   0.035  0.00  0.00    +0.097 C 
ATOM      2  C   UNL     1      -5.122  -3.929   0.039  0.00  0.00    +0.017 C 
ATOM      3  C   UNL     1      -4.745  -5.372   0.275  0.00  0.00    +0.137 C 
ATOM      4  N   UNL     1      -5.847  -5.868   1.136  0.00  0.00    -0.288 N 
ATOM      5  C   UNL     1      -6.957  -5.101   0.945  0.00  0.00    +0.247 C 
ATOM      6  O   UNL     1      -8.009  -5.203   1.539  0.00  0.00    -0.273 OA
ATOM      7  C   UNL     1      -6.639  -4.109  -0.132  0.00  0.00    +0.244 C 
ATOM      8  N   UNL     1      -7.147  -2.760   0.011  0.00  0.00    -0.170 NA
ATOM      9  N   UNL     1      -6.174  -1.989   0.045  0.00  0.00    -0.153 NA
ENDROOT
BRANCH   1  13
ATOM     10  C   UNL     1      -1.200  -0.637   0.010  0.00  0.00    +0.120 A 
ATOM     11  C   UNL     1      -2.374   0.104   0.019  0.00  0.00    +0.046 A 
ATOM     12  C   UNL     1      -3.595  -0.536   0.027  0.00  0.00    +0.013 A 
ATOM     13  C   UNL     1      -3.651  -1.928   0.026  0.00  0.00    +0.002 A 
ATOM     14  C   UNL     1      -2.471  -2.670   0.016  0.00  0.00    +0.013 A 
ATOM     15  C   UNL     1      -1.252  -2.025   0.003  0.00  0.00    +0.046 A 
BRANCH  10  17
ATOM     16  C   UNL     1      -0.017   1.425   0.010  0.00  0.00    +0.277 C 
ATOM     17  O   UNL     1       0.002  -0.004   0.002  0.00  0.00    -0.495 OA
ENDBRANCH  10  17
ENDBRANCH   1  13
BRANCH   3  18
ATOM     18  C   UNL     1      -4.698  -6.131  -1.027  0.00  0.00    -0.023 A 
ATOM     19  C   UNL     1      -5.871  -6.579  -1.607  0.00  0.00    +0.009 A 
ATOM     20  C   UNL     1      -5.831  -7.274  -2.800  0.00  0.00    +0.046 A 
ATOM     21  C   UNL     1      -4.613  -7.523  -3.416  0.00  0.00    +0.117 A 
ATOM     22  C   UNL     1      -3.438  -7.072  -2.832  0.00  0.00    +0.046 A 
ATOM     23  C   UNL     1      -3.484  -6.373  -1.642  0.00  0.00    +0.009 A 
BRANCH  21  24
ATOM     24  O   UNL     1      -4.571  -8.208  -4.589  0.00  0.00    -0.507 OA
ATOM     25  H   UNL     1      -4.630  -7.646  -5.374  0.00  0.00    +0.292 HD
ENDBRANCH  21  24
ENDBRANCH   3  18
BRANCH   4  26
ATOM     26  C   UNL     1      -5.756  -7.008   2.052  0.00  0.00    +0.113 C 
BRANCH  26  27
ATOM     27  C   UNL     1      -5.295  -6.521   3.428  0.00  0.00    +0.052 C 
BRANCH  27  28
ATOM     28  C   UNL     1      -5.201  -7.694   4.370  0.00  0.00    -0.040 C 
ATOM     29  C   UNL     1      -4.096  -8.416   4.661  0.00  0.00    +0.002 A 
ATOM     30  C   UNL     1      -2.704  -8.332   4.206  0.00  0.00    +0.055 A 
ATOM     31  C   UNL     1      -1.792  -9.215   4.682  0.00  0.00    +0.121 A 
ATOM     32  C   UNL     1      -2.131 -10.219   5.605  0.00  0.00    +0.047 A 
ATOM     33  C   UNL     1      -3.385 -10.376   6.081  0.00  0.00    +0.029 A 
ATOM     34  C   UNL     1      -4.452  -9.475   5.633  0.00  0.00    +0.043 A 
ATOM     35  N   UNL     1      -5.725  -9.410   5.931  0.00  0.00    -0.380 N 
ATOM     36  C   UNL     1      -6.323  -8.296   5.186  0.00  0.00    +0.144 C 
ATOM     37  H   UNL     1      -6.194  -9.997   6.545  0.00  0.00    +0.160 HD
BRANCH  31  38
ATOM     38  O   UNL     1      -0.506  -9.126   4.251  0.00  0.00    -0.495 OA
ATOM     39  C   UNL     1       0.421 -10.076   4.779  0.00  0.00    +0.277 C 
ENDBRANCH  31  38
ENDBRANCH  27  28
ENDBRANCH  26  27
ENDBRANCH   4  26
TORSDOF 8
