REMARK  Name = ZINC12881539
REMARK  8 active torsions:
REMARK  status: ('A' for Active; 'I' for Inactive)
REMARK    1  A    between atoms: C_1  and  C_2
REMARK    2  A    between atoms: C_7  and  C_8
REMARK    3  A    between atoms: C_17  and  C_19
REMARK    4  A    between atoms: C_19  and  C_21
REMARK    5  A    between atoms: C_19  and  O_22
REMARK    6  A    between atoms: N_25  and  C_28
REMARK    7  A    between atoms: C_28  and  C_29
REMARK    8  A    between atoms: C_29  and  C_30
REMARK                            x       y       z     vdW  Elec       q    Type
REMARK                         _______ _______ _______ _____ _____    ______ ____
ROOT
ATOM      1  C   UNL     1       3.001   9.768  -0.979  0.00  0.00    +0.044 C 
ATOM      2  C   UNL     1       2.420   8.380  -1.060  0.00  0.00    -0.046 A 
ATOM      3  C   UNL     1       1.155   8.133  -0.559  0.00  0.00    +0.004 A 
ATOM      4  C   UNL     1       0.622   6.858  -0.633  0.00  0.00    +0.005 A 
ATOM      5  C   UNL     1       1.351   5.839  -1.205  0.00  0.00    -0.027 A 
ATOM      6  C   UNL     1       2.624   6.076  -1.713  0.00  0.00    +0.039 A 
ATOM      7  C   UNL     1       3.153   7.362  -1.634  0.00  0.00    -0.026 A 
ATOM      8  C   UNL     1       4.531   7.643  -2.177  0.00  0.00    +0.046 C 
ATOM      9  N   UNL     1       3.161   4.899  -2.239  0.00  0.00    -0.286 N 
ATOM     10  C   UNL     1       2.315   3.857  -2.119  0.00  0.00    +0.211 C 
ATOM     11  O   UNL     1       2.513   2.719  -2.486  0.00  0.00    -0.277 OA
ATOM     12  C   UNL     1       1.080   4.380  -1.440  0.00  0.00    +0.050 C 
ATOM     13  C   UNL     1       0.806   3.640  -0.125  0.00  0.00    +0.088 C 
ATOM     14  C   UNL     1      -0.744   3.561  -0.037  0.00  0.00    +0.075 C 
ATOM     15  C   UNL     1      -1.250   4.271  -1.310  0.00  0.00    -0.028 C 
ATOM     16  C   UNL     1      -1.024   2.080  -0.151  0.00  0.00    +0.224 C 
ATOM     17  O   UNL     1      -2.126   1.573  -0.141  0.00  0.00    -0.275 OA
ATOM     18  N   UNL     1       0.132   1.416  -0.263  0.00  0.00    -0.241 N 
ATOM     19  C   UNL     1       1.221   2.192  -0.261  0.00  0.00    +0.225 C 
ATOM     20  O   UNL     1       2.363   1.797  -0.353  0.00  0.00    -0.275 OA
ATOM     21  H   UNL     1       4.040   4.839  -2.644  0.00  0.00    +0.155 HD
ATOM     22  N   UNL     1      -0.119   4.186  -2.237  0.00  0.00    +0.396 N 
ATOM     23  H   UNL     1      -0.099   3.265  -2.689  0.00  0.00    -0.083 HD
ATOM     24  H   UNL     1      -0.191   4.918  -2.953  0.00  0.00    -0.083 HD
ENDROOT
BRANCH  15  25
ATOM     25  C   UNL     1      -2.482   3.553  -1.866  0.00  0.00    +0.098 C 
ATOM     26  C   UNL     1      -3.667   3.772  -0.924  0.00  0.00    +0.036 C 
BRANCH  25  27
ATOM     27  O   UNL     1      -2.796   4.077  -3.158  0.00  0.00    -0.394 OA
ATOM     28  H   UNL     1      -3.568   3.667  -3.571  0.00  0.00    +0.210 HD
ENDBRANCH  25  27
ENDBRANCH  15  25
BRANCH  18  29
ATOM     29  C   UNL     1       0.199  -0.043  -0.384  0.00  0.00    +0.121 C 
BRANCH  29  30
ATOM     30  C   UNL     1       0.302  -0.666   1.010  0.00  0.00    +0.054 C 
BRANCH  30  31
ATOM     31  C   UNL     1       0.371  -2.166   0.885  0.00  0.00    -0.046 A 
ATOM     32  C   UNL     1      -0.792  -2.915   0.895  0.00  0.00    +0.004 A 
ATOM     33  C   UNL     1      -0.729  -4.290   0.776  0.00  0.00    +0.000 A 
ATOM     34  C   UNL     1       0.497  -4.919   0.658  0.00  0.00    +0.000 A 
ATOM     35  C   UNL     1       1.660  -4.170   0.653  0.00  0.00    +0.000 A 
ATOM     36  C   UNL     1       1.596  -2.794   0.767  0.00  0.00    +0.004 A 
ENDBRANCH  30  31
ENDBRANCH  29  30
ENDBRANCH  18  29
TORSDOF 5
