REMARK  Name = ZINC63636475
REMARK  9 active torsions:
REMARK  status: ('A' for Active; 'I' for Inactive)
REMARK    1  A    between atoms: C_1  and  N_2
REMARK    2  A    between atoms: N_2  and  C_3
REMARK    3  A    between atoms: N_2  and  C_4
REMARK    4  A    between atoms: C_4  and  C_5
REMARK    5  A    between atoms: C_4  and  C_18
REMARK    6  A    between atoms: C_5  and  N_6
REMARK    7  A    between atoms: C_7  and  C_9
REMARK    8  A    between atoms: C_9  and  N_10
REMARK    9  A    between atoms: N_10  and  C_11
REMARK                            x       y       z     vdW  Elec       q    Type
REMARK                         _______ _______ _______ _____ _____    ______ ____
ROOT
ATOM      1  N   UNL     1      -0.167   1.535   2.114  0.00  0.00    -0.315 N 
ATOM      2  C   UNL     1      -0.820   2.254   3.048  0.00  0.00    +0.230 C 
ATOM      3  O   UNL     1      -1.212   1.717   4.062  0.00  0.00    -0.274 OA
ATOM      4  H   UNL     1       0.146   1.964   1.302  0.00  0.00    +0.149 HD
ENDROOT
BRANCH   1   5
ATOM      5  C   UNL     1       0.070   0.104   2.324  0.00  0.00    +0.094 C 
BRANCH   5   6
ATOM      6  C   UNL     1       0.723  -0.493   1.075  0.00  0.00    -0.014 C 
BRANCH   6   7
ATOM      7  C   UNL     1       2.084   0.124   0.876  0.00  0.00    -0.022 A 
ATOM      8  C   UNL     1       2.454   1.123   0.038  0.00  0.00    +0.009 A 
ATOM      9  C   UNL     1       3.774   1.533   0.025  0.00  0.00    +0.008 A 
ATOM     10  C   UNL     1       4.660   0.923   0.850  0.00  0.00    +0.045 A 
ATOM     11  S   UNL     1       3.625  -0.265   1.689  0.00  0.00    -0.103 S 
ENDBRANCH   6   7
BRANCH   6  13
ATOM     12  C   UNL     1      -0.464  -2.551   1.404  0.00  0.00    -0.096 C 
ATOM     13  N   UNL     1       0.865  -1.945   1.244  0.00  0.00    +0.382 N 
ATOM     14  C   UNL     1       1.522  -2.514   0.060  0.00  0.00    -0.096 C 
ATOM     15  H   UNL     1       1.422  -2.136   2.063  0.00  0.00    -0.082 HD
ENDBRANCH   6  13
ENDBRANCH   5   6
ENDBRANCH   1   5
BRANCH   2  16
ATOM     16  C   UNL     1      -1.064   3.725   2.832  0.00  0.00    +0.197 C 
BRANCH  16  17
ATOM     17  N   UNL     1      -1.787   4.274   3.982  0.00  0.00    -0.334 N 
ATOM     18  H   UNL     1      -2.029   3.697   4.723  0.00  0.00    +0.147 HD
BRANCH  17  19
ATOM     19  C   UNL     1      -2.129   5.629   4.011  0.00  0.00    +0.046 A 
ATOM     20  C   UNL     1      -1.789   6.455   2.947  0.00  0.00    +0.024 A 
ATOM     21  C   UNL     1      -2.128   7.793   2.978  0.00  0.00    +0.002 A 
ATOM     22  C   UNL     1      -2.806   8.312   4.067  0.00  0.00    +0.002 A 
ATOM     23  C   UNL     1      -3.146   7.493   5.128  0.00  0.00    +0.022 A 
ATOM     24  C   UNL     1      -2.815   6.151   5.101  0.00  0.00    +0.062 A 
ATOM     25 CL   UNL     1      -3.248   5.122   6.430  0.00  0.00    -0.082 Cl
ENDBRANCH  17  19
ENDBRANCH  16  17
ENDBRANCH   2  16
TORSDOF 7
