REMARK  Name = ZINC48309370
REMARK  12 active torsions:
REMARK  status: ('A' for Active; 'I' for Inactive)
REMARK    1  A    between atoms: C_1  and  C_2
REMARK    2  A    between atoms: C_2  and  N_3
REMARK    3  A    between atoms: N_3  and  C_4
REMARK    4  A    between atoms: N_3  and  C_6
REMARK    5  A    between atoms: C_4  and  C_5
REMARK    6  A    between atoms: C_6  and  C_7
REMARK    7  A    between atoms: C_10  and  C_12
REMARK    8  A    between atoms: N_14  and  N_15
REMARK    9  A    between atoms: C_16  and  C_18
REMARK   10  A    between atoms: C_18  and  C_19
REMARK   11  A    between atoms: C_25  and  C_27
REMARK   12  A    between atoms: C_31  and  C_32
REMARK                            x       y       z     vdW  Elec       q    Type
REMARK                         _______ _______ _______ _____ _____    ______ ____
ROOT
ATOM      1  N   UNL     1      -5.386  -3.428   1.864  0.00  0.00    -0.234 N 
ATOM      2  C   UNL     1      -5.267  -3.590   3.197  0.00  0.00    +0.235 C 
ATOM      3  O   UNL     1      -4.185  -3.462   3.729  0.00  0.00    -0.274 OA
ATOM      4  H   UNL     1      -6.252  -3.531   1.439  0.00  0.00    +0.173 HD
ENDROOT
BRANCH   1   7
ATOM      5  C   UNL     1      -4.380  -2.947  -0.239  0.00  0.00    +0.295 C 
ATOM      6  O   UNL     1      -5.466  -3.076  -0.773  0.00  0.00    -0.265 OA
ATOM      7  N   UNL     1      -4.261  -3.110   1.094  0.00  0.00    -0.228 N 
ATOM      8  H   UNL     1      -3.395  -3.006   1.519  0.00  0.00    +0.173 HD
BRANCH   5  12
ATOM      9  C   UNL     1      -1.131  -2.148  -1.603  0.00  0.00    +0.090 A 
ATOM     10  C   UNL     1      -1.855  -2.125  -2.744  0.00  0.00    +0.043 A 
ATOM     11  C   UNL     1      -3.182  -2.422  -2.397  0.00  0.00    +0.055 A 
ATOM     12  C   UNL     1      -3.201  -2.614  -1.046  0.00  0.00    +0.191 A 
ATOM     13  O   UNL     1      -1.945  -2.448  -0.583  0.00  0.00    -0.457 OA
BRANCH   9  14
ATOM     14  C   UNL     1       0.349  -1.885  -1.497  0.00  0.00    -0.003 C 
BRANCH  14  15
ATOM     15  N   UNL     1       0.576  -0.451  -1.269  0.00  0.00    +0.384 N 
ATOM     16  H   UNL     1       0.124   0.081  -1.997  0.00  0.00    -0.081 HD
BRANCH  15  18
ATOM     17  C   UNL     1       0.123   1.447   0.210  0.00  0.00    -0.017 C 
ATOM     18  C   UNL     1       0.019  -0.069   0.036  0.00  0.00    -0.082 C 
ENDBRANCH  15  18
BRANCH  15  19
ATOM     19  C   UNL     1       2.019  -0.176  -1.285  0.00  0.00    -0.082 C 
ATOM     20  C   UNL     1       2.573  -0.440  -2.687  0.00  0.00    -0.017 C 
ENDBRANCH  15  19
ENDBRANCH  14  15
ENDBRANCH   9  14
ENDBRANCH   5  12
ENDBRANCH   1   7
BRANCH   2  21
ATOM     21  C   UNL     1      -6.478  -3.933   4.026  0.00  0.00    +0.153 C 
BRANCH  21  22
ATOM     22  C   UNL     1      -6.077  -4.059   5.473  0.00  0.00    +0.059 A 
ATOM     23  C   UNL     1      -6.693  -3.339   6.443  0.00  0.00    +0.072 A 
ATOM     24  S   UNL     1      -5.809  -3.905   7.888  0.00  0.00    -0.060 S 
ATOM     25  C   UNL     1      -4.767  -4.979   7.118  0.00  0.00    +0.165 A 
ATOM     26  N   UNL     1      -5.114  -4.878   5.853  0.00  0.00    -0.229 NA
ATOM     27  N   UNL     1      -3.783  -5.781   7.681  0.00  0.00    -0.261 N 
ATOM     28  C   UNL     1      -3.573  -5.755   9.012  0.00  0.00    +0.253 C 
ATOM     29  O   UNL     1      -4.244  -5.029   9.720  0.00  0.00    -0.270 OA
ATOM     30  H   UNL     1      -3.248  -6.361   7.117  0.00  0.00    +0.157 HD
BRANCH  28  31
ATOM     31  C   UNL     1      -2.529  -6.606   9.610  0.00  0.00    +0.078 A 
ATOM     32  C   UNL     1      -1.627  -7.531   8.909  0.00  0.00    +0.054 A 
ATOM     33  C   UNL     1      -0.854  -8.082   9.857  0.00  0.00    +0.196 A 
ATOM     34  O   UNL     1      -1.200  -7.582  11.053  0.00  0.00    -0.467 OA
ATOM     35  C   UNL     1      -2.193  -6.695  10.930  0.00  0.00    +0.114 A 
ATOM     36  C   UNL     1      -2.834  -5.927  12.056  0.00  0.00    +0.087 C 
ENDBRANCH  28  31
ENDBRANCH  21  22
ENDBRANCH   2  21
TORSDOF 9
