REMARK  Name = ZINC08299606
REMARK  10 active torsions:
REMARK  status: ('A' for Active; 'I' for Inactive)
REMARK    1  A    between atoms: C_1  and  C_2
REMARK    2  A    between atoms: C_2  and  C_3
REMARK    3  A    between atoms: C_2  and  C_4
REMARK    4  A    between atoms: C_2  and  C_5
REMARK    5  A    between atoms: C_8  and  C_11
REMARK    6  A    between atoms: C_12  and  C_13
REMARK    7  A    between atoms: C_23  and  N_31
REMARK    8  A    between atoms: C_32  and  C_34
REMARK    9  A    between atoms: C_34  and  N_65
REMARK   10  A    between atoms: C_35  and  N_65
REMARK                            x       y       z     vdW  Elec       q    Type
REMARK                         _______ _______ _______ _____ _____    ______ ____
ROOT
ATOM      1  C   UNL     1       2.456  -4.278  -0.043  0.00  0.00    -0.024 A 
ATOM      2  C   UNL     1       1.259  -5.006  -0.035  0.00  0.00    +0.010 A 
ATOM      3  C   UNL     1       1.289  -6.378  -0.038  0.00  0.00    +0.024 A 
ATOM      4  C   UNL     1       2.505  -7.073  -0.049  0.00  0.00    +0.046 A 
ATOM      5  C   UNL     1       3.702  -6.355  -0.068  0.00  0.00    +0.059 A 
ATOM      6  C   UNL     1       3.671  -4.954  -0.065  0.00  0.00    +0.022 A 
ATOM      7  C   UNL     1       5.023  -7.001  -0.105  0.00  0.00    +0.249 C 
ATOM      8  O   UNL     1       5.930  -6.516   0.544  0.00  0.00    -0.270 OA
ATOM      9  N   UNL     1       5.266  -8.104  -0.826  0.00  0.00    -0.284 N 
ATOM     10  C   UNL     1       6.553  -8.853  -0.929  0.00  0.00    +0.131 C 
ATOM     11  C   UNL     1       6.468  -9.613  -2.277  0.00  0.00    +0.092 C 
ATOM     12  C   UNL     1       4.970 -10.014  -2.314  0.00  0.00    +0.055 C 
ATOM     13  C   UNL     1       4.273  -8.805  -1.657  0.00  0.00    +0.164 C 
ATOM     14  C   UNL     1       3.174  -9.295  -0.750  0.00  0.00    +0.238 C 
ATOM     15  O   UNL     1       2.960 -10.486  -0.669  0.00  0.00    -0.273 OA
ATOM     16  N   UNL     1       2.435  -8.453  -0.036  0.00  0.00    -0.283 N 
ATOM     17  H   UNL     1       1.776  -8.848   0.557  0.00  0.00    +0.155 HD
ENDROOT
BRANCH  11  18
ATOM     18  N   UNL     1       7.329 -10.798  -2.266  0.00  0.00    -0.312 N 
ATOM     19  C   UNL     1       8.592 -10.718  -2.730  0.00  0.00    +0.196 C 
ATOM     20  O   UNL     1       9.016  -9.664  -3.156  0.00  0.00    -0.278 OA
ATOM     21  H   UNL     1       6.990 -11.640  -1.925  0.00  0.00    +0.149 HD
BRANCH  19  22
ATOM     22  C   UNL     1       9.478 -11.937  -2.719  0.00  0.00    +0.014 C 
BRANCH  22  24
ATOM     23  C   UNL     1      11.686 -12.758  -3.277  0.00  0.00    -0.100 C 
ATOM     24  N   UNL     1      10.797 -11.581  -3.275  0.00  0.00    +0.383 N 
ATOM     25  H   UNL     1      11.217 -10.840  -2.702  0.00  0.00    -0.086 HD
ATOM     26  H   UNL     1      10.679 -11.244  -4.238  0.00  0.00    -0.086 HD
ENDBRANCH  22  24
ENDBRANCH  19  22
ENDBRANCH  11  18
BRANCH   1  28
ATOM     27  C   UNL     1       1.252  -2.156  -0.021  0.00  0.00    +0.008 C 
ATOM     28  C   UNL     1       2.427  -2.805  -0.036  0.00  0.00    +0.008 C 
BRANCH  27  32
ATOM     29  C   UNL     1       1.170   2.087   0.002  0.00  0.00    -0.042 A 
ATOM     30  C   UNL     1      -0.017   1.375   0.010  0.00  0.00    +0.005 A 
ATOM     31  C   UNL     1       0.002  -0.004   0.002  0.00  0.00    +0.008 A 
ATOM     32  C   UNL     1       1.224  -0.683  -0.013  0.00  0.00    -0.025 A 
ATOM     33  C   UNL     1       2.418   0.043  -0.021  0.00  0.00    +0.008 A 
ATOM     34  C   UNL     1       2.384   1.421  -0.013  0.00  0.00    +0.005 A 
BRANCH  29  36
ATOM     35  C   UNL     1       0.422   4.083   1.268  0.00  0.00    +0.015 C 
ATOM     36  C   UNL     1       1.141   3.593   0.010  0.00  0.00    -0.013 C 
ATOM     37  C   UNL     1       2.574   4.131  -0.001  0.00  0.00    +0.015 C 
ATOM     38  C   UNL     1       0.399   4.096  -1.230  0.00  0.00    +0.015 C 
ENDBRANCH  29  36
ENDBRANCH  27  32
ENDBRANCH   1  28
TORSDOF 6
