REMARK  Name = ZINC38547925
REMARK  11 active torsions:
REMARK  status: ('A' for Active; 'I' for Inactive)
REMARK    1  A    between atoms: C_1  and  C_2
REMARK    2  A    between atoms: C_2  and  C_3
REMARK    3  A    between atoms: C_5  and  C_16
REMARK    4  A    between atoms: C_6  and  N_8
REMARK    5  A    between atoms: C_9  and  C_11
REMARK    6  A    between atoms: C_16  and  C_18
REMARK    7  A    between atoms: C_16  and  N_28
REMARK    8  A    between atoms: C_22  and  O_26
REMARK    9  A    between atoms: C_23  and  O_24
REMARK   10  A    between atoms: O_24  and  C_25
REMARK   11  A    between atoms: O_26  and  C_27
REMARK                            x       y       z     vdW  Elec       q    Type
REMARK                         _______ _______ _______ _____ _____    ______ ____
ROOT
ATOM      1  C   UNL     1       0.573  -1.547   4.769  0.00  0.00    +0.138 C 
ENDROOT
BRANCH   1   2
ATOM      2  N   UNL     1      -0.694  -0.812   4.769  0.00  0.00    -0.319 N 
ATOM      3  C   UNL     1      -0.751   0.475   5.292  0.00  0.00    +0.097 A 
ATOM      4  C   UNL     1       0.422   1.113   5.683  0.00  0.00    +0.041 A 
ATOM      5  C   UNL     1       0.351   2.393   6.201  0.00  0.00    +0.005 A 
ATOM      6  C   UNL     1      -0.895   2.995   6.311  0.00  0.00    +0.018 A 
ATOM      7  C   UNL     1      -2.019   2.304   5.904  0.00  0.00    +0.084 A 
ATOM      8  N   UNL     1      -1.920   1.085   5.408  0.00  0.00    -0.350 N 
ATOM      9  H   UNL     1      -1.493  -1.224   4.405  0.00  0.00    +0.148 HD
ATOM     10  H   UNL     1      -2.725   0.622   5.125  0.00  0.00    +0.166 HD
ENDBRANCH   1   2
BRANCH   1  11
ATOM     11  C   UNL     1       0.295  -3.028   4.775  0.00  0.00    +0.022 A 
ATOM     12  C   UNL     1       0.421  -3.760   3.609  0.00  0.00    +0.009 A 
ATOM     13  C   UNL     1       0.167  -5.119   3.611  0.00  0.00    +0.004 A 
ATOM     14  C   UNL     1      -0.215  -5.752   4.780  0.00  0.00    +0.049 A 
ATOM     15  C   UNL     1      -0.343  -5.024   5.952  0.00  0.00    +0.162 A 
ATOM     16  C   UNL     1      -0.081  -3.657   5.951  0.00  0.00    +0.167 A 
BRANCH  16  17
ATOM     17  O   UNL     1      -0.200  -2.939   7.100  0.00  0.00    -0.491 OA
ATOM     18  C   UNL     1      -1.479  -2.368   7.379  0.00  0.00    +0.277 C 
ENDBRANCH  16  17
BRANCH  15  19
ATOM     19  O   UNL     1      -0.719  -5.645   7.102  0.00  0.00    -0.491 OA
ATOM     20  C   UNL     1      -0.965  -7.051   7.030  0.00  0.00    +0.277 C 
ENDBRANCH  15  19
ENDBRANCH   1  11
BRANCH   1  23
ATOM     21  C   UNL     1       1.456  -0.432   1.301  0.00  0.00    -0.008 A 
ATOM     22  C   UNL     1       0.718  -0.746   2.393  0.00  0.00    +0.019 A 
ATOM     23  C   UNL     1       1.361  -1.189   3.534  0.00  0.00    +0.006 A 
ATOM     24  C   UNL     1       2.719  -1.297   3.523  0.00  0.00    +0.078 A 
ATOM     25  S   UNL     1       3.116  -0.769   1.864  0.00  0.00    -0.078 S 
BRANCH  24  26
ATOM     26  N   UNL     1       3.577  -1.716   4.541  0.00  0.00    -0.273 N 
ATOM     27  C   UNL     1       4.912  -1.644   4.371  0.00  0.00    +0.284 C 
ATOM     28  O   UNL     1       5.370  -1.213   3.328  0.00  0.00    -0.266 OA
ATOM     29  H   UNL     1       3.212  -2.059   5.372  0.00  0.00    +0.156 HD
BRANCH  27  30
ATOM     30  C   UNL     1       5.813  -2.084   5.440  0.00  0.00    +0.189 A 
ATOM     31  C   UNL     1       7.178  -2.060   5.401  0.00  0.00    +0.054 A 
ATOM     32  C   UNL     1       7.626  -2.568   6.630  0.00  0.00    +0.042 A 
ATOM     33  C   UNL     1       6.529  -2.877   7.357  0.00  0.00    +0.196 A 
ATOM     34  O   UNL     1       5.439  -2.579   6.638  0.00  0.00    -0.458 OA
ENDBRANCH  27  30
ENDBRANCH  24  26
BRANCH  21  36
ATOM     35  C   UNL     1       0.956   1.596  -0.035  0.00  0.00    +0.009 C 
ATOM     36  C   UNL     1       0.994   0.067  -0.044  0.00  0.00    +0.039 C 
ENDBRANCH  21  36
ENDBRANCH   1  23
TORSDOF 8
