REMARK  Name = ZINC22265092
REMARK  5 active torsions:
REMARK  status: ('A' for Active; 'I' for Inactive)
REMARK    1  A    between atoms: N_12  and  C_13
REMARK    2  A    between atoms: C_13  and  C_14
REMARK    3  A    between atoms: C_14  and  C_15
REMARK    4  A    between atoms: N_17  and  C_18
REMARK    5  A    between atoms: C_19  and  O_24
REMARK                            x       y       z     vdW  Elec       q    Type
REMARK                         _______ _______ _______ _____ _____    ______ ____
ROOT
ATOM      1  C   UNL     1       3.947  -4.681  -0.060  0.00  0.00    +0.112 C 
ENDROOT
BRANCH   1  13
ATOM      2  C   UNL     1       4.494 -10.564  -0.097  0.00  0.00    +0.001 A 
ATOM      3  C   UNL     1       5.802 -11.014  -0.111  0.00  0.00    +0.002 A 
ATOM      4  C   UNL     1       6.841 -10.093  -0.116  0.00  0.00    +0.030 A 
ATOM      5  C   UNL     1       6.559  -8.758  -0.106  0.00  0.00    +0.123 A 
ATOM      6  C   UNL     1       5.244  -8.273  -0.085  0.00  0.00    +0.043 A 
ATOM      7  C   UNL     1       4.207  -9.218  -0.086  0.00  0.00    +0.013 A 
ATOM      8  C   UNL     1       5.196  -6.802  -0.083  0.00  0.00    +0.150 C 
ATOM      9  N   UNL     1       6.305  -6.133  -0.090  0.00  0.00    -0.113 NA
ATOM     10  S   UNL     1       7.528  -7.275  -0.108  0.00  0.00    +0.101 S 
ATOM     11  O   UNL     1       8.184  -7.187  -1.365  0.00  0.00    -0.146 OA
ATOM     12  O   UNL     1       8.208  -7.200   1.138  0.00  0.00    -0.146 OA
ATOM     13  N   UNL     1       3.985  -6.145  -0.068  0.00  0.00    -0.327 N 
ATOM     14  H   UNL     1       3.047  -6.720  -0.061  0.00  0.00    +0.148 HD
ENDBRANCH   1  13
BRANCH   1  15
ATOM     15  C   UNL     1       2.492  -4.209  -0.043  0.00  0.00    +0.115 C 
BRANCH  15  16
ATOM     16  C   UNL     1       2.452  -2.702  -0.035  0.00  0.00    +0.220 C 
ATOM     17  O   UNL     1       3.486  -2.068  -0.042  0.00  0.00    -0.275 OA
ATOM     18  N   UNL     1       1.268  -2.059  -0.021  0.00  0.00    -0.269 N 
ATOM     19  H   UNL     1       0.330  -2.634  -0.014  0.00  0.00    +0.156 HD
BRANCH  18  20
ATOM     20  C   UNL     1       1.231  -0.664  -0.013  0.00  0.00    +0.145 A 
ATOM     21  C   UNL     1       0.002  -0.004   0.002  0.00  0.00    +0.155 A 
ATOM     22  C   UNL     1      -0.017   1.383   0.009  0.00  0.00    +0.050 A 
ATOM     23  C   UNL     1       1.195   2.061   0.001  0.00  0.00    +0.021 A 
ATOM     24  C   UNL     1       2.373   1.342  -0.014  0.00  0.00    +0.084 A 
ATOM     25  N   UNL     1       2.362   0.022  -0.021  0.00  0.00    -0.347 N 
ATOM     26  H   UNL     1       3.326  -0.508  -0.033  0.00  0.00    +0.167 HD
BRANCH  21  27
ATOM     27  O   UNL     1      -1.160  -0.710   0.010  0.00  0.00    -0.503 OA
ATOM     28  H   UNL     1      -2.125  -0.181   0.022  0.00  0.00    +0.292 HD
ENDBRANCH  21  27
ENDBRANCH  18  20
ENDBRANCH  15  16
ENDBRANCH   1  15
TORSDOF 5
