REMARK  Name = ZINC34776165
REMARK  13 active torsions:
REMARK  status: ('A' for Active; 'I' for Inactive)
REMARK    1  A    between atoms: C_1  and  C_2
REMARK    2  A    between atoms: C_2  and  O_3
REMARK    3  A    between atoms: O_3  and  C_4
REMARK    4  A    between atoms: C_4  and  C_6
REMARK    5  A    between atoms: C_7  and  C_37
REMARK    6  A    between atoms: N_11  and  C_28
REMARK    7  A    between atoms: N_14  and  C_17
REMARK    8  A    between atoms: C_17  and  C_18
REMARK    9  A    between atoms: N_20  and  C_21
REMARK   10  A    between atoms: C_26  and  C_27
REMARK   11  A    between atoms: C_28  and  C_29
REMARK   12  A    between atoms: C_32  and  C_36
REMARK   13  A    between atoms: C_34  and  C_35
REMARK                            x       y       z     vdW  Elec       q    Type
REMARK                         _______ _______ _______ _____ _____    ______ ____
ROOT
ATOM      1  C   UNL     1      -2.918  -2.135  -0.065  0.00  0.00    +0.102 A 
ATOM      2  C   UNL     1      -3.208  -3.470  -0.041  0.00  0.00    -0.015 A 
ATOM      3  C   UNL     1      -4.561  -3.829  -0.044  0.00  0.00    +0.074 A 
ATOM      4  C   UNL     1      -5.158  -5.187  -0.022  0.00  0.00    +0.265 A 
ATOM      5  O   UNL     1      -4.446  -6.173   0.004  0.00  0.00    -0.267 OA
ATOM      6  N   UNL     1      -6.497  -5.314  -0.030  0.00  0.00    -0.256 N 
ATOM      7  C   UNL     1      -7.309  -4.245  -0.058  0.00  0.00    +0.334 A 
ATOM      8  O   UNL     1      -8.513  -4.414  -0.065  0.00  0.00    -0.246 OA
ATOM      9  N   UNL     1      -6.821  -2.991  -0.079  0.00  0.00    -0.278 N 
ATOM     10  C   UNL     1      -5.474  -2.765  -0.072  0.00  0.00    +0.098 A 
ATOM     11  S   UNL     1      -4.533  -1.384  -0.086  0.00  0.00    -0.063 S 
ATOM     12  C   UNL     1      -2.118  -4.510  -0.012  0.00  0.00    +0.046 C 
ENDROOT
BRANCH   1  13
ATOM     13  C   UNL     1      -1.607  -1.485  -0.068  0.00  0.00    +0.346 C 
ATOM     14  O   UNL     1      -0.594  -2.158  -0.051  0.00  0.00    -0.244 OA
BRANCH  13  15
ATOM     15  O   UNL     1      -1.523  -0.138  -0.088  0.00  0.00    -0.461 OA
BRANCH  15  17
ATOM     16  C   UNL     1      -0.316   1.956  -0.113  0.00  0.00    +0.048 C 
ATOM     17  C   UNL     1      -0.211   0.429  -0.089  0.00  0.00    +0.229 C 
ENDBRANCH  15  17
ENDBRANCH  13  15
ENDBRANCH   1  13
BRANCH   9  18
ATOM     18  C   UNL     1      -7.745  -1.855  -0.108  0.00  0.00    +0.223 C 
BRANCH  18  19
ATOM     19  C   UNL     1      -8.074  -1.438   1.302  0.00  0.00    +0.237 C 
ATOM     20  O   UNL     1      -7.584  -2.031   2.240  0.00  0.00    -0.274 OA
ATOM     21  N   UNL     1      -8.912  -0.405   1.521  0.00  0.00    -0.284 N 
ATOM     22  H   UNL     1      -9.349   0.032   0.773  0.00  0.00    +0.155 HD
BRANCH  21  23
ATOM     23  C   UNL     1      -9.153   0.035   2.827  0.00  0.00    +0.036 A 
ATOM     24  C   UNL     1      -8.999  -0.839   3.896  0.00  0.00    +0.023 A 
ATOM     25  C   UNL     1      -9.238  -0.401   5.184  0.00  0.00    +0.002 A 
ATOM     26  C   UNL     1      -9.630   0.906   5.410  0.00  0.00    +0.000 A 
ATOM     27  C   UNL     1      -9.785   1.778   4.348  0.00  0.00    +0.005 A 
ATOM     28  C   UNL     1      -9.541   1.348   3.058  0.00  0.00    -0.029 A 
ATOM     29  C   UNL     1      -9.703   2.301   1.902  0.00  0.00    +0.045 C 
ENDBRANCH  21  23
ENDBRANCH  18  19
ENDBRANCH   9  18
BRANCH   6  30
ATOM     30  C   UNL     1      -7.085  -6.655  -0.009  0.00  0.00    +0.165 C 
BRANCH  30  31
ATOM     31  C   UNL     1      -7.191  -7.134   1.417  0.00  0.00    -0.025 A 
ATOM     32  C   UNL     1      -6.669  -6.370   2.443  0.00  0.00    +0.006 A 
ATOM     33  C   UNL     1      -6.766  -6.809   3.750  0.00  0.00    +0.004 A 
ATOM     34  C   UNL     1      -7.386  -8.013   4.031  0.00  0.00    -0.050 A 
ATOM     35  C   UNL     1      -7.909  -8.777   3.004  0.00  0.00    +0.007 A 
ATOM     36  C   UNL     1      -7.815  -8.335   1.697  0.00  0.00    -0.045 A 
ATOM     37  C   UNL     1      -8.390  -9.165   0.579  0.00  0.00    +0.044 C 
ATOM     38  C   UNL     1      -7.491  -8.492   5.455  0.00  0.00    +0.044 C 
ENDBRANCH  30  31
ENDBRANCH   6  30
TORSDOF 8
