REMARK  Name = ZINC63584606
REMARK  16 active torsions:
REMARK  status: ('A' for Active; 'I' for Inactive)
REMARK    1  A    between atoms: C_1  and  C_2
REMARK    2  A    between atoms: C_2  and  C_3
REMARK    3  A    between atoms: C_2  and  C_4
REMARK    4  A    between atoms: C_2  and  N_5
REMARK    5  A    between atoms: C_6  and  C_27
REMARK    6  A    between atoms: C_8  and  C_11
REMARK    7  A    between atoms: N_13  and  C_14
REMARK    8  A    between atoms: C_14  and  C_15
REMARK    9  A    between atoms: C_15  and  C_16
REMARK   10  A    between atoms: C_19  and  O_25
REMARK   11  A    between atoms: O_25  and  C_26
REMARK   12  A    between atoms: C_33  and  O_35
REMARK   13  A    between atoms: O_35  and  C_36
REMARK   14  A    between atoms: C_36  and  C_37
REMARK   15  A    between atoms: C_36  and  C_38
REMARK   16  A    between atoms: C_36  and  C_39
REMARK                            x       y       z     vdW  Elec       q    Type
REMARK                         _______ _______ _______ _____ _____    ______ ____
ROOT
ATOM      1  N   UNL     1       0.764  -0.435  -1.178  0.00  0.00    -0.217 NA
ATOM      2  C   UNL     1       0.745  -1.884  -1.459  0.00  0.00    +0.116 C 
ATOM      3  C   UNL     1       2.203  -2.289  -1.399  0.00  0.00    +0.048 C 
ATOM      4  C   UNL     1       2.894  -1.167  -1.118  0.00  0.00    +0.094 C 
ATOM      5  N   UNL     1       2.072  -0.095  -0.989  0.00  0.00    -0.283 N 
ATOM      6  H   UNL     1       2.377   0.804  -0.787  0.00  0.00    +0.166 HD
ENDROOT
BRANCH   2   7
ATOM      7  C   UNL     1       0.167  -2.153  -2.850  0.00  0.00    +0.015 C 
ATOM      8  C   UNL     1       0.944  -1.343  -3.890  0.00  0.00    +0.024 C 
ATOM      9  C   UNL     1       0.385  -1.640  -5.285  0.00  0.00    +0.111 C 
ATOM     10  N   UNL     1      -1.062  -1.385  -5.279  0.00  0.00    -0.267 N 
ATOM     11  C   UNL     1      -1.891  -2.044  -4.261  0.00  0.00    +0.111 C 
ATOM     12  C   UNL     1      -1.307  -1.742  -2.878  0.00  0.00    +0.024 C 
ATOM     13  C   UNL     1      -1.617  -0.562  -6.190  0.00  0.00    +0.403 C 
ATOM     14  O   UNL     1      -0.920  -0.022  -7.027  0.00  0.00    -0.226 OA
BRANCH  13  15
ATOM     15  O   UNL     1      -2.945  -0.337  -6.173  0.00  0.00    -0.445 OA
BRANCH  15  16
ATOM     16  C   UNL     1      -3.466   0.547  -7.168  0.00  0.00    +0.107 C 
ATOM     17  C   UNL     1      -3.162  -0.014  -8.559  0.00  0.00    +0.055 C 
ATOM     18  C   UNL     1      -4.980   0.678  -6.991  0.00  0.00    +0.055 C 
ATOM     19  C   UNL     1      -2.814   1.923  -7.020  0.00  0.00    +0.055 C 
ENDBRANCH  15  16
ENDBRANCH  13  15
ENDBRANCH   2   7
BRANCH   1  21
ATOM     20  C   UNL     1       0.043   1.382   0.297  0.00  0.00    +0.029 C 
ATOM     21  C   UNL     1      -0.039  -0.118   0.011  0.00  0.00    +0.031 C 
ATOM     22  C   UNL     1       0.499  -0.897   1.212  0.00  0.00    +0.029 C 
ATOM     23  C   UNL     1      -1.497  -0.510  -0.240  0.00  0.00    +0.029 C 
ENDBRANCH   1  21
BRANCH   3  24
ATOM     24  C   UNL     1       2.733  -3.586  -1.599  0.00  0.00    +0.243 C 
ATOM     25  O   UNL     1       3.939  -3.753  -1.626  0.00  0.00    -0.270 OA
ATOM     26  N   UNL     1       1.903  -4.636  -1.759  0.00  0.00    -0.311 N 
ATOM     27  H   UNL     1       0.945  -4.493  -1.809  0.00  0.00    +0.149 HD
BRANCH  26  28
ATOM     28  C   UNL     1       2.448  -5.992  -1.857  0.00  0.00    +0.109 C 
BRANCH  28  29
ATOM     29  C   UNL     1       1.302  -6.990  -2.033  0.00  0.00    +0.052 C 
BRANCH  29  30
ATOM     30  C   UNL     1       1.863  -8.386  -2.133  0.00  0.00    -0.040 C 
ATOM     31  C   UNL     1       2.002  -9.280  -1.129  0.00  0.00    +0.002 A 
ATOM     32  C   UNL     1       1.686  -9.227   0.302  0.00  0.00    +0.055 A 
ATOM     33  C   UNL     1       1.942 -10.304   1.083  0.00  0.00    +0.121 A 
ATOM     34  C   UNL     1       2.505 -11.486   0.570  0.00  0.00    +0.047 A 
ATOM     35  C   UNL     1       2.830 -11.630  -0.733  0.00  0.00    +0.029 A 
ATOM     36  C   UNL     1       2.595 -10.526  -1.668  0.00  0.00    +0.043 A 
ATOM     37  N   UNL     1       2.815 -10.405  -2.954  0.00  0.00    -0.380 N 
ATOM     38  C   UNL     1       2.379  -9.070  -3.379  0.00  0.00    +0.144 C 
ATOM     39  H   UNL     1       3.197 -11.086  -3.529  0.00  0.00    +0.160 HD
BRANCH  33  40
ATOM     40  O   UNL     1       1.644 -10.240   2.408  0.00  0.00    -0.495 OA
ATOM     41  C   UNL     1       1.931 -11.399   3.193  0.00  0.00    +0.277 C 
ENDBRANCH  33  40
ENDBRANCH  29  30
ENDBRANCH  28  29
ENDBRANCH  26  28
ENDBRANCH   3  24
TORSDOF 9
