REMARK  Name = ZINC46950008
REMARK  12 active torsions:
REMARK  status: ('A' for Active; 'I' for Inactive)
REMARK    1  A    between atoms: C_1  and  C_2
REMARK    2  A    between atoms: C_2  and  C_3
REMARK    3  A    between atoms: C_3  and  C_4
REMARK    4  A    between atoms: C_3  and  C_6
REMARK    5  A    between atoms: C_3  and  N_20
REMARK    6  A    between atoms: C_4  and  C_5
REMARK    7  A    between atoms: C_6  and  N_7
REMARK    8  A    between atoms: N_10  and  N_11
REMARK    9  A    between atoms: N_11  and  C_12
REMARK   10  A    between atoms: C_12  and  C_19
REMARK   11  A    between atoms: N_20  and  C_21
REMARK   12  A    between atoms: N_20  and  C_22
REMARK                            x       y       z     vdW  Elec       q    Type
REMARK                         _______ _______ _______ _____ _____    ______ ____
ROOT
ATOM      1  N   UNL     1      -2.805  -2.183  -0.345  0.00  0.00    -0.300 N 
ATOM      2  C   UNL     1      -2.993  -3.516  -0.399  0.00  0.00    +0.313 C 
ATOM      3  O   UNL     1      -2.039  -4.268  -0.334  0.00  0.00    -0.252 OA
ATOM      4  N   UNL     1      -4.238  -4.017  -0.524  0.00  0.00    -0.234 N 
ATOM      5  H   UNL     1      -3.566  -1.583  -0.396  0.00  0.00    +0.150 HD
ATOM      6  H   UNL     1      -4.373  -4.976  -0.563  0.00  0.00    +0.171 HD
ENDROOT
BRANCH   4   7
ATOM      7  N   UNL     1      -5.310  -3.172  -0.596  0.00  0.00    -0.232 NA
ATOM      8  H   UNL     1      -5.340  -2.557   0.203  0.00  0.00    +0.145 HD
BRANCH   7   9
ATOM      9  C   UNL     1      -6.564  -3.925  -0.729  0.00  0.00    +0.054 C 
ATOM     10  C   UNL     1      -6.462  -4.836  -1.951  0.00  0.00    +0.047 C 
ATOM     11  C   UNL     1      -7.872  -5.093  -2.552  0.00  0.00    +0.168 C 
ATOM     12  S   UNL     1      -8.601  -3.408  -2.357  0.00  0.00    -0.029 S 
ATOM     13  O   UNL     1      -9.993  -3.528  -2.096  0.00  0.00    -0.174 OA
ATOM     14  O   UNL     1      -8.154  -2.579  -3.421  0.00  0.00    -0.174 OA
ATOM     15  C   UNL     1      -7.734  -2.924  -0.806  0.00  0.00    +0.189 C 
ATOM     16  C   UNL     1      -6.746  -4.797   0.515  0.00  0.00    +0.031 C 
ENDBRANCH   7   9
ENDBRANCH   4   7
BRANCH   1  17
ATOM     17  C   UNL     1      -1.452  -1.639  -0.209  0.00  0.00    +0.094 C 
BRANCH  17  18
ATOM     18  C   UNL     1      -1.529  -0.123  -0.012  0.00  0.00    -0.051 C 
BRANCH  18  19
ATOM     19  N   UNL     1      -0.172   0.441  -0.022  0.00  0.00    +0.381 N 
ATOM     20  C   UNL     1       0.648  -0.238   0.989  0.00  0.00    -0.096 C 
ATOM     21  C   UNL     1       0.428   0.250  -1.349  0.00  0.00    -0.096 C 
ATOM     22  H   UNL     1      -0.217   1.427   0.188  0.00  0.00    -0.082 HD
ENDBRANCH  18  19
BRANCH  18  24
ATOM     23  C   UNL     1      -2.320   2.022  -1.020  0.00  0.00    +0.002 C 
ATOM     24  C   UNL     1      -2.347   0.497  -1.146  0.00  0.00    -0.014 C 
ENDBRANCH  18  24
BRANCH  18  25
ATOM     25  C   UNL     1      -2.199   0.184   1.328  0.00  0.00    -0.014 C 
ATOM     26  C   UNL     1      -3.658  -0.277   1.286  0.00  0.00    +0.002 C 
ENDBRANCH  18  25
ENDBRANCH  17  18
ENDBRANCH   1  17
TORSDOF 7
