REMARK  Name = ZINC34785726
REMARK  8 active torsions:
REMARK  status: ('A' for Active; 'I' for Inactive)
REMARK    1  A    between atoms: C_1  and  C_2
REMARK    2  A    between atoms: C_2  and  O_3
REMARK    3  A    between atoms: O_3  and  C_4
REMARK    4  A    between atoms: C_4  and  C_6
REMARK    5  A    between atoms: C_10  and  N_11
REMARK    6  A    between atoms: N_17  and  C_20
REMARK    7  A    between atoms: C_20  and  C_21
REMARK    8  A    between atoms: N_23  and  C_24
REMARK                            x       y       z     vdW  Elec       q    Type
REMARK                         _______ _______ _______ _____ _____    ______ ____
ROOT
ATOM      1  N   UNL     1       5.473  -3.212   2.695  0.00  0.00    -0.263 N 
ATOM      2  C   UNL     1       5.035  -2.705   1.525  0.00  0.00    +0.307 C 
ATOM      3  O   UNL     1       3.848  -2.509   1.354  0.00  0.00    -0.252 OA
ATOM      4  N   UNL     1       5.914  -2.417   0.545  0.00  0.00    -0.289 N 
ATOM      5  C   UNL     1       5.477  -1.752  -0.692  0.00  0.00    +0.091 C 
ATOM      6  C   UNL     1       6.008  -2.550  -1.887  0.00  0.00    -0.059 C 
ATOM      7  N   UNL     1       7.463  -2.704  -1.764  0.00  0.00    +0.387 N 
ATOM      8  C   UNL     1       7.782  -3.509  -0.578  0.00  0.00    -0.059 C 
ATOM      9  C   UNL     1       7.340  -2.753   0.684  0.00  0.00    +0.091 C 
ATOM     10  H   UNL     1       6.410  -3.438   2.806  0.00  0.00    +0.157 HD
ATOM     11  H   UNL     1       7.890  -1.794  -1.676  0.00  0.00    -0.081 HD
ENDROOT
BRANCH   1  16
ATOM     12  C   UNL     1       4.851  -3.917   5.000  0.00  0.00    +0.091 A 
ATOM     13  C   UNL     1       3.728  -4.022   5.930  0.00  0.00    -0.021 A 
ATOM     14  C   UNL     1       2.553  -3.609   5.422  0.00  0.00    -0.004 A 
ATOM     15  S   UNL     1       2.937  -3.097   3.766  0.00  0.00    -0.077 S 
ATOM     16  C   UNL     1       4.584  -3.411   3.740  0.00  0.00    +0.087 A 
ATOM     17  C   UNL     1       1.433  -3.742   6.417  0.00  0.00    +0.043 C 
ATOM     18  C   UNL     1       1.982  -4.702   7.496  0.00  0.00    +0.010 C 
ATOM     19  C   UNL     1       3.503  -4.482   7.369  0.00  0.00    +0.037 C 
BRANCH  12  20
ATOM     20  C   UNL     1       6.203  -4.323   5.387  0.00  0.00    +0.342 C 
ATOM     21  O   UNL     1       6.958  -3.518   5.898  0.00  0.00    -0.245 OA
BRANCH  20  22
ATOM     22  O   UNL     1       6.612  -5.592   5.178  0.00  0.00    -0.461 OA
BRANCH  22  24
ATOM     23  C   UNL     1       8.224  -7.390   5.266  0.00  0.00    +0.048 C 
ATOM     24  C   UNL     1       7.943  -5.919   5.580  0.00  0.00    +0.229 C 
ENDBRANCH  22  24
ENDBRANCH  20  22
ENDBRANCH  12  20
ENDBRANCH   1  16
BRANCH   7  25
ATOM     25  C   UNL     1       7.986  -3.373  -2.963  0.00  0.00    +0.019 C 
BRANCH  25  26
ATOM     26  C   UNL     1       9.490  -3.422  -2.894  0.00  0.00    +0.201 C 
ATOM     27  O   UNL     1      10.070  -2.947  -1.941  0.00  0.00    -0.278 OA
ATOM     28  N   UNL     1      10.192  -3.995  -3.893  0.00  0.00    -0.287 N 
ATOM     29  H   UNL     1       9.733  -4.315  -4.686  0.00  0.00    +0.155 HD
BRANCH  28  30
ATOM     30  C   UNL     1      11.577  -4.126  -3.786  0.00  0.00    +0.041 A 
ATOM     31  C   UNL     1      12.320  -3.158  -3.146  0.00  0.00    +0.024 A 
ATOM     32  C   UNL     1      13.702  -3.279  -3.035  0.00  0.00    +0.002 A 
ATOM     33  C   UNL     1      14.358  -4.354  -3.552  0.00  0.00    +0.008 A 
ATOM     34  C   UNL     1      13.637  -5.364  -4.212  0.00  0.00    -0.016 A 
ATOM     35  C   UNL     1      12.229  -5.254  -4.328  0.00  0.00    +0.003 A 
ATOM     36  C   UNL     1      11.510  -6.266  -4.983  0.00  0.00    +0.010 A 
ATOM     37  C   UNL     1      12.172  -7.341  -5.494  0.00  0.00    +0.001 A 
ATOM     38  C   UNL     1      13.556  -7.453  -5.376  0.00  0.00    +0.001 A 
ATOM     39  C   UNL     1      14.287  -6.486  -4.756  0.00  0.00    +0.008 A 
ENDBRANCH  28  30
ENDBRANCH  25  26
ENDBRANCH   7  25
TORSDOF 7
