REMARK  Name = ZINC08994446
REMARK  11 active torsions:
REMARK  status: ('A' for Active; 'I' for Inactive)
REMARK    1  A    between atoms: C_1  and  C_2
REMARK    2  A    between atoms: C_2  and  O_3
REMARK    3  A    between atoms: O_3  and  C_4
REMARK    4  A    between atoms: C_4  and  C_6
REMARK    5  A    between atoms: C_9  and  N_12
REMARK    6  A    between atoms: C_13  and  C_15
REMARK    7  A    between atoms: C_18  and  C_32
REMARK    8  A    between atoms: C_23  and  C_31
REMARK    9  A    between atoms: C_25  and  C_30
REMARK   10  A    between atoms: C_32  and  C_34
REMARK   11  A    between atoms: C_32  and  O_35
REMARK                            x       y       z     vdW  Elec       q    Type
REMARK                         _______ _______ _______ _____ _____    ______ ____
ROOT
ATOM      1  C   UNL     1      -2.432   0.769   0.041  0.00  0.00    +0.076 C 
ATOM      2  C   UNL     1      -2.618   0.102   1.421  0.00  0.00    -0.001 C 
ATOM      3  C   UNL     1      -3.987   0.607   1.929  0.00  0.00    -0.040 C 
ATOM      4  C   UNL     1      -3.689   1.626  -0.153  0.00  0.00    +0.049 C 
ATOM      5  C   UNL     1      -3.379   2.905  -0.878  0.00  0.00    -0.027 A 
ATOM      6  C   UNL     1      -2.538   3.964  -0.616  0.00  0.00    +0.008 A 
ATOM      7  C   UNL     1      -2.470   5.028  -1.497  0.00  0.00    -0.050 A 
ATOM      8  C   UNL     1      -3.247   5.026  -2.641  0.00  0.00    +0.008 A 
ATOM      9  C   UNL     1      -4.091   3.967  -2.908  0.00  0.00    -0.029 A 
ATOM     10  C   UNL     1      -4.165   2.891  -2.026  0.00  0.00    +0.039 A 
ATOM     11  N   UNL     1      -4.928   1.722  -2.075  0.00  0.00    -0.286 N 
ATOM     12  C   UNL     1      -4.705   0.926  -1.012  0.00  0.00    +0.211 C 
ATOM     13  O   UNL     1      -5.224  -0.148  -0.790  0.00  0.00    -0.277 OA
ATOM     14  C   UNL     1      -4.934   3.975  -4.157  0.00  0.00    +0.045 C 
ATOM     15  C   UNL     1      -1.550   6.187  -1.212  0.00  0.00    +0.044 C 
ATOM     16  H   UNL     1      -5.546   1.509  -2.791  0.00  0.00    +0.155 HD
ATOM     17  N   UNL     1      -4.198   1.853   1.188  0.00  0.00    +0.395 N 
ATOM     18  H   UNL     1      -3.687   2.623   1.637  0.00  0.00    -0.083 HD
ATOM     19  H   UNL     1      -5.199   2.081   1.155  0.00  0.00    -0.083 HD
ENDROOT
BRANCH   1  21
ATOM     20  N   UNL     1      -0.514   1.834  -1.104  0.00  0.00    -0.285 N 
ATOM     21  C   UNL     1      -1.200   1.637   0.040  0.00  0.00    +0.220 C 
ATOM     22  O   UNL     1      -0.825   2.159   1.069  0.00  0.00    -0.275 OA
ATOM     23  H   UNL     1      -0.853   1.475  -1.940  0.00  0.00    +0.155 HD
BRANCH  20  27
ATOM     24  C   UNL     1       3.046   3.995  -1.055  0.00  0.00    +0.059 A 
ATOM     25  C   UNL     1       2.889   2.923  -1.939  0.00  0.00    +0.017 A 
ATOM     26  C   UNL     1       1.711   2.211  -1.952  0.00  0.00    +0.024 A 
ATOM     27  C   UNL     1       0.677   2.557  -1.087  0.00  0.00    +0.033 A 
ATOM     28  C   UNL     1       0.828   3.626  -0.209  0.00  0.00    +0.024 A 
ATOM     29  C   UNL     1       2.006   4.339  -0.187  0.00  0.00    +0.017 A 
BRANCH  24  30
ATOM     30  C   UNL     1       4.307   4.760  -1.037  0.00  0.00    +0.339 C 
ATOM     31  O   UNL     1       5.210   4.459  -1.792  0.00  0.00    -0.245 OA
BRANCH  30  32
ATOM     32  O   UNL     1       4.457   5.792  -0.184  0.00  0.00    -0.461 OA
BRANCH  32  34
ATOM     33  C   UNL     1       5.708   7.630   0.809  0.00  0.00    +0.048 C 
ATOM     34  C   UNL     1       5.724   6.499  -0.222  0.00  0.00    +0.229 C 
ENDBRANCH  32  34
ENDBRANCH  30  32
ENDBRANCH  24  30
ENDBRANCH  20  27
ENDBRANCH   1  21
BRANCH   3  35
ATOM     35  C   UNL     1      -3.940   0.855   3.438  0.00  0.00    +0.098 C 
ATOM     36  C   UNL     1      -5.280   1.428   3.903  0.00  0.00    +0.036 C 
BRANCH  35  37
ATOM     37  O   UNL     1      -3.688  -0.378   4.115  0.00  0.00    -0.394 OA
ATOM     38  H   UNL     1      -4.359  -1.057   3.958  0.00  0.00    +0.210 HD
ENDBRANCH  35  37
ENDBRANCH   3  35
TORSDOF 7
