REMARK  Name = ZINC61263425
REMARK  15 active torsions:
REMARK  status: ('A' for Active; 'I' for Inactive)
REMARK    1  A    between atoms: C_1  and  C_2
REMARK    2  A    between atoms: C_2  and  N_3
REMARK    3  A    between atoms: C_4  and  C_6
REMARK    4  A    between atoms: C_9  and  C_28
REMARK    5  A    between atoms: C_10  and  N_12
REMARK    6  A    between atoms: N_15  and  C_16
REMARK    7  A    between atoms: C_16  and  C_17
REMARK    8  A    between atoms: C_17  and  C_18
REMARK    9  A    between atoms: C_17  and  N_21
REMARK   10  A    between atoms: C_18  and  C_19
REMARK   11  A    between atoms: C_18  and  C_20
REMARK   12  A    between atoms: N_21  and  C_22
REMARK   13  A    between atoms: N_21  and  C_25
REMARK   14  A    between atoms: C_22  and  C_23
REMARK   15  A    between atoms: C_25  and  C_26
REMARK                            x       y       z     vdW  Elec       q    Type
REMARK                         _______ _______ _______ _____ _____    ______ ____
ROOT
ATOM      1  N   UNL     1       4.794  -6.126  -4.194  0.00  0.00    -0.269 N 
ATOM      2  C   UNL     1       3.826  -6.739  -3.485  0.00  0.00    +0.304 C 
ATOM      3  O   UNL     1       3.064  -6.083  -2.802  0.00  0.00    -0.253 OA
ATOM      4  N   UNL     1       3.702  -8.081  -3.534  0.00  0.00    -0.301 N 
ATOM      5  H   UNL     1       5.360  -6.642  -4.790  0.00  0.00    +0.156 HD
ATOM      6  H   UNL     1       4.309  -8.604  -4.080  0.00  0.00    +0.150 HD
ENDROOT
BRANCH   1  11
ATOM      7  C   UNL     1       4.733  -2.707  -2.816  0.00  0.00    +0.038 A 
ATOM      8  C   UNL     1       5.368  -2.005  -3.842  0.00  0.00    +0.013 A 
ATOM      9  C   UNL     1       5.805  -2.672  -4.968  0.00  0.00    +0.006 A 
ATOM     10  C   UNL     1       5.615  -4.036  -5.085  0.00  0.00    -0.029 A 
ATOM     11  C   UNL     1       4.984  -4.745  -4.070  0.00  0.00    +0.038 A 
ATOM     12  C   UNL     1       4.547  -4.085  -2.932  0.00  0.00    +0.036 A 
ATOM     13  C   UNL     1       6.094  -4.758  -6.319  0.00  0.00    +0.045 C 
BRANCH   7  15
ATOM     14  N   UNL     1       4.445  -0.663  -1.499  0.00  0.00    -0.312 N 
ATOM     15  C   UNL     1       4.264  -1.994  -1.609  0.00  0.00    +0.244 C 
ATOM     16  O   UNL     1       3.715  -2.609  -0.715  0.00  0.00    -0.270 OA
ATOM     17  H   UNL     1       4.882  -0.173  -2.212  0.00  0.00    +0.149 HD
BRANCH  14  19
ATOM     18  C   UNL     1       4.306   1.532  -0.430  0.00  0.00    +0.024 C 
ATOM     19  C   UNL     1       3.980   0.043  -0.302  0.00  0.00    +0.101 C 
ENDBRANCH  14  19
ENDBRANCH   7  15
ENDBRANCH   1  11
BRANCH   4  20
ATOM     20  C   UNL     1       2.649  -8.748  -2.764  0.00  0.00    +0.091 C 
BRANCH  20  21
ATOM     21  C   UNL     1       2.601 -10.229  -3.142  0.00  0.00    -0.048 C 
BRANCH  21  22
ATOM     22  C   UNL     1       1.667 -10.970  -2.183  0.00  0.00    -0.029 C 
ATOM     23  C   UNL     1       1.650 -12.459  -2.537  0.00  0.00    +0.005 C 
ATOM     24  C   UNL     1       2.166 -10.793  -0.748  0.00  0.00    +0.005 C 
ENDBRANCH  21  22
BRANCH  21  25
ATOM     25  N   UNL     1       2.102 -10.368  -4.517  0.00  0.00    +0.387 N 
ATOM     26  H   UNL     1       1.965 -11.345  -4.728  0.00  0.00    -0.080 HD
BRANCH  25  27
ATOM     27  C   UNL     1       0.824  -9.655  -4.648  0.00  0.00    -0.051 C 
BRANCH  27  28
ATOM     28  C   UNL     1       0.202  -9.980  -5.981  0.00  0.00    -0.053 C 
ATOM     29  C   UNL     1      -0.984 -10.536  -6.033  0.00  0.00    +0.002 C 
ENDBRANCH  27  28
ENDBRANCH  25  27
BRANCH  25  30
ATOM     30  C   UNL     1       3.079  -9.796  -5.453  0.00  0.00    -0.051 C 
BRANCH  30  31
ATOM     31  C   UNL     1       2.698 -10.165  -6.864  0.00  0.00    -0.053 C 
ATOM     32  C   UNL     1       2.559  -9.229  -7.770  0.00  0.00    +0.002 C 
ENDBRANCH  30  31
ENDBRANCH  25  30
ENDBRANCH  21  25
ENDBRANCH  20  21
ENDBRANCH   4  20
TORSDOF 11
