REMARK  Name = ZINC40679440
REMARK  7 active torsions:
REMARK  status: ('A' for Active; 'I' for Inactive)
REMARK    1  A    between atoms: C_1  and  C_2
REMARK    2  A    between atoms: C_2  and  N_3
REMARK    3  A    between atoms: N_3  and  C_4
REMARK    4  A    between atoms: C_11  and  N_25
REMARK    5  A    between atoms: C_12  and  N_16
REMARK    6  A    between atoms: N_16  and  C_17
REMARK    7  A    between atoms: C_22  and  C_23
REMARK                            x       y       z     vdW  Elec       q    Type
REMARK                         _______ _______ _______ _____ _____    ______ ____
ROOT
ATOM      1  N   UNL     1       0.790  -0.503  -1.263  0.00  0.00    -0.284 N 
ATOM      2  C   UNL     1       0.128  -0.560  -2.485  0.00  0.00    +0.151 A 
ATOM      3  C   UNL     1       0.820  -0.890  -3.652  0.00  0.00    +0.104 A 
ATOM      4  C   UNL     1       0.107  -0.933  -4.851  0.00  0.00    +0.126 A 
ATOM      5  N   UNL     1      -1.196  -0.659  -4.837  0.00  0.00    -0.333 N 
ATOM      6  C   UNL     1      -1.811  -0.352  -3.713  0.00  0.00    +0.200 A 
ATOM      7  N   UNL     1      -1.176  -0.305  -2.559  0.00  0.00    -0.220 NA
ATOM      8  H   UNL     1      -1.699  -0.686  -5.665  0.00  0.00    +0.168 HD
ENDROOT
BRANCH   1   9
ATOM      9  C   UNL     1       1.276   0.718  -0.788  0.00  0.00    +0.035 A 
ATOM     10  C   UNL     1       1.837   0.798   0.480  0.00  0.00    +0.023 A 
ATOM     11  C   UNL     1       2.317   2.006   0.946  0.00  0.00    +0.002 A 
ATOM     12  C   UNL     1       2.240   3.136   0.152  0.00  0.00    +0.000 A 
ATOM     13  C   UNL     1       1.682   3.059  -1.111  0.00  0.00    +0.002 A 
ATOM     14  C   UNL     1       1.206   1.853  -1.586  0.00  0.00    +0.023 A 
ENDBRANCH   1   9
BRANCH   3  15
ATOM     15  N   UNL     1       2.195  -1.172  -3.620  0.00  0.00    -0.353 N 
ATOM     16  H   UNL     1       2.663  -1.210  -2.771  0.00  0.00    +0.143 HD
ATOM     17  H   UNL     1       2.677  -1.328  -4.447  0.00  0.00    +0.143 HD
ENDBRANCH   3  15
BRANCH   1  19
ATOM     18  C   UNL     1      -0.212  -1.908   0.469  0.00  0.00    +0.025 C 
ATOM     19  C   UNL     1       0.978  -1.723  -0.474  0.00  0.00    +0.109 C 
ENDBRANCH   1  19
BRANCH   4  20
ATOM     20  N   UNL     1       0.747  -1.257  -6.042  0.00  0.00    -0.299 N 
ATOM     21  H   UNL     1       1.708  -1.393  -6.055  0.00  0.00    +0.154 HD
BRANCH  20  22
ATOM     22  C   UNL     1       0.007  -1.385  -7.221  0.00  0.00    +0.037 A 
ATOM     23  C   UNL     1      -0.274  -2.646  -7.732  0.00  0.00    +0.043 A 
ATOM     24  C   UNL     1      -1.006  -2.769  -8.898  0.00  0.00    +0.043 A 
ATOM     25  C   UNL     1      -1.459  -1.638  -9.555  0.00  0.00    +0.020 A 
ATOM     26  C   UNL     1      -1.180  -0.382  -9.047  0.00  0.00    +0.006 A 
ATOM     27  C   UNL     1      -0.453  -0.253  -7.880  0.00  0.00    -0.029 A 
ATOM     28  C   UNL     1      -0.155   1.117  -7.326  0.00  0.00    +0.045 C 
ATOM     29 CL   UNL     1      -1.358  -4.343  -9.539  0.00  0.00    -0.083 Cl
ENDBRANCH  20  22
ENDBRANCH   4  20
TORSDOF 5
