REMARK  Name = ZINC39267701
REMARK  4 active torsions:
REMARK  status: ('A' for Active; 'I' for Inactive)
REMARK    1  A    between atoms: C_3  and  N_21
REMARK    2  A    between atoms: C_6  and  C_7
REMARK    3  A    between atoms: C_24  and  N_29
REMARK    4  A    between atoms: N_29  and  C_30
REMARK                            x       y       z     vdW  Elec       q    Type
REMARK                         _______ _______ _______ _____ _____    ______ ____
ROOT
ATOM      1  N   UNL     1       3.135   2.157   1.249  0.00  0.00    -0.301 N 
ATOM      2  C   UNL     1       4.227   1.489   1.786  0.00  0.00    +0.106 A 
ATOM      3  C   UNL     1       5.467   2.115   1.866  0.00  0.00    +0.085 A 
ATOM      4  C   UNL     1       6.533   1.407   2.413  0.00  0.00    +0.130 A 
ATOM      5  N   UNL     1       6.332   0.161   2.839  0.00  0.00    -0.201 NA
ATOM      6  C   UNL     1       5.138  -0.403   2.747  0.00  0.00    +0.193 A 
ATOM      7  N   UNL     1       4.100   0.243   2.237  0.00  0.00    -0.316 N 
ATOM      8  N   UNL     1       4.968  -1.699   3.200  0.00  0.00    -0.329 N 
ATOM      9  H   UNL     1       3.265   2.808   0.542  0.00  0.00    +0.154 HD
ATOM     10  H   UNL     1       5.719  -2.183   3.579  0.00  0.00    +0.145 HD
ATOM     11  H   UNL     1       4.099  -2.125   3.139  0.00  0.00    +0.145 HD
ATOM     12  H   UNL     1       3.238  -0.199   2.189  0.00  0.00    +0.170 HD
ENDROOT
BRANCH   1  15
ATOM     13  C   UNL     1      -0.518   2.211   1.572  0.00  0.00    +0.015 A 
ATOM     14  C   UNL     1       0.750   2.472   1.106  0.00  0.00    +0.024 A 
ATOM     15  C   UNL     1       1.854   1.891   1.723  0.00  0.00    +0.032 A 
ATOM     16  C   UNL     1       1.679   1.044   2.814  0.00  0.00    +0.024 A 
ATOM     17  C   UNL     1       0.413   0.779   3.285  0.00  0.00    +0.015 A 
ATOM     18  C   UNL     1      -0.697   1.361   2.668  0.00  0.00    +0.037 A 
BRANCH  18  19
ATOM     19  C   UNL     1      -2.055   1.080   3.171  0.00  0.00    +0.247 C 
ATOM     20  O   UNL     1      -2.360  -0.051   3.499  0.00  0.00    -0.270 OA
ATOM     21  N   UNL     1      -2.959   2.075   3.266  0.00  0.00    -0.294 N 
ATOM     22  C   UNL     1      -2.681   3.400   2.692  0.00  0.00    +0.108 C 
ATOM     23  C   UNL     1      -2.888   4.462   3.776  0.00  0.00    +0.019 C 
ATOM     24  C   UNL     1      -4.288   4.314   4.377  0.00  0.00    +0.007 C 
ATOM     25  C   UNL     1      -4.415   2.930   5.026  0.00  0.00    +0.010 C 
ATOM     26  C   UNL     1      -4.245   1.860   3.939  0.00  0.00    +0.079 C 
ATOM     27  C   UNL     1      -4.289   0.465   4.554  0.00  0.00    +0.023 C 
ATOM     28  C   UNL     1      -3.188   0.324   5.606  0.00  0.00    +0.002 C 
ATOM     29  C   UNL     1      -3.400   1.373   6.700  0.00  0.00    +0.000 C 
ATOM     30  C   UNL     1      -3.328   2.785   6.093  0.00  0.00    +0.005 C 
ENDBRANCH  18  19
ENDBRANCH   1  15
BRANCH   4  31
ATOM     31  N   UNL     1       7.787   1.990   2.513  0.00  0.00    -0.299 N 
ATOM     32  H   UNL     1       7.907   2.924   2.280  0.00  0.00    +0.154 HD
BRANCH  31  33
ATOM     33  C   UNL     1       8.879   1.232   2.949  0.00  0.00    +0.034 A 
ATOM     34  C   UNL     1       8.959  -0.128   2.650  0.00  0.00    +0.025 A 
ATOM     35  C   UNL     1      10.008  -0.887   3.061  0.00  0.00    +0.031 A 
ATOM     36  C   UNL     1      11.064  -0.322   3.813  0.00  0.00    +0.078 A 
ATOM     37  C   UNL     1      10.958   1.058   4.102  0.00  0.00    +0.041 A 
ATOM     38  C   UNL     1       9.899   1.825   3.680  0.00  0.00    +0.040 A 
ATOM     39  S   UNL     1      12.441   1.362   5.033  0.00  0.00    -0.075 S 
ATOM     40  C   UNL     1      13.083  -0.305   4.979  0.00  0.00    +0.157 A 
ATOM     41  N   UNL     1      12.168  -0.934   4.293  0.00  0.00    -0.247 NA
ENDBRANCH  31  33
ENDBRANCH   4  31
TORSDOF 4
