REMARK  Name = ZINC37817433
REMARK  8 active torsions:
REMARK  status: ('A' for Active; 'I' for Inactive)
REMARK    1  A    between atoms: C_3  and  C_8
REMARK    2  A    between atoms: C_14  and  C_16
REMARK    3  A    between atoms: C_16  and  C_17
REMARK    4  A    between atoms: C_17  and  C_18
REMARK    5  A    between atoms: C_18  and  C_19
REMARK    6  A    between atoms: C_19  and  C_20
REMARK    7  A    between atoms: C_20  and  C_21
REMARK    8  A    between atoms: C_21  and  N_22
REMARK                            x       y       z     vdW  Elec       q    Type
REMARK                         _______ _______ _______ _____ _____    ______ ____
ROOT
ATOM      1  C   UNL     1       3.672   2.183  -0.022  0.00  0.00    +0.106 C 
ATOM      2  C   UNL     1       4.288   2.192   1.393  0.00  0.00    +0.029 C 
ATOM      3  C   UNL     1       5.807   2.048   1.111  0.00  0.00    +0.021 C 
ATOM      4  C   UNL     1       5.808   1.109  -0.121  0.00  0.00    +0.108 C 
ATOM      5  N   UNL     1       4.638   1.530  -0.918  0.00  0.00    -0.294 N 
ATOM      6  C   UNL     1       4.479   1.347  -2.244  0.00  0.00    +0.216 C 
ATOM      7  O   UNL     1       3.470   1.735  -2.794  0.00  0.00    -0.276 OA
ENDROOT
BRANCH   1  10
ATOM      8  C   UNL     1      -0.017   1.378   0.010  0.00  0.00    +0.001 A 
ATOM      9  C   UNL     1       1.171   2.086   0.002  0.00  0.00    +0.005 A 
ATOM     10  C   UNL     1       2.378   1.411  -0.013  0.00  0.00    -0.026 A 
ATOM     11  C   UNL     1       2.397   0.029  -0.022  0.00  0.00    +0.020 A 
ATOM     12  C   UNL     1       1.210  -0.679  -0.014  0.00  0.00    +0.018 A 
ATOM     13  C   UNL     1       0.002  -0.004   0.002  0.00  0.00    +0.015 A 
ATOM     14 BR   UNL     1       1.236  -2.570  -0.025  0.00  0.00    -0.050 Br
ENDBRANCH   1  10
BRANCH   6  15
ATOM     15  C   UNL     1       5.555   0.658  -3.043  0.00  0.00    +0.096 C 
BRANCH  15  16
ATOM     16  C   UNL     1       5.129   0.579  -4.511  0.00  0.00    +0.009 C 
BRANCH  16  17
ATOM     17  C   UNL     1       6.222  -0.120  -5.322  0.00  0.00    +0.000 C 
BRANCH  17  18
ATOM     18  C   UNL     1       5.795  -0.200  -6.789  0.00  0.00    -0.002 C 
BRANCH  18  19
ATOM     19  C   UNL     1       6.888  -0.898  -7.601  0.00  0.00    -0.020 C 
BRANCH  19  20
ATOM     20  C   UNL     1       6.461  -0.978  -9.068  0.00  0.00    -0.086 C 
BRANCH  20  21
ATOM     21  N   UNL     1       7.511  -1.649  -9.847  0.00  0.00    +0.378 N 
ATOM     22  H   UNL     1       8.370  -1.126  -9.774  0.00  0.00    -0.090 HD
ATOM     23  H   UNL     1       7.653  -2.581  -9.487  0.00  0.00    -0.090 HD
ATOM     24  H   UNL     1       7.229  -1.702 -10.815  0.00  0.00    -0.090 HD
ENDBRANCH  20  21
ENDBRANCH  19  20
ENDBRANCH  18  19
ENDBRANCH  17  18
ENDBRANCH  16  17
ENDBRANCH  15  16
ENDBRANCH   6  15
TORSDOF 8
