REMARK  Name = ZINC39969484
REMARK  6 active torsions:
REMARK  status: ('A' for Active; 'I' for Inactive)
REMARK    1  A    between atoms: C_2  and  C_3
REMARK    2  A    between atoms: C_3  and  N_4
REMARK    3  A    between atoms: C_5  and  C_25
REMARK    4  A    between atoms: C_9  and  S_11
REMARK    5  A    between atoms: S_11  and  C_12
REMARK    6  A    between atoms: C_12  and  C_13
REMARK                            x       y       z     vdW  Elec       q    Type
REMARK                         _______ _______ _______ _____ _____    ______ ____
ROOT
ATOM      1  N   UNL     1       1.368  -1.678   1.115  0.00  0.00    +0.415 N 
ATOM      2  C   UNL     1       2.618  -2.464   1.066  0.00  0.00    +0.086 C 
ATOM      3  N   UNL     1       3.354  -2.163   2.315  0.00  0.00    -0.264 NA
ATOM      4  N   UNL     1       2.313  -1.720   3.257  0.00  0.00    -0.261 NA
ATOM      5  C   UNL     1       1.393  -0.933   2.394  0.00  0.00    +0.078 C 
ATOM      6  H   UNL     1       4.039  -1.438   2.166  0.00  0.00    +0.139 HD
ATOM      7  H   UNL     1       2.707  -1.144   3.986  0.00  0.00    +0.140 HD
ATOM      8  H   UNL     1       0.569  -2.295   1.089  0.00  0.00    -0.075 HD
ENDROOT
BRANCH   2   9
ATOM      9  C   UNL     1       2.301  -3.935   0.993  0.00  0.00    +0.108 A 
ATOM     10  C   UNL     1       3.072  -4.911   1.493  0.00  0.00    +0.053 A 
ATOM     11  C   UNL     1       2.379  -6.171   1.196  0.00  0.00    +0.022 A 
ATOM     12  C   UNL     1       2.653  -7.515   1.445  0.00  0.00    +0.031 A 
ATOM     13  C   UNL     1       1.766  -8.481   1.019  0.00  0.00    +0.042 A 
ATOM     14  C   UNL     1       0.608  -8.118   0.345  0.00  0.00    +0.023 A 
ATOM     15  C   UNL     1       0.326  -6.793   0.093  0.00  0.00    +0.048 A 
ATOM     16  C   UNL     1       1.207  -5.804   0.515  0.00  0.00    +0.135 A 
ATOM     17  O   UNL     1       1.202  -4.459   0.423  0.00  0.00    -0.460 OA
ATOM     18 CL   UNL     1       2.100 -10.157   1.325  0.00  0.00    -0.084 Cl
ENDBRANCH   2   9
BRANCH   1  19
ATOM     19  C   UNL     1       1.317  -0.740  -0.015  0.00  0.00    -0.045 C 
BRANCH  19  21
ATOM     20  C   UNL     1      -0.016   1.306   0.009  0.00  0.00    +0.002 C 
ATOM     21  C   UNL     1       0.002  -0.004   0.002  0.00  0.00    -0.053 C 
ENDBRANCH  19  21
ENDBRANCH   1  19
BRANCH   5  22
ATOM     22  S   UNL     1      -0.265  -0.871   3.126  0.00  0.00    -0.152 S 
BRANCH  22  23
ATOM     23  C   UNL     1      -0.701  -2.614   3.374  0.00  0.00    +0.143 C 
BRANCH  23  24
ATOM     24  C   UNL     1      -2.076  -2.706   3.985  0.00  0.00    +0.120 A 
ATOM     25  N   UNL     1      -2.581  -3.938   4.253  0.00  0.00    -0.310 N 
ATOM     26  H   UNL     1      -2.055  -4.728   4.049  0.00  0.00    +0.170 HD
ATOM     27  C   UNL     1      -3.810  -4.075   4.802  0.00  0.00    +0.259 A 
ATOM     28  O   UNL     1      -4.274  -5.173   5.048  0.00  0.00    -0.267 OA
ATOM     29  C   UNL     1      -4.563  -2.845   5.090  0.00  0.00    +0.065 A 
ATOM     30  C   UNL     1      -5.837  -2.876   5.655  0.00  0.00    +0.015 A 
ATOM     31  C   UNL     1      -6.497  -1.693   5.903  0.00  0.00    +0.001 A 
ATOM     32  C   UNL     1      -5.905  -0.474   5.596  0.00  0.00    +0.002 A 
ATOM     33  C   UNL     1      -4.648  -0.423   5.038  0.00  0.00    +0.028 A 
ATOM     34  C   UNL     1      -3.957  -1.608   4.777  0.00  0.00    +0.078 A 
ATOM     35  N   UNL     1      -2.715  -1.603   4.233  0.00  0.00    -0.233 NA
ENDBRANCH  23  24
ENDBRANCH  22  23
ENDBRANCH   5  22
TORSDOF 6
