REMARK  Name = ZINC50595156
REMARK  12 active torsions:
REMARK  status: ('A' for Active; 'I' for Inactive)
REMARK    1  A    between atoms: C_1  and  C_2
REMARK    2  A    between atoms: C_2  and  N_3
REMARK    3  A    between atoms: N_3  and  C_4
REMARK    4  A    between atoms: C_4  and  C_5
REMARK    5  A    between atoms: C_4  and  C_6
REMARK    6  A    between atoms: C_4  and  C_18
REMARK    7  A    between atoms: C_6  and  C_7
REMARK    8  A    between atoms: C_7  and  C_8
REMARK    9  A    between atoms: C_8  and  C_9
REMARK   10  A    between atoms: C_9  and  N_10
REMARK   11  A    between atoms: C_11  and  C_17
REMARK   12  A    between atoms: C_13  and  C_15
REMARK                            x       y       z     vdW  Elec       q    Type
REMARK                         _______ _______ _______ _____ _____    ______ ____
ROOT
ATOM      1  C   UNL     1       0.710  -1.947  -1.215  0.00  0.00    +0.007 C 
ATOM      2  C   UNL     1      -0.726  -2.476  -1.204  0.00  0.00    -0.001 C 
ENDROOT
BRANCH   1   3
ATOM      3  C   UNL     1       1.438  -2.446   0.006  0.00  0.00    +0.199 C 
ATOM      4  O   UNL     1       1.078  -3.467   0.552  0.00  0.00    -0.278 OA
ATOM      5  N   UNL     1       2.491  -1.757   0.491  0.00  0.00    -0.330 N 
ATOM      6  H   UNL     1       2.779  -0.941   0.055  0.00  0.00    +0.145 HD
ATOM      7  H   UNL     1       2.960  -2.079   1.277  0.00  0.00    +0.145 HD
ENDBRANCH   1   3
BRANCH   1   8
ATOM      8  N   UNL     1       0.690  -0.478  -1.207  0.00  0.00    +0.388 N 
ATOM      9  H   UNL     1       0.202  -0.144  -2.024  0.00  0.00    -0.084 HD
ATOM     10  H   UNL     1       1.636  -0.129  -1.214  0.00  0.00    -0.084 HD
BRANCH   8  12
ATOM     11  C   UNL     1      -0.019   1.526   0.010  0.00  0.00    -0.017 C 
ATOM     12  C   UNL     1       0.002  -0.004   0.002  0.00  0.00    -0.085 C 
ENDBRANCH   8  12
ENDBRANCH   1   8
BRANCH   1  13
ATOM     13  C   UNL     1       1.426  -2.440  -2.474  0.00  0.00    -0.004 C 
BRANCH  13  14
ATOM     14  C   UNL     1       1.446  -3.970  -2.482  0.00  0.00    +0.001 C 
BRANCH  14  15
ATOM     15  C   UNL     1       2.163  -4.463  -3.741  0.00  0.00    +0.023 C 
BRANCH  15  16
ATOM     16  C   UNL     1       2.183  -5.993  -3.749  0.00  0.00    +0.144 C 
BRANCH  16  17
ATOM     17  N   UNL     1       2.869  -6.466  -4.954  0.00  0.00    -0.267 N 
ATOM     18  C   UNL     1       2.291  -6.727  -6.146  0.00  0.00    +0.050 A 
ATOM     19  C   UNL     1       3.263  -7.138  -6.994  0.00  0.00    +0.061 A 
ATOM     20  C   UNL     1       4.475  -7.129  -6.296  0.00  0.00    +0.074 A 
ATOM     21  N   UNL     1       4.241  -6.721  -5.075  0.00  0.00    -0.175 NA
ATOM     22  C   UNL     1       5.820  -7.516  -6.856  0.00  0.00    +0.068 C 
ATOM     23 BR   UNL     1       3.023  -7.639  -8.802  0.00  0.00    -0.047 Br
ATOM     24  C   UNL     1       0.827  -6.585  -6.474  0.00  0.00    +0.066 C 
ENDBRANCH  16  17
ENDBRANCH  15  16
ENDBRANCH  14  15
ENDBRANCH  13  14
ENDBRANCH   1  13
TORSDOF 8
