REMARK  Name = ZINC39663092
REMARK  7 active torsions:
REMARK  status: ('A' for Active; 'I' for Inactive)
REMARK    1  A    between atoms: C_1  and  C_2
REMARK    2  A    between atoms: C_2  and  C_3
REMARK    3  A    between atoms: C_3  and  C_4
REMARK    4  A    between atoms: C_3  and  C_6
REMARK    5  A    between atoms: C_4  and  C_5
REMARK    6  A    between atoms: C_10  and  C_19
REMARK    7  A    between atoms: N_21  and  C_22
REMARK                            x       y       z     vdW  Elec       q    Type
REMARK                         _______ _______ _______ _____ _____    ______ ____
ROOT
ATOM      1  C   UNL     1       0.544  -2.152  -1.355  0.00  0.00    +0.219 C 
ATOM      2  O   UNL     1      -0.178  -2.724  -0.566  0.00  0.00    -0.275 OA
ATOM      3  N   UNL     1       1.217  -2.857  -2.286  0.00  0.00    -0.300 N 
ATOM      4  C   UNL     1       2.065  -2.335  -3.383  0.00  0.00    +0.121 C 
ATOM      5  C   UNL     1       3.262  -3.310  -3.449  0.00  0.00    +0.100 C 
ATOM      6  C   UNL     1       2.737  -4.617  -2.833  0.00  0.00    -0.004 C 
ATOM      7  C   UNL     1       1.280  -4.330  -2.440  0.00  0.00    +0.115 C 
ATOM      8  C   UNL     1       2.796  -5.746  -3.858  0.00  0.00    -0.010 C 
ATOM      9  C   UNL     1       2.324  -7.048  -3.205  0.00  0.00    -0.082 C 
ATOM     10  N   UNL     1       3.181  -7.360  -2.055  0.00  0.00    +0.379 N 
ATOM     11  C   UNL     1       3.047  -6.315  -1.033  0.00  0.00    -0.082 C 
ATOM     12  C   UNL     1       3.550  -4.982  -1.594  0.00  0.00    -0.010 C 
ATOM     13  H   UNL     1       2.906  -8.248  -1.664  0.00  0.00    -0.086 HD
ATOM     14  H   UNL     1       4.142  -7.411  -2.358  0.00  0.00    -0.086 HD
ENDROOT
BRANCH   5  15
ATOM     15  C   UNL     1       4.419  -2.776  -2.644  0.00  0.00    +0.218 C 
ATOM     16  O   UNL     1       4.212  -2.140  -1.632  0.00  0.00    -0.275 OA
ATOM     17  N   UNL     1       5.684  -3.004  -3.049  0.00  0.00    -0.314 N 
ATOM     18  H   UNL     1       5.850  -3.512  -3.859  0.00  0.00    +0.149 HD
BRANCH  17  19
ATOM     19  C   UNL     1       6.809  -2.485  -2.267  0.00  0.00    +0.059 C 
ATOM     20  C   UNL     1       7.153  -3.470  -1.147  0.00  0.00    -0.056 C 
ATOM     21  N   UNL     1       8.533  -3.938  -1.298  0.00  0.00    +0.381 N 
ATOM     22  C   UNL     1       8.702  -4.643  -2.570  0.00  0.00    -0.078 C 
ATOM     23  C   UNL     1       8.409  -3.697  -3.737  0.00  0.00    -0.014 C 
ATOM     24  C   UNL     1       8.033  -2.316  -3.176  0.00  0.00    +0.004 C 
ATOM     25  C   UNL     1       9.203  -1.808  -2.323  0.00  0.00    -0.014 C 
ATOM     26  C   UNL     1       9.471  -2.817  -1.201  0.00  0.00    -0.078 C 
ATOM     27  H   UNL     1       8.732  -4.587  -0.552  0.00  0.00    -0.082 HD
ENDBRANCH  17  19
ENDBRANCH   5  15
BRANCH   1  28
ATOM     28  C   UNL     1       0.688  -0.653  -1.295  0.00  0.00    +0.075 C 
BRANCH  28  30
ATOM     29  C   UNL     1      -0.228   1.515  -2.133  0.00  0.00    +0.004 C 
ATOM     30  C   UNL     1      -0.444   0.001  -2.090  0.00  0.00    +0.009 C 
ENDBRANCH  28  30
BRANCH  28  31
ATOM     31  C   UNL     1       0.620  -0.193   0.163  0.00  0.00    +0.009 C 
ATOM     32  C   UNL     1       1.830  -0.735   0.926  0.00  0.00    +0.004 C 
ENDBRANCH  28  31
ENDBRANCH   1  28
TORSDOF 5
