REMARK  Name = ZINC66908712
REMARK  9 active torsions:
REMARK  status: ('A' for Active; 'I' for Inactive)
REMARK    1  A    between atoms: C_1  and  N_2
REMARK    2  A    between atoms: N_2  and  C_3
REMARK    3  A    between atoms: N_2  and  C_4
REMARK    4  A    between atoms: C_4  and  C_6
REMARK    5  A    between atoms: C_4  and  C_23
REMARK    6  A    between atoms: C_6  and  N_7
REMARK    7  A    between atoms: N_10  and  C_11
REMARK    8  A    between atoms: C_11  and  C_12
REMARK    9  A    between atoms: C_12  and  O_22
REMARK                            x       y       z     vdW  Elec       q    Type
REMARK                         _______ _______ _______ _____ _____    ______ ____
ROOT
ATOM      1  N   UNL     1      -1.449   1.430  -1.457  0.00  0.00    -0.301 N 
ATOM      2  C   UNL     1      -2.090   2.209  -2.351  0.00  0.00    +0.300 C 
ATOM      3  O   UNL     1      -2.890   1.716  -3.123  0.00  0.00    -0.253 OA
ATOM      4  N   UNL     1      -1.844   3.534  -2.389  0.00  0.00    -0.296 N 
ATOM      5  H   UNL     1      -0.811   1.823  -0.841  0.00  0.00    +0.150 HD
ATOM      6  H   UNL     1      -1.206   3.926  -1.773  0.00  0.00    +0.150 HD
ENDROOT
BRANCH   1   7
ATOM      7  C   UNL     1      -1.716  -0.010  -1.416  0.00  0.00    +0.095 C 
BRANCH   7   8
ATOM      8  C   UNL     1      -0.784  -0.672  -0.400  0.00  0.00    -0.020 C 
BRANCH   8   9
ATOM      9  C   UNL     1      -1.086  -0.143   0.979  0.00  0.00    -0.052 A 
ATOM     10  C   UNL     1      -0.298   0.845   1.539  0.00  0.00    +0.009 A 
ATOM     11  C   UNL     1      -0.597   1.299   2.780  0.00  0.00    +0.045 A 
ATOM     12  S   UNL     1      -2.030   0.319   3.197  0.00  0.00    -0.105 S 
ATOM     13  C   UNL     1      -2.137  -0.625   1.685  0.00  0.00    +0.047 A 
ENDBRANCH   8   9
BRANCH   8  15
ATOM     14  C   UNL     1      -0.693  -2.643  -1.765  0.00  0.00    -0.096 C 
ATOM     15  N   UNL     1      -0.990  -2.127  -0.422  0.00  0.00    +0.382 N 
ATOM     16  C   UNL     1      -0.096  -2.763   0.555  0.00  0.00    -0.096 C 
ATOM     17  H   UNL     1      -1.949  -2.334  -0.186  0.00  0.00    -0.082 HD
ENDBRANCH   8  15
ENDBRANCH   7   8
ENDBRANCH   1   7
BRANCH   4  18
ATOM     18  C   UNL     1      -2.541   4.380  -3.361  0.00  0.00    +0.145 C 
BRANCH  18  19
ATOM     19  C   UNL     1      -2.005   5.810  -3.268  0.00  0.00    +0.107 C 
ATOM     20  C   UNL     1      -2.195   6.327  -1.843  0.00  0.00    +0.041 C 
ATOM     21  C   UNL     1      -1.857   7.823  -1.823  0.00  0.00    +0.008 C 
ATOM     22  C   UNL     1      -2.948   8.573  -2.584  0.00  0.00    +0.035 C 
ATOM     23  C   UNL     1      -3.172   7.952  -3.938  0.00  0.00    -0.041 A 
ATOM     24  C   UNL     1      -2.743   6.682  -4.250  0.00  0.00    -0.011 A 
ATOM     25  C   UNL     1      -2.987   6.165  -5.516  0.00  0.00    +0.007 A 
ATOM     26  C   UNL     1      -3.654   6.916  -6.463  0.00  0.00    +0.000 A 
ATOM     27  C   UNL     1      -4.082   8.192  -6.150  0.00  0.00    +0.000 A 
ATOM     28  C   UNL     1      -3.841   8.707  -4.893  0.00  0.00    +0.004 A 
BRANCH  19  29
ATOM     29  O   UNL     1      -0.613   5.813  -3.588  0.00  0.00    -0.382 OA
ATOM     30  H   UNL     1      -0.413   5.489  -4.476  0.00  0.00    +0.211 HD
ENDBRANCH  19  29
ENDBRANCH  18  19
ENDBRANCH   4  18
TORSDOF 7
