REMARK  Name = ZINC37553055
REMARK  8 active torsions:
REMARK  status: ('A' for Active; 'I' for Inactive)
REMARK    1  A    between atoms: C_1  and  C_2
REMARK    2  A    between atoms: C_5  and  S_7
REMARK    3  A    between atoms: S_7  and  N_10
REMARK    4  A    between atoms: N_10  and  C_11
REMARK    5  A    between atoms: C_14  and  C_18
REMARK    6  A    between atoms: C_16  and  C_17
REMARK    7  A    between atoms: C_19  and  C_20
REMARK    8  A    between atoms: C_20  and  N_21
REMARK                            x       y       z     vdW  Elec       q    Type
REMARK                         _______ _______ _______ _____ _____    ______ ____
ROOT
ATOM      1  C   UNL     1       2.143  -4.024  -2.459  0.00  0.00    +0.051 A 
ATOM      2  C   UNL     1       3.369  -3.567  -1.989  0.00  0.00    +0.026 A 
ATOM      3  C   UNL     1       4.203  -2.851  -2.821  0.00  0.00    +0.019 A 
ATOM      4  C   UNL     1       3.816  -2.586  -4.136  0.00  0.00    +0.025 A 
ATOM      5  C   UNL     1       2.584  -3.047  -4.604  0.00  0.00    +0.022 A 
ATOM      6  C   UNL     1       1.757  -3.767  -3.769  0.00  0.00    -0.027 A 
ATOM      7  C   UNL     1       0.430  -4.270  -4.276  0.00  0.00    +0.046 C 
ENDROOT
BRANCH   1   8
ATOM      8  N   UNL     1       1.300  -4.748  -1.614  0.00  0.00    -0.216 N 
ATOM      9  H   UNL     1       0.760  -5.471  -1.971  0.00  0.00    +0.174 HD
BRANCH   8  10
ATOM     10  S   UNL     1       1.222  -4.374  -0.003  0.00  0.00    +0.079 S 
ATOM     11  O   UNL     1       2.557  -4.399   0.485  0.00  0.00    -0.149 OA
ATOM     12  O   UNL     1       0.193  -5.181   0.552  0.00  0.00    -0.149 OA
BRANCH  10  17
ATOM     13  C   UNL     1       0.339   1.464   0.370  0.00  0.00    +0.051 C 
ATOM     14  C   UNL     1       0.290  -0.040   0.287  0.00  0.00    -0.011 A 
ATOM     15  C   UNL     1      -0.789  -0.860   0.292  0.00  0.00    +0.013 A 
ATOM     16  C   UNL     1      -0.593  -2.226   0.205  0.00  0.00    +0.037 A 
ATOM     17  C   UNL     1       0.673  -2.704   0.118  0.00  0.00    +0.146 A 
ATOM     18  S   UNL     1       1.638  -1.203   0.151  0.00  0.00    -0.074 S 
ENDBRANCH  10  17
ENDBRANCH   8  10
ENDBRANCH   1   8
BRANCH   4  19
ATOM     19  C   UNL     1       4.680  -1.842  -5.002  0.00  0.00    -0.068 C 
ATOM     20  C   UNL     1       5.389  -1.232  -5.712  0.00  0.00    -0.117 C 
BRANCH  20  21
ATOM     21  C   UNL     1       6.277  -0.468  -6.603  0.00  0.00    +0.005 C 
BRANCH  21  22
ATOM     22  N   UNL     1       5.645  -0.326  -7.921  0.00  0.00    +0.385 N 
ATOM     23  H   UNL     1       5.479  -1.240  -8.315  0.00  0.00    -0.089 HD
ATOM     24  H   UNL     1       4.767   0.162  -7.822  0.00  0.00    -0.089 HD
ATOM     25  H   UNL     1       6.254   0.198  -8.531  0.00  0.00    -0.089 HD
ENDBRANCH  21  22
ENDBRANCH  20  21
ENDBRANCH   4  19
TORSDOF 6
