REMARK  Name = ZINC66940390
REMARK  7 active torsions:
REMARK  status: ('A' for Active; 'I' for Inactive)
REMARK    1  A    between atoms: C_3  and  C_6
REMARK    2  A    between atoms: C_6  and  N_7
REMARK    3  A    between atoms: C_11  and  C_14
REMARK    4  A    between atoms: C_14  and  N_15
REMARK    5  A    between atoms: N_15  and  C_16
REMARK    6  A    between atoms: C_16  and  C_18
REMARK    7  A    between atoms: C_16  and  C_25
REMARK                            x       y       z     vdW  Elec       q    Type
REMARK                         _______ _______ _______ _____ _____    ______ ____
ROOT
ATOM      1  N   UNL     1       8.178   2.844   4.138  0.00  0.00    -0.302 NA
ATOM      2  H   UNL     1       7.634   3.437   4.747  0.00  0.00    +0.123 HD
ENDROOT
BRANCH   1   3
ATOM      3  C   UNL     1       7.650   2.872   2.767  0.00  0.00    +0.083 C 
BRANCH   3   8
ATOM      4  N   UNL     1       4.235   2.004   1.357  0.00  0.00    +0.383 N 
ATOM      5  C   UNL     1       3.445   3.044   2.027  0.00  0.00    -0.078 C 
ATOM      6  C   UNL     1       3.881   3.156   3.490  0.00  0.00    -0.018 C 
ATOM      7  C   UNL     1       5.366   3.525   3.548  0.00  0.00    +0.001 C 
ATOM      8  C   UNL     1       6.173   2.473   2.781  0.00  0.00    -0.014 C 
ATOM      9  C   UNL     1       5.652   2.385   1.345  0.00  0.00    -0.074 C 
ATOM     10  H   UNL     1       4.127   1.131   1.851  0.00  0.00    -0.081 HD
BRANCH   4  11
ATOM     11  C   UNL     1       3.761   1.845  -0.024  0.00  0.00    -0.036 C 
BRANCH  11  14
ATOM     12  C   UNL     1      -0.016   1.351   0.009  0.00  0.00    +0.008 A 
ATOM     13  C   UNL     1       1.183   2.038   0.002  0.00  0.00    +0.009 A 
ATOM     14  C   UNL     1       2.343   1.336  -0.013  0.00  0.00    -0.027 A 
ATOM     15  S   UNL     1       1.754  -0.349  -0.017  0.00  0.00    -0.103 S 
ATOM     16  C   UNL     1       0.002  -0.004   0.002  0.00  0.00    +0.045 A 
ENDBRANCH  11  14
ENDBRANCH   4  11
ENDBRANCH   3   8
ENDBRANCH   1   3
BRANCH   1  17
ATOM     17  C   UNL     1       9.597   3.223   4.163  0.00  0.00    +0.171 C 
BRANCH  17  18
ATOM     18  C   UNL     1       9.945   3.774   5.522  0.00  0.00    -0.021 A 
ATOM     19  C   UNL     1       9.430   3.183   6.660  0.00  0.00    +0.008 A 
ATOM     20  C   UNL     1       9.749   3.688   7.906  0.00  0.00    +0.038 A 
ATOM     21  C   UNL     1      10.586   4.785   8.015  0.00  0.00    +0.123 A 
ATOM     22  C   UNL     1      11.102   5.376   6.874  0.00  0.00    +0.038 A 
ATOM     23  C   UNL     1      10.786   4.867   5.629  0.00  0.00    +0.008 A 
ATOM     24  F   UNL     1      10.898   5.279   9.233  0.00  0.00    -0.205 F 
ENDBRANCH  17  18
BRANCH  17  25
ATOM     25  C   UNL     1      10.446   2.010   3.880  0.00  0.00    +0.232 C 
ATOM     26  O   UNL     1       9.920   0.936   3.678  0.00  0.00    -0.274 OA
ATOM     27  N   UNL     1      11.789   2.119   3.853  0.00  0.00    -0.328 N 
ATOM     28  H   UNL     1      12.209   2.978   4.015  0.00  0.00    +0.145 HD
ATOM     29  H   UNL     1      12.335   1.338   3.671  0.00  0.00    +0.145 HD
ENDBRANCH  17  25
ENDBRANCH   1  17
TORSDOF 7
