REMARK  Name = ZINC39534237
REMARK  11 active torsions:
REMARK  status: ('A' for Active; 'I' for Inactive)
REMARK    1  A    between atoms: C_1  and  S_2
REMARK    2  A    between atoms: S_2  and  N_3
REMARK    3  A    between atoms: N_3  and  C_4
REMARK    4  A    between atoms: C_4  and  C_5
REMARK    5  A    between atoms: C_5  and  C_7
REMARK    6  A    between atoms: C_5  and  N_23
REMARK    7  A    between atoms: C_10  and  S_13
REMARK    8  A    between atoms: S_13  and  O_16
REMARK    9  A    between atoms: O_16  and  C_17
REMARK   10  A    between atoms: C_27  and  C_30
REMARK   11  A    between atoms: C_35  and  O_36
REMARK                            x       y       z     vdW  Elec       q    Type
REMARK                         _______ _______ _______ _____ _____    ______ ____
ROOT
ATOM      1  C   UNL     1       2.163  -1.762   2.623  0.00  0.00    +0.101 C 
ENDROOT
BRANCH   1   2
ATOM      2  N   UNL     1       3.286  -1.397   1.748  0.00  0.00    -0.297 NA
ATOM      3  C   UNL     1       3.944  -0.171   2.220  0.00  0.00    +0.066 C 
ATOM      4  C   UNL     1       5.141   0.141   1.319  0.00  0.00    -0.066 C 
ATOM      5  N   UNL     1       4.680   0.314  -0.065  0.00  0.00    +0.385 N 
ATOM      6  C   UNL     1       4.046  -0.927  -0.530  0.00  0.00    -0.023 C 
ATOM      7  C   UNL     1       2.841  -1.248   0.356  0.00  0.00    +0.074 C 
ATOM      8  H   UNL     1       4.011   1.068  -0.104  0.00  0.00    -0.085 HD
ATOM      9  H   UNL     1       5.467   0.532  -0.657  0.00  0.00    -0.085 HD
BRANCH   6  10
ATOM     10  C   UNL     1       3.590  -0.754  -1.956  0.00  0.00    -0.019 A 
ATOM     11  C   UNL     1       3.333   0.510  -2.451  0.00  0.00    +0.005 A 
ATOM     12  C   UNL     1       2.914   0.670  -3.759  0.00  0.00    +0.000 A 
ATOM     13  C   UNL     1       2.751  -0.434  -4.575  0.00  0.00    +0.004 A 
ATOM     14  C   UNL     1       3.007  -1.700  -4.085  0.00  0.00    +0.045 A 
ATOM     15  C   UNL     1       3.433  -1.863  -2.774  0.00  0.00    +0.118 A 
BRANCH  15  16
ATOM     16  O   UNL     1       3.690  -3.107  -2.291  0.00  0.00    -0.507 OA
ATOM     17  H   UNL     1       2.908  -3.571  -1.962  0.00  0.00    +0.292 HD
ENDBRANCH  15  16
ENDBRANCH   6  10
ENDBRANCH   1   2
BRANCH   1  18
ATOM     18  C   UNL     1       1.944  -3.252   2.564  0.00  0.00    -0.029 A 
ATOM     19  C   UNL     1       2.525  -3.996   1.555  0.00  0.00    +0.007 A 
ATOM     20  C   UNL     1       2.324  -5.363   1.501  0.00  0.00    +0.031 A 
ATOM     21  C   UNL     1       1.543  -5.985   2.456  0.00  0.00    +0.128 A 
ATOM     22  C   UNL     1       0.962  -5.241   3.466  0.00  0.00    +0.031 A 
ATOM     23  C   UNL     1       1.167  -3.875   3.523  0.00  0.00    +0.007 A 
BRANCH  21  24
ATOM     24  S   UNL     1       1.286  -7.727   2.386  0.00  0.00    +0.151 S 
ATOM     25  O   UNL     1       0.072  -7.986   3.079  0.00  0.00    -0.131 OA
ATOM     26  O   UNL     1       1.489  -8.113   1.034  0.00  0.00    -0.131 OA
BRANCH  24  27
ATOM     27  O   UNL     1       2.397  -8.379   3.196  0.00  0.00    -0.342 OA
BRANCH  27  28
ATOM     28  C   UNL     1       2.240  -8.264   4.542  0.00  0.00    +0.157 A 
ATOM     29  C   UNL     1       2.771  -7.172   5.213  0.00  0.00    +0.048 A 
ATOM     30  C   UNL     1       2.610  -7.058   6.580  0.00  0.00    +0.004 A 
ATOM     31  C   UNL     1       1.921  -8.031   7.280  0.00  0.00    +0.000 A 
ATOM     32  C   UNL     1       1.391  -9.120   6.613  0.00  0.00    +0.004 A 
ATOM     33  C   UNL     1       1.544  -9.236   5.245  0.00  0.00    +0.048 A 
ENDBRANCH  27  28
ENDBRANCH  24  27
ENDBRANCH  21  24
ENDBRANCH   1  18
BRANCH   1  34
ATOM     34  C   UNL     1       0.897  -1.041   2.156  0.00  0.00    +0.117 C 
BRANCH  34  35
ATOM     35  N   UNL     1       1.137   0.408   2.138  0.00  0.00    -0.262 NA
ATOM     36  H   UNL     1       1.211   0.774   3.075  0.00  0.00    +0.135 HD
BRANCH  35  38
ATOM     37  C   UNL     1       0.436   2.971   1.193  0.00  0.00    +0.102 C 
ATOM     38  S   UNL     1      -0.122   1.246   1.227  0.00  0.00    -0.084 S 
ENDBRANCH  35  38
ENDBRANCH  34  35
ENDBRANCH   1  34
TORSDOF 10
