REMARK  Name = ZINC02888457
REMARK  11 active torsions:
REMARK  status: ('A' for Active; 'I' for Inactive)
REMARK    1  A    between atoms: C_1  and  C_2
REMARK    2  A    between atoms: C_2  and  C_3
REMARK    3  A    between atoms: C_3  and  N_4
REMARK    4  A    between atoms: N_4  and  C_5
REMARK    5  A    between atoms: C_5  and  C_6
REMARK    6  A    between atoms: C_8  and  O_18
REMARK    7  A    between atoms: C_9  and  O_13
REMARK    8  A    between atoms: O_13  and  C_14
REMARK    9  A    between atoms: C_14  and  C_15
REMARK   10  A    between atoms: O_18  and  C_19
REMARK   11  A    between atoms: C_19  and  C_20
REMARK                            x       y       z     vdW  Elec       q    Type
REMARK                         _______ _______ _______ _____ _____    ______ ____
ROOT
ATOM      1  C   UNL     1       1.446  -3.947  -2.482  0.00  0.00    -0.047 A 
ATOM      2  C   UNL     1       0.604  -4.644  -3.329  0.00  0.00    +0.052 A 
ATOM      3  C   UNL     1       0.622  -6.029  -3.338  0.00  0.00    +0.162 A 
ATOM      4  C   UNL     1       1.488  -6.717  -2.494  0.00  0.00    +0.164 A 
ATOM      5  C   UNL     1       2.330  -6.013  -1.647  0.00  0.00    +0.065 A 
ATOM      6  C   UNL     1       2.311  -4.630  -1.646  0.00  0.00    +0.023 A 
ATOM      7 BR   UNL     1       3.465  -3.671  -0.495  0.00  0.00    -0.050 Br
ENDROOT
BRANCH   1   8
ATOM      8  C   UNL     1       1.426  -2.440  -2.474  0.00  0.00    -0.046 C 
BRANCH   8   9
ATOM      9  N   UNL     1       0.738  -1.966  -1.265  0.00  0.00    +0.382 N 
ATOM     10  H   UNL     1       1.226  -2.301  -0.447  0.00  0.00    -0.085 HD
ATOM     11  H   UNL     1      -0.208  -2.316  -1.258  0.00  0.00    -0.085 HD
BRANCH   9  12
ATOM     12  C   UNL     1       0.718  -0.497  -1.257  0.00  0.00    -0.082 C 
BRANCH  12  14
ATOM     13  C   UNL     1      -0.019   1.526   0.010  0.00  0.00    +0.002 C 
ATOM     14  C   UNL     1       0.002  -0.004   0.002  0.00  0.00    -0.022 C 
ENDBRANCH  12  14
ENDBRANCH   9  12
ENDBRANCH   8   9
ENDBRANCH   1   8
BRANCH   4  15
ATOM     15  O   UNL     1       1.509  -8.076  -2.499  0.00  0.00    -0.479 OA
BRANCH  15  16
ATOM     16  C   UNL     1       2.423  -8.715  -1.606  0.00  0.00    +0.324 C 
BRANCH  16  17
ATOM     17  C   UNL     1       2.305 -10.210  -1.751  0.00  0.00    +0.248 C 
ATOM     18  O   UNL     1       1.516 -10.683  -2.541  0.00  0.00    -0.272 OA
ATOM     19  N   UNL     1       3.077 -11.023  -1.002  0.00  0.00    -0.327 N 
ATOM     20  H   UNL     1       3.709 -10.645  -0.370  0.00  0.00    +0.145 HD
ATOM     21  H   UNL     1       3.002 -11.986  -1.096  0.00  0.00    +0.145 HD
ENDBRANCH  16  17
ENDBRANCH  15  16
ENDBRANCH   4  15
BRANCH   3  22
ATOM     22  O   UNL     1      -0.206  -6.715  -4.171  0.00  0.00    -0.489 OA
BRANCH  22  23
ATOM     23  C   UNL     1      -1.068  -5.944  -5.009  0.00  0.00    +0.226 C 
ATOM     24  C   UNL     1      -1.918  -6.882  -5.868  0.00  0.00    +0.048 C 
ENDBRANCH  22  23
ENDBRANCH   3  22
TORSDOF 9
