REMARK  Name = ZINC42845815
REMARK  9 active torsions:
REMARK  status: ('A' for Active; 'I' for Inactive)
REMARK    1  A    between atoms: C_1  and  C_2
REMARK    2  A    between atoms: C_2  and  N_3
REMARK    3  A    between atoms: N_3  and  C_4
REMARK    4  A    between atoms: N_3  and  C_6
REMARK    5  A    between atoms: C_4  and  C_5
REMARK    6  A    between atoms: C_6  and  C_7
REMARK    7  A    between atoms: C_7  and  N_8
REMARK    8  A    between atoms: N_11  and  N_12
REMARK    9  A    between atoms: C_13  and  C_15
REMARK                            x       y       z     vdW  Elec       q    Type
REMARK                         _______ _______ _______ _____ _____    ______ ____
ROOT
ATOM      1  N   UNL     1       1.349  -4.018  -2.680  0.00  0.00    -0.300 N 
ATOM      2  C   UNL     1       2.002  -4.682  -3.654  0.00  0.00    +0.316 C 
ATOM      3  O   UNL     1       2.700  -4.074  -4.442  0.00  0.00    -0.251 OA
ATOM      4  N   UNL     1       1.881  -6.021  -3.755  0.00  0.00    -0.218 N 
ATOM      5  H   UNL     1       0.792  -4.504  -2.052  0.00  0.00    +0.150 HD
ATOM      6  H   UNL     1       2.351  -6.499  -4.456  0.00  0.00    +0.174 HD
ENDROOT
BRANCH   4   7
ATOM      7  N   UNL     1       1.076  -6.722  -2.848  0.00  0.00    -0.229 N 
ATOM      8  C   UNL     1       0.956  -8.060  -2.949  0.00  0.00    +0.267 C 
ATOM      9  O   UNL     1       1.545  -8.660  -3.828  0.00  0.00    -0.268 OA
ATOM     10  H   UNL     1       0.606  -6.244  -2.147  0.00  0.00    +0.173 HD
BRANCH   8  11
ATOM     11  C   UNL     1       0.114  -8.794  -1.999  0.00  0.00    +0.076 A 
ATOM     12  C   UNL     1      -0.139 -10.150  -1.924  0.00  0.00    +0.024 A 
ATOM     13  C   UNL     1      -0.989 -10.579  -0.909  0.00  0.00    -0.036 A 
ATOM     14  C   UNL     1      -1.490  -9.617  -0.091  0.00  0.00    -0.006 A 
ATOM     15  S   UNL     1      -0.848  -8.171  -0.633  0.00  0.00    -0.088 S 
ATOM     16  C   UNL     1      -2.426  -9.793   1.068  0.00  0.00    +0.043 C 
ATOM     17  C   UNL     1      -2.226 -11.184   1.680  0.00  0.00    +0.005 C 
ATOM     18  C   UNL     1      -3.153 -12.166   0.970  0.00  0.00    +0.001 C 
ATOM     19  C   UNL     1      -2.823 -12.235  -0.519  0.00  0.00    +0.005 C 
ATOM     20  C   UNL     1      -1.325 -12.058  -0.741  0.00  0.00    +0.036 C 
ENDBRANCH   8  11
ENDBRANCH   4   7
BRANCH   1  21
ATOM     21  C   UNL     1       1.480  -2.563  -2.571  0.00  0.00    +0.087 C 
BRANCH  21  22
ATOM     22  C   UNL     1       0.644  -2.063  -1.391  0.00  0.00    -0.060 C 
BRANCH  22  23
ATOM     23  N   UNL     1       0.871  -0.624  -1.206  0.00  0.00    +0.380 N 
ATOM     24  H   UNL     1       1.859  -0.450  -1.103  0.00  0.00    -0.082 HD
BRANCH  23  26
ATOM     25  C   UNL     1       0.712   1.591  -2.240  0.00  0.00    -0.017 C 
ATOM     26  C   UNL     1       0.364   0.107  -2.375  0.00  0.00    -0.082 C 
ENDBRANCH  23  26
BRANCH  23  27
ATOM     27  C   UNL     1       0.165  -0.168  -0.001  0.00  0.00    -0.082 C 
ATOM     28  C   UNL     1       0.798  -0.811   1.235  0.00  0.00    -0.017 C 
ENDBRANCH  23  27
ENDBRANCH  22  23
ENDBRANCH  21  22
ENDBRANCH   1  21
TORSDOF 7
