REMARK  Name = ZINC15838415
REMARK  8 active torsions:
REMARK  status: ('A' for Active; 'I' for Inactive)
REMARK    1  A    between atoms: C_1  and  C_2
REMARK    2  A    between atoms: C_5  and  N_8
REMARK    3  A    between atoms: C_11  and  N_16
REMARK    4  A    between atoms: C_13  and  C_15
REMARK    5  A    between atoms: N_16  and  C_17
REMARK    6  A    between atoms: C_20  and  N_23
REMARK    7  A    between atoms: N_23  and  S_24
REMARK    8  A    between atoms: S_24  and  C_27
REMARK                            x       y       z     vdW  Elec       q    Type
REMARK                         _______ _______ _______ _____ _____    ______ ____
ROOT
ATOM      1  C   UNL     1      -0.857   6.216  -1.102  0.00  0.00    +0.032 A 
ATOM      2  C   UNL     1      -1.201   5.637  -2.317  0.00  0.00    +0.025 A 
ATOM      3  C   UNL     1      -1.293   4.264  -2.426  0.00  0.00    +0.026 A 
ATOM      4  C   UNL     1      -1.042   3.461  -1.321  0.00  0.00    +0.048 A 
ATOM      5  C   UNL     1      -0.703   4.040  -0.105  0.00  0.00    +0.026 A 
ATOM      6  C   UNL     1      -0.605   5.413   0.003  0.00  0.00    +0.025 A 
ENDROOT
BRANCH   1   7
ATOM      7  N   UNL     1      -0.764   7.609  -0.992  0.00  0.00    -0.299 N 
ATOM      8  H   UNL     1      -0.327   8.123  -1.689  0.00  0.00    +0.154 HD
BRANCH   7  12
ATOM      9  N   UNL     1      -3.331   7.588   3.092  0.00  0.00    -0.299 N 
ATOM     10  C   UNL     1      -2.568   8.244   2.137  0.00  0.00    +0.128 A 
ATOM     11  C   UNL     1      -2.061   7.552   1.041  0.00  0.00    +0.087 A 
ATOM     12  C   UNL     1      -1.296   8.254   0.115  0.00  0.00    +0.128 A 
ATOM     13  N   UNL     1      -1.088   9.556   0.303  0.00  0.00    -0.217 NA
ATOM     14  C   UNL     1      -1.590  10.177   1.351  0.00  0.00    +0.130 A 
ATOM     15  N   UNL     1      -2.314   9.546   2.253  0.00  0.00    -0.217 NA
ATOM     16  C   UNL     1      -1.328  11.651   1.523  0.00  0.00    +0.088 C 
ATOM     17  H   UNL     1      -3.459   6.628   3.035  0.00  0.00    +0.154 HD
BRANCH   9  22
ATOM     18  C   UNL     1      -5.701  10.519   7.330  0.00  0.00    +0.044 C 
ATOM     19  C   UNL     1      -5.072   9.740   6.204  0.00  0.00    -0.050 A 
ATOM     20  C   UNL     1      -4.547   8.483   6.444  0.00  0.00    +0.005 A 
ATOM     21  C   UNL     1      -3.969   7.767   5.414  0.00  0.00    +0.023 A 
ATOM     22  C   UNL     1      -3.915   8.310   4.136  0.00  0.00    +0.032 A 
ATOM     23  C   UNL     1      -4.439   9.575   3.901  0.00  0.00    +0.023 A 
ATOM     24  C   UNL     1      -5.021  10.283   4.934  0.00  0.00    +0.005 A 
ENDBRANCH   9  22
ENDBRANCH   7  12
ENDBRANCH   1   7
BRANCH   4  25
ATOM     25  N   UNL     1      -1.135   2.069  -1.431  0.00  0.00    -0.216 N 
ATOM     26  H   UNL     1      -1.861   1.596  -0.995  0.00  0.00    +0.174 HD
BRANCH  25  27
ATOM     27  S   UNL     1      -0.007   1.230  -2.306  0.00  0.00    +0.075 S 
ATOM     28  O   UNL     1      -0.372  -0.141  -2.231  0.00  0.00    -0.150 OA
ATOM     29  O   UNL     1       0.137   1.913  -3.544  0.00  0.00    -0.150 OA
BRANCH  27  30
ATOM     30  C   UNL     1       1.531   1.389  -1.461  0.00  0.00    +0.144 A 
ATOM     31  C   UNL     1       2.112   0.282  -0.870  0.00  0.00    +0.034 A 
ATOM     32  C   UNL     1       3.318   0.405  -0.208  0.00  0.00    +0.040 A 
ATOM     33  C   UNL     1       3.947   1.637  -0.135  0.00  0.00    +0.126 A 
ATOM     34  C   UNL     1       3.366   2.746  -0.726  0.00  0.00    +0.078 A 
ATOM     35  C   UNL     1       2.160   2.620  -1.394  0.00  0.00    +0.153 A 
ATOM     36  F   UNL     1       1.594   3.701  -1.976  0.00  0.00    -0.203 F 
ATOM     37  F   UNL     1       5.126   1.757   0.513  0.00  0.00    -0.205 F 
ENDBRANCH  27  30
ENDBRANCH  25  27
ENDBRANCH   4  25
TORSDOF 6
