REMARK  Name = ZINC65751180
REMARK  9 active torsions:
REMARK  status: ('A' for Active; 'I' for Inactive)
REMARK    1  A    between atoms: C_1  and  N_2
REMARK    2  A    between atoms: N_2  and  C_3
REMARK    3  A    between atoms: C_3  and  C_4
REMARK    4  A    between atoms: C_8  and  O_10
REMARK    5  A    between atoms: O_10  and  C_11
REMARK    6  A    between atoms: N_14  and  C_15
REMARK    7  A    between atoms: C_19  and  C_21
REMARK    8  A    between atoms: C_21  and  N_22
REMARK    9  A    between atoms: C_26  and  C_27
REMARK                            x       y       z     vdW  Elec       q    Type
REMARK                         _______ _______ _______ _____ _____    ______ ____
ROOT
ATOM      1  C   UNL     1       0.067  -0.634  -3.572  0.00  0.00    +0.035 A 
ATOM      2  C   UNL     1       0.074  -2.021  -3.639  0.00  0.00    +0.023 A 
ATOM      3  C   UNL     1       0.160  -2.652  -4.864  0.00  0.00    +0.002 A 
ATOM      4  C   UNL     1       0.239  -1.904  -6.025  0.00  0.00    +0.002 A 
ATOM      5  C   UNL     1       0.233  -0.523  -5.962  0.00  0.00    -0.062 A 
ATOM      6  C   UNL     1       0.141   0.114  -4.740  0.00  0.00    +0.025 A 
ENDROOT
BRANCH   1  11
ATOM      7  C   UNL     1      -0.083   1.441   0.021  0.00  0.00    +0.134 C 
ATOM      8  N   UNL     1       0.577   0.137  -0.079  0.00  0.00    -0.284 N 
ATOM      9  C   UNL     1       0.582  -0.527  -1.252  0.00  0.00    +0.306 C 
ATOM     10  O   UNL     1       1.130  -1.609  -1.336  0.00  0.00    -0.252 OA
ATOM     11  N   UNL     1      -0.020   0.009  -2.332  0.00  0.00    -0.269 N 
ATOM     12  H   UNL     1      -0.514   0.839  -2.250  0.00  0.00    +0.156 HD
BRANCH   8  13
ATOM     13  C   UNL     1       1.232  -0.445   1.095  0.00  0.00    +0.144 C 
BRANCH  13  14
ATOM     14  C   UNL     1       0.241  -1.288   1.856  0.00  0.00    -0.027 A 
ATOM     15  C   UNL     1      -0.531  -0.717   2.851  0.00  0.00    +0.005 A 
ATOM     16  C   UNL     1      -1.441  -1.487   3.551  0.00  0.00    +0.004 A 
ATOM     17  C   UNL     1      -1.580  -2.830   3.259  0.00  0.00    +0.045 A 
ATOM     18  C   UNL     1      -0.807  -3.405   2.262  0.00  0.00    +0.120 A 
ATOM     19  C   UNL     1       0.101  -2.629   1.556  0.00  0.00    +0.050 A 
BRANCH  18  20
ATOM     20  O   UNL     1      -0.942  -4.726   1.973  0.00  0.00    -0.495 OA
ATOM     21  C   UNL     1      -1.900  -5.463   2.735  0.00  0.00    +0.277 C 
ENDBRANCH  18  20
ENDBRANCH  13  14
ENDBRANCH   8  13
ENDBRANCH   1  11
BRANCH   5  22
ATOM     22  C   UNL     1       0.322   0.289  -7.229  0.00  0.00    -0.042 C 
BRANCH  22  23
ATOM     23  N   UNL     1      -1.032   0.551  -7.738  0.00  0.00    +0.390 N 
ATOM     24  C   UNL     1      -1.750   1.478  -6.827  0.00  0.00    -0.077 C 
ATOM     25  C   UNL     1      -2.854   2.080  -7.732  0.00  0.00    -0.020 C 
ATOM     26  C   UNL     1      -2.139   2.233  -9.094  0.00  0.00    -0.008 C 
ATOM     27  C   UNL     1      -0.961   1.242  -9.043  0.00  0.00    +0.019 C 
ATOM     28  H   UNL     1      -1.543  -0.314  -7.829  0.00  0.00    -0.080 HD
BRANCH  27  29
ATOM     29  C   UNL     1      -1.083   0.240 -10.162  0.00  0.00    +0.197 C 
ATOM     30  O   UNL     1      -1.217  -0.938  -9.909  0.00  0.00    -0.278 OA
ATOM     31  N   UNL     1      -1.044   0.654 -11.444  0.00  0.00    -0.331 N 
ATOM     32  H   UNL     1      -0.937   1.597 -11.647  0.00  0.00    +0.145 HD
ATOM     33  H   UNL     1      -1.123   0.009 -12.165  0.00  0.00    +0.145 HD
ENDBRANCH  27  29
ENDBRANCH  22  23
ENDBRANCH   5  22
TORSDOF 7
