REMARK  Name = ZINC59984802
REMARK  10 active torsions:
REMARK  status: ('A' for Active; 'I' for Inactive)
REMARK    1  A    between atoms: C_1  and  C_2
REMARK    2  A    between atoms: C_5  and  S_26
REMARK    3  A    between atoms: C_7  and  C_8
REMARK    4  A    between atoms: N_10  and  C_11
REMARK    5  A    between atoms: C_15  and  C_17
REMARK    6  A    between atoms: S_26  and  N_29
REMARK    7  A    between atoms: N_29  and  C_30
REMARK    8  A    between atoms: C_30  and  C_31
REMARK    9  A    between atoms: C_30  and  C_32
REMARK   10  A    between atoms: C_30  and  C_33
REMARK                            x       y       z     vdW  Elec       q    Type
REMARK                         _______ _______ _______ _____ _____    ______ ____
ROOT
ATOM      1  C   UNL     1       2.871   0.993   1.082  0.00  0.00    +0.249 C 
ATOM      2  O   UNL     1       2.835   2.136   0.670  0.00  0.00    -0.270 OA
ATOM      3  N   UNL     1       3.674   0.674   2.116  0.00  0.00    -0.281 N 
ATOM      4  H   UNL     1       3.665  -0.226   2.477  0.00  0.00    +0.155 HD
ENDROOT
BRANCH   1  11
ATOM      5  C   UNL     1       0.953   1.743  -0.952  0.00  0.00    +0.044 C 
ATOM      6  C   UNL     1       1.105   0.303  -0.534  0.00  0.00    -0.038 A 
ATOM      7  C   UNL     1       0.331  -0.674  -1.126  0.00  0.00    +0.006 A 
ATOM      8  C   UNL     1       0.469  -1.996  -0.744  0.00  0.00    +0.029 A 
ATOM      9  C   UNL     1       1.383  -2.349   0.233  0.00  0.00    +0.106 A 
ATOM     10  C   UNL     1       2.164  -1.383   0.832  0.00  0.00    +0.041 A 
ATOM     11  C   UNL     1       2.033  -0.047   0.448  0.00  0.00    +0.042 A 
BRANCH   9  12
ATOM     12  S   UNL     1       1.550  -4.036   0.713  0.00  0.00    +0.059 S 
ATOM     13  O   UNL     1       1.850  -4.036   2.102  0.00  0.00    -0.153 OA
ATOM     14  O   UNL     1       0.429  -4.724   0.175  0.00  0.00    -0.153 OA
BRANCH  12  15
ATOM     15  N   UNL     1       2.888  -4.635  -0.060  0.00  0.00    -0.185 NA
ATOM     16  H   UNL     1       3.668  -4.897   0.454  0.00  0.00    +0.149 HD
BRANCH  15  17
ATOM     17  C   UNL     1       2.893  -4.767  -1.519  0.00  0.00    +0.032 C 
ATOM     18  C   UNL     1       2.557  -3.417  -2.155  0.00  0.00    +0.029 C 
ATOM     19  C   UNL     1       4.278  -5.220  -1.984  0.00  0.00    +0.029 C 
ATOM     20  C   UNL     1       1.849  -5.803  -1.940  0.00  0.00    +0.029 C 
ENDBRANCH  15  17
ENDBRANCH  12  15
ENDBRANCH   9  12
ENDBRANCH   1  11
BRANCH   3  21
ATOM     21  C   UNL     1       4.519   1.641   2.669  0.00  0.00    +0.034 A 
ATOM     22  C   UNL     1       4.098   2.963   2.760  0.00  0.00    +0.023 A 
ATOM     23  C   UNL     1       4.930   3.921   3.307  0.00  0.00    +0.002 A 
ATOM     24  C   UNL     1       6.184   3.571   3.766  0.00  0.00    +0.010 A 
ATOM     25  C   UNL     1       6.615   2.248   3.679  0.00  0.00    +0.001 A 
ATOM     26  C   UNL     1       5.775   1.281   3.133  0.00  0.00    +0.033 A 
BRANCH  25  27
ATOM     27  C   UNL     1       7.963   1.871   4.172  0.00  0.00    +0.064 A 
ATOM     28  C   UNL     1       8.508   0.625   4.142  0.00  0.00    +0.113 A 
ATOM     29  N   UNL     1       9.749   0.731   4.690  0.00  0.00    -0.335 N 
ATOM     30  C   UNL     1       9.934   2.027   5.040  0.00  0.00    +0.087 A 
ATOM     31  N   UNL     1       8.870   2.704   4.725  0.00  0.00    -0.343 N 
ATOM     32  C   UNL     1      11.194   2.555   5.687  0.00  0.00    +0.072 C 
ATOM     33  C   UNL     1      11.995   1.362   6.220  0.00  0.00    +0.009 C 
ATOM     34  C   UNL     1      12.109   0.299   5.123  0.00  0.00    +0.022 C 
ATOM     35  C   UNL     1      10.735  -0.336   4.882  0.00  0.00    +0.123 C 
ATOM     36  H   UNL     1       8.747   3.656   4.866  0.00  0.00    +0.167 HD
ENDBRANCH  25  27
ENDBRANCH   3  21
TORSDOF 6
