REMARK  Name = ZINC40158504
REMARK  11 active torsions:
REMARK  status: ('A' for Active; 'I' for Inactive)
REMARK    1  A    between atoms: C_1  and  C_2
REMARK    2  A    between atoms: C_2  and  C_3
REMARK    3  A    between atoms: C_4  and  C_15
REMARK    4  A    between atoms: N_7  and  C_8
REMARK    5  A    between atoms: N_17  and  C_18
REMARK    6  A    between atoms: C_19  and  C_29
REMARK    7  A    between atoms: C_20  and  C_24
REMARK    8  A    between atoms: C_24  and  C_25
REMARK    9  A    between atoms: C_25  and  C_26
REMARK   10  A    between atoms: C_26  and  N_27
REMARK   11  A    between atoms: N_27  and  C_28
REMARK                            x       y       z     vdW  Elec       q    Type
REMARK                         _______ _______ _______ _____ _____    ______ ____
ROOT
ATOM      1  C   UNL     1      -1.085  -0.917  -2.848  0.00  0.00    +0.253 C 
ATOM      2  O   UNL     1      -1.973  -0.832  -2.022  0.00  0.00    -0.270 OA
ATOM      3  N   UNL     1      -1.389  -1.045  -4.155  0.00  0.00    -0.266 N 
ATOM      4  H   UNL     1      -0.680  -1.113  -4.813  0.00  0.00    +0.157 HD
ENDROOT
BRANCH   3   5
ATOM      5  C   UNL     1      -2.715  -1.079  -4.557  0.00  0.00    +0.139 A 
ATOM      6  C   UNL     1      -3.179  -1.211  -5.862  0.00  0.00    +0.114 A 
ATOM      7  C   UNL     1      -4.591  -1.196  -5.802  0.00  0.00    +0.082 A 
ATOM      8  N   UNL     1      -4.945  -1.065  -4.554  0.00  0.00    -0.176 NA
ATOM      9  N   UNL     1      -3.797  -0.995  -3.756  0.00  0.00    -0.263 N 
ATOM     10  H   UNL     1      -3.783  -0.900  -2.791  0.00  0.00    +0.190 HD
BRANCH   6  11
ATOM     11  C   UNL     1      -2.377  -1.337  -7.042  0.00  0.00    +0.104 C 
ATOM     12  N   UNL     1      -1.742  -1.438  -7.978  0.00  0.00    -0.191 NA
ENDBRANCH   6  11
BRANCH   7  13
ATOM     13  C   UNL     1      -5.526  -1.312  -6.978  0.00  0.00    +0.057 C 
BRANCH  13  14
ATOM     14  C   UNL     1      -5.851  -2.787  -7.227  0.00  0.00    -0.013 C 
BRANCH  14  15
ATOM     15  C   UNL     1      -6.801  -2.905  -8.421  0.00  0.00    -0.083 C 
BRANCH  15  16
ATOM     16  N   UNL     1      -7.113  -4.320  -8.661  0.00  0.00    +0.377 N 
ATOM     17  C   UNL     1      -8.025  -4.433  -9.807  0.00  0.00    -0.101 C 
ATOM     18  H   UNL     1      -6.261  -4.824  -8.857  0.00  0.00    -0.086 HD
ATOM     19  H   UNL     1      -7.553  -4.711  -7.841  0.00  0.00    -0.086 HD
ENDBRANCH  15  16
ENDBRANCH  14  15
ENDBRANCH  13  14
ENDBRANCH   7  13
ENDBRANCH   3   5
BRANCH   1  21
ATOM     20  C   UNL     1       0.785  -0.755  -1.124  0.00  0.00    +0.057 A 
ATOM     21  C   UNL     1       0.325  -0.881  -2.420  0.00  0.00    +0.078 A 
ATOM     22  C   UNL     1       1.459  -0.970  -3.259  0.00  0.00    +0.148 A 
ATOM     23  N   UNL     1       2.524  -0.901  -2.509  0.00  0.00    -0.174 NA
ATOM     24  N   UNL     1       2.130  -0.761  -1.173  0.00  0.00    -0.236 N 
BRANCH  24  25
ATOM     25  C   UNL     1       2.990  -0.649  -0.072  0.00  0.00    +0.067 A 
ATOM     26  C   UNL     1       2.738   0.294   0.914  0.00  0.00    +0.028 A 
ATOM     27  C   UNL     1       3.587   0.403   1.998  0.00  0.00    +0.003 A 
ATOM     28  C   UNL     1       4.688  -0.427   2.102  0.00  0.00    +0.020 A 
ATOM     29  C   UNL     1       4.943  -1.369   1.121  0.00  0.00    +0.043 A 
ATOM     30  C   UNL     1       4.093  -1.486   0.036  0.00  0.00    +0.047 A 
ATOM     31 CL   UNL     1       6.326  -2.409   1.254  0.00  0.00    -0.083 Cl
ENDBRANCH  24  25
BRANCH  20  33
ATOM     32  C   UNL     1      -0.276  -2.012   0.732  0.00  0.00    +0.010 C 
ATOM     33  C   UNL     1      -0.062  -0.628   0.116  0.00  0.00    +0.053 C 
ENDBRANCH  20  33
ENDBRANCH   1  21
TORSDOF 9
