REMARK  Name = ZINC64684363
REMARK  10 active torsions:
REMARK  status: ('A' for Active; 'I' for Inactive)
REMARK    1  A    between atoms: C_1  and  C_2
REMARK    2  A    between atoms: C_5  and  C_34
REMARK    3  A    between atoms: C_6  and  N_8
REMARK    4  A    between atoms: C_9  and  S_14
REMARK    5  A    between atoms: S_14  and  C_15
REMARK    6  A    between atoms: C_15  and  C_16
REMARK    7  A    between atoms: N_18  and  CA_19
REMARK    8  A    between atoms: CA_19  and  CB_21
REMARK    9  A    between atoms: CA_19  and  C_31
REMARK   10  A    between atoms: CB_21  and  CG_22
REMARK                            x       y       z     vdW  Elec       q    Type
REMARK                         _______ _______ _______ _____ _____    ______ ____
ROOT
ATOM      1  C   UNK A   0       2.546  -4.790   2.388  0.00  0.00    +0.167 C 
ENDROOT
BRANCH   1   2
ATOM      2  C   UNK A   0       3.879  -5.276   1.879  0.00  0.00    +0.224 C 
ATOM      3  O   UNK A   0       4.833  -4.527   1.866  0.00  0.00    -0.275 OA
ATOM      4  N   TRP A   1       4.011  -6.543   1.439  0.00  0.00    -0.301 N 
ATOM      5  H   TRP A   1       3.248  -7.142   1.450  0.00  0.00    +0.150 HD
BRANCH   4   6
ATOM      6  CA  TRP A   1       5.306  -7.016   0.945  0.00  0.00    +0.190 C 
BRANCH   6   7
ATOM      7  C   TRP A   1       5.454  -6.649  -0.509  0.00  0.00    +0.376 C 
ATOM      8  O   TRP A   1       4.559  -6.048  -1.080  0.00  0.00    -0.244 OA
ATOM      9  OXT TRP A   1       6.467  -6.952  -1.115  0.00  0.00    -0.244 OA
ENDBRANCH   6   7
BRANCH   6  10
ATOM     10  CB  TRP A   1       5.387  -8.536   1.097  0.00  0.00    +0.067 C 
BRANCH  10  11
ATOM     11  CG  TRP A   1       5.363  -8.896   2.561  0.00  0.00    -0.039 C 
ATOM     12  CD2 TRP A   1       4.282  -9.247   3.294  0.00  0.00    -0.001 A 
ATOM     13  CE3 TRP A   1       2.859  -9.392   2.962  0.00  0.00    +0.010 A 
ATOM     14  CZ3 TRP A   1       1.994  -9.765   3.933  0.00  0.00    +0.001 A 
ATOM     15  CH2 TRP A   1       2.421 -10.017   5.244  0.00  0.00    +0.002 A 
ATOM     16  CZ2 TRP A   1       3.711  -9.905   5.625  0.00  0.00    +0.026 A 
ATOM     17  CE2 TRP A   1       4.707  -9.519   4.686  0.00  0.00    +0.043 A 
ATOM     18  NE1 TRP A   1       6.000  -9.343   4.808  0.00  0.00    -0.380 N 
ATOM     19  CD1 TRP A   1       6.543  -8.945   3.504  0.00  0.00    +0.144 C 
ATOM     20  HE1 TRP A   1       6.513  -9.460   5.623  0.00  0.00    +0.160 HD
ENDBRANCH  10  11
ENDBRANCH   6  10
ENDBRANCH   4   6
ENDBRANCH   1   2
BRANCH   1  21
ATOM     21  S   UNK A   0       2.692  -3.057   2.904  0.00  0.00    -0.114 S 
BRANCH  21  23
ATOM     22  N   UNK A   0       0.051  -2.796   2.390  0.00  0.00    -0.254 N 
ATOM     23  C   UNK A   0       1.026  -2.630   3.481  0.00  0.00    +0.203 C 
ATOM     24  N   UNK A   0       0.598  -3.565   4.550  0.00  0.00    -0.320 NA
ATOM     25  N   UNK A   0      -0.826  -3.784   4.237  0.00  0.00    +0.411 N 
ATOM     26  N   UNK A   0      -0.845  -3.768   2.770  0.00  0.00    -0.265 NA
ATOM     27  H   UNK A   0       1.115  -4.430   4.503  0.00  0.00    +0.106 HD
ATOM     28  H   UNK A   0      -1.136  -4.677   4.590  0.00  0.00    -0.031 HD
ATOM     29  H   UNK A   0      -1.769  -3.562   2.422  0.00  0.00    +0.125 HD
ATOM     30  H   UNK A   0      -1.392  -3.036   4.606  0.00  0.00    -0.031 HD
BRANCH  22  36
ATOM     31  C   UNK A   0      -0.018   1.503   0.010  0.00  0.00    +0.044 C 
ATOM     32  C   UNK A   0       0.002  -0.004   0.002  0.00  0.00    -0.049 A 
ATOM     33  C   UNK A   0       0.006  -0.688  -1.200  0.00  0.00    +0.004 A 
ATOM     34  C   UNK A   0       0.024  -2.071  -1.212  0.00  0.00    +0.005 A 
ATOM     35  C   UNK A   0       0.039  -2.773  -0.023  0.00  0.00    -0.028 A 
ATOM     36  C   UNK A   0       0.036  -2.089   1.186  0.00  0.00    +0.048 A 
ATOM     37  C   UNK A   0       0.023  -0.700   1.194  0.00  0.00    +0.028 A 
ATOM     38  C   UNK A   0       0.059  -4.280  -0.037  0.00  0.00    +0.046 C 
ENDBRANCH  22  36
ENDBRANCH  21  23
ENDBRANCH   1  21
TORSDOF 8
