REMARK  Name = ZINC57415184
REMARK  10 active torsions:
REMARK  status: ('A' for Active; 'I' for Inactive)
REMARK    1  A    between atoms: C_1  and  C_2
REMARK    2  A    between atoms: C_2  and  C_3
REMARK    3  A    between atoms: C_6  and  C_9
REMARK    4  A    between atoms: C_11  and  C_33
REMARK    5  A    between atoms: C_12  and  C_17
REMARK    6  A    between atoms: C_17  and  N_18
REMARK    7  A    between atoms: C_21  and  C_24
REMARK    8  A    between atoms: C_21  and  N_27
REMARK    9  A    between atoms: C_33  and  O_35
REMARK   10  A    between atoms: O_35  and  C_36
REMARK                            x       y       z     vdW  Elec       q    Type
REMARK                         _______ _______ _______ _____ _____    ______ ____
ROOT
ATOM      1  C   UNL     1       1.929  -1.586  -2.089  0.00  0.00    +0.144 C 
ATOM      2  C   UNL     1       2.371  -0.615  -3.165  0.00  0.00    +0.079 C 
ATOM      3  C   UNL     1       3.571  -0.826  -3.748  0.00  0.00    +0.038 C 
ATOM      4  N   UNL     1       4.358  -1.879  -3.379  0.00  0.00    -0.271 N 
ATOM      5  C   UNL     1       4.017  -2.766  -2.435  0.00  0.00    +0.304 C 
ATOM      6  O   UNL     1       4.786  -3.671  -2.175  0.00  0.00    -0.252 OA
ATOM      7  N   UNL     1       2.852  -2.687  -1.765  0.00  0.00    -0.288 N 
ATOM      8  H   UNL     1       5.212  -1.990  -3.825  0.00  0.00    +0.156 HD
ATOM      9  H   UNL     1       2.626  -3.340  -1.084  0.00  0.00    +0.151 HD
ENDROOT
BRANCH   1  13
ATOM     10  C   UNL     1       1.230   0.640   1.490  0.00  0.00    -0.048 A 
ATOM     11  C   UNL     1       0.175   0.329   0.652  0.00  0.00    +0.004 A 
ATOM     12  C   UNL     1       0.401  -0.391  -0.506  0.00  0.00    +0.006 A 
ATOM     13  C   UNL     1       1.682  -0.800  -0.827  0.00  0.00    -0.022 A 
ATOM     14  C   UNL     1       2.737  -0.487   0.010  0.00  0.00    +0.006 A 
ATOM     15  C   UNL     1       2.511   0.236   1.166  0.00  0.00    +0.004 A 
BRANCH  10  17
ATOM     16  C   UNL     1       1.104   2.921   2.454  0.00  0.00    +0.009 C 
ATOM     17  C   UNL     1       0.983   1.425   2.752  0.00  0.00    +0.032 C 
ENDBRANCH  10  17
ENDBRANCH   1  13
BRANCH   2  18
ATOM     18  C   UNL     1       1.554   0.475  -3.546  0.00  0.00    +0.339 C 
ATOM     19  O   UNL     1       1.506   1.472  -2.851  0.00  0.00    -0.245 OA
BRANCH  18  20
ATOM     20  O   UNL     1       0.828   0.409  -4.682  0.00  0.00    -0.465 OA
ATOM     21  C   UNL     1       0.025   1.546  -5.006  0.00  0.00    +0.280 C 
ENDBRANCH  18  20
ENDBRANCH   2  18
BRANCH   3  22
ATOM     22  C   UNL     1       4.048   0.116  -4.823  0.00  0.00    +0.135 C 
BRANCH  22  23
ATOM     23  N   UNL     1       5.247   0.824  -4.356  0.00  0.00    -0.297 NA
ATOM     24  C   UNL     1       4.931   1.708  -3.227  0.00  0.00    +0.084 C 
ATOM     25  C   UNL     1       6.222   2.316  -2.675  0.00  0.00    +0.013 C 
ATOM     26  C   UNL     1       6.923   3.106  -3.784  0.00  0.00    +0.015 C 
ATOM     27  C   UNL     1       7.198   2.174  -4.968  0.00  0.00    +0.013 C 
ATOM     28  C   UNL     1       5.878   1.570  -5.453  0.00  0.00    +0.084 C 
BRANCH  26  29
ATOM     29  N   UNL     1       8.192   3.643  -3.277  0.00  0.00    +0.389 N 
ATOM     30  C   UNL     1       7.925   4.541  -2.147  0.00  0.00    -0.077 C 
ATOM     31  C   UNL     1       9.248   5.041  -1.563  0.00  0.00    -0.019 C 
ATOM     32  C   UNL     1      10.025   5.796  -2.646  0.00  0.00    -0.004 C 
ATOM     33  C   UNL     1      10.233   4.873  -3.850  0.00  0.00    -0.019 C 
ATOM     34  C   UNL     1       8.873   4.380  -4.348  0.00  0.00    -0.077 C 
ATOM     35  H   UNL     1       8.779   2.883  -2.968  0.00  0.00    -0.080 HD
ENDBRANCH  26  29
BRANCH  26  36
ATOM     36  C   UNL     1       6.037   4.240  -4.231  0.00  0.00    +0.200 C 
ATOM     37  O   UNL     1       5.081   4.564  -3.559  0.00  0.00    -0.278 OA
ATOM     38  N   UNL     1       6.307   4.894  -5.378  0.00  0.00    -0.330 N 
ATOM     39  H   UNL     1       7.026   4.588  -5.953  0.00  0.00    +0.145 HD
ATOM     40  H   UNL     1       5.782   5.670  -5.629  0.00  0.00    +0.145 HD
ENDBRANCH  26  36
ENDBRANCH  22  23
ENDBRANCH   3  22
TORSDOF 8
