REMARK  Name = ZINC62728217
REMARK  9 active torsions:
REMARK  status: ('A' for Active; 'I' for Inactive)
REMARK    1  A    between atoms: C_1  and  O_2
REMARK    2  A    between atoms: O_2  and  C_3
REMARK    3  A    between atoms: C_3  and  C_4
REMARK    4  A    between atoms: C_4  and  N_5
REMARK    5  A    between atoms: N_5  and  C_6
REMARK    6  A    between atoms: C_6  and  C_7
REMARK    7  A    between atoms: C_10  and  O_14
REMARK    8  A    between atoms: O_14  and  C_15
REMARK    9  A    between atoms: C_21  and  O_23
REMARK                            x       y       z     vdW  Elec       q    Type
REMARK                         _______ _______ _______ _____ _____    ______ ____
ROOT
ATOM      1  C   UNL     1      -2.496  -3.897  -1.137  0.00  0.00    -0.063 A 
ATOM      2  C   UNL     1      -3.258  -4.041   0.008  0.00  0.00    +0.005 A 
ATOM      3  C   UNL     1      -4.484  -4.674  -0.052  0.00  0.00    +0.047 A 
ATOM      4  C   UNL     1      -4.952  -5.166  -1.262  0.00  0.00    +0.135 A 
ATOM      5  C   UNL     1      -4.185  -5.020  -2.410  0.00  0.00    +0.060 A 
ATOM      6  C   UNL     1      -2.961  -4.381  -2.345  0.00  0.00    +0.020 A 
ATOM      7 BR   UNL     1      -4.818  -5.689  -4.062  0.00  0.00    -0.047 Br
ENDROOT
BRANCH   1   8
ATOM      8  C   UNL     1      -1.158  -3.206  -1.068  0.00  0.00    -0.047 C 
BRANCH   8   9
ATOM      9  N   UNL     1      -1.338  -1.766  -1.295  0.00  0.00    +0.383 N 
ATOM     10  H   UNL     1      -1.949  -1.388  -0.587  0.00  0.00    -0.085 HD
ATOM     11  H   UNL     1      -1.747  -1.618  -2.206  0.00  0.00    -0.085 HD
BRANCH   9  12
ATOM     12  C   UNL     1      -0.035  -1.093  -1.228  0.00  0.00    -0.054 C 
BRANCH  12  13
ATOM     13  C   UNL     1      -0.222   0.407  -1.465  0.00  0.00    +0.140 C 
BRANCH  13  15
ATOM     14  C   UNL     1      -1.226   2.369  -0.523  0.00  0.00    +0.193 C 
ATOM     15  O   UNL     1      -0.992   0.965  -0.398  0.00  0.00    -0.385 OA
ENDBRANCH  13  15
ENDBRANCH  12  13
ENDBRANCH   9  12
ENDBRANCH   8   9
ENDBRANCH   1   8
BRANCH   4  16
ATOM     16  O   UNL     1      -6.157  -5.790  -1.323  0.00  0.00    -0.485 OA
BRANCH  16  17
ATOM     17  C   UNL     1      -6.837  -6.010  -0.086  0.00  0.00    +0.202 C 
ATOM     18  C   UNL     1      -7.635  -4.759   0.288  0.00  0.00    +0.047 C 
ATOM     19  C   UNL     1      -8.363  -4.996   1.613  0.00  0.00    +0.004 C 
ATOM     20  C   UNL     1      -9.316  -6.184   1.466  0.00  0.00    +0.003 C 
ATOM     21  C   UNL     1      -8.519  -7.434   1.092  0.00  0.00    +0.035 C 
ATOM     22  C   UNL     1      -7.791  -7.198  -0.233  0.00  0.00    +0.155 C 
BRANCH  22  23
ATOM     23  O   UNL     1      -7.046  -8.366  -0.582  0.00  0.00    -0.388 OA
ATOM     24  H   UNL     1      -7.587  -9.160  -0.692  0.00  0.00    +0.210 HD
ENDBRANCH  22  23
ENDBRANCH  16  17
ENDBRANCH   4  16
TORSDOF 8
