REMARK  Name = ZINC49581020
REMARK  9 active torsions:
REMARK  status: ('A' for Active; 'I' for Inactive)
REMARK    1  A    between atoms: C_1  and  C_2
REMARK    2  A    between atoms: C_2  and  C_3
REMARK    3  A    between atoms: C_2  and  C_4
REMARK    4  A    between atoms: C_4  and  C_6
REMARK    5  A    between atoms: C_4  and  N_17
REMARK    6  A    between atoms: N_17  and  C_18
REMARK    7  A    between atoms: C_18  and  C_19
REMARK    8  A    between atoms: N_29  and  C_30
REMARK    9  A    between atoms: C_30  and  C_31
REMARK                            x       y       z     vdW  Elec       q    Type
REMARK                         _______ _______ _______ _____ _____    ______ ____
ROOT
ATOM      1  N   UNL     1       2.040   0.202   1.344  0.00  0.00    +0.388 N 
ATOM      2  H   UNL     1       2.552  -0.167   0.556  0.00  0.00    -0.084 HD
ATOM      3  H   UNL     1       2.004   1.208   1.279  0.00  0.00    -0.084 HD
ENDROOT
BRANCH   1   4
ATOM      4  C   UNL     1       0.675  -0.339   1.337  0.00  0.00    -0.038 C 
BRANCH   4   5
ATOM      5  C   UNL     1       0.731  -1.845   1.302  0.00  0.00    -0.057 A 
ATOM      6  C   UNL     1       1.674  -2.481   0.516  0.00  0.00    +0.006 A 
ATOM      7  C   UNL     1       1.732  -3.862   0.479  0.00  0.00    +0.049 A 
ATOM      8  C   UNL     1       0.841  -4.607   1.233  0.00  0.00    +0.162 A 
ATOM      9  C   UNL     1      -0.106  -3.969   2.021  0.00  0.00    +0.162 A 
ATOM     10  C   UNL     1      -0.158  -2.586   2.060  0.00  0.00    +0.051 A 
ATOM     11  O   UNL     1      -0.979  -4.712   2.761  0.00  0.00    -0.488 OA
ATOM     12  C   UNL     1      -1.946  -5.460   2.021  0.00  0.00    +0.232 C 
ATOM     13  C   UNL     1      -1.368  -6.792   1.570  0.00  0.00    +0.082 C 
ATOM     14  C   UNL     1      -0.222  -6.622   0.585  0.00  0.00    +0.232 C 
ATOM     15  O   UNL     1       0.888  -5.971   1.206  0.00  0.00    -0.488 OA
ENDBRANCH   4   5
BRANCH   4  17
ATOM     16  C   UNL     1      -1.465  -0.455   0.053  0.00  0.00    +0.006 C 
ATOM     17  C   UNL     1      -0.071   0.173   0.103  0.00  0.00    -0.027 C 
ATOM     18  C   UNL     1      -0.199   1.695   0.180  0.00  0.00    +0.006 C 
ENDBRANCH   4  17
ENDBRANCH   1   4
BRANCH   1  19
ATOM     19  C   UNL     1       2.714  -0.184   2.591  0.00  0.00    -0.006 C 
BRANCH  19  20
ATOM     20  C   UNL     1       4.128   0.337   2.580  0.00  0.00    +0.096 A 
ATOM     21  N   UNL     1       4.527   1.014   1.546  0.00  0.00    -0.235 NA
ATOM     22  C   UNL     1       5.785   1.514   1.466  0.00  0.00    +0.078 A 
ATOM     23  C   UNL     1       6.215   2.242   0.354  0.00  0.00    +0.028 A 
ATOM     24  C   UNL     1       7.501   2.732   0.316  0.00  0.00    +0.002 A 
ATOM     25  C   UNL     1       8.379   2.511   1.370  0.00  0.00    +0.001 A 
ATOM     26  C   UNL     1       7.978   1.796   2.477  0.00  0.00    +0.015 A 
ATOM     27  C   UNL     1       6.681   1.292   2.536  0.00  0.00    +0.065 A 
ATOM     28  C   UNL     1       6.197   0.522   3.692  0.00  0.00    +0.262 A 
ATOM     29  O   UNL     1       6.917   0.295   4.646  0.00  0.00    -0.267 OA
ATOM     30  N   UNL     1       4.918   0.080   3.655  0.00  0.00    -0.289 N 
BRANCH  30  31
ATOM     31  C   UNL     1       4.382  -0.687   4.782  0.00  0.00    +0.221 C 
BRANCH  31  32
ATOM     32  C   UNL     1       4.638  -2.155   4.558  0.00  0.00    +0.230 C 
ATOM     33  O   UNL     1       5.211  -2.524   3.555  0.00  0.00    -0.274 OA
ATOM     34  N   UNL     1       4.230  -3.057   5.472  0.00  0.00    -0.328 N 
ATOM     35  H   UNL     1       3.771  -2.762   6.274  0.00  0.00    +0.145 HD
ATOM     36  H   UNL     1       4.394  -4.002   5.327  0.00  0.00    +0.145 HD
ENDBRANCH  31  32
ENDBRANCH  30  31
ENDBRANCH  19  20
ENDBRANCH   1  19
TORSDOF 7
