REMARK  Name = ZINC36487028
REMARK  12 active torsions:
REMARK  status: ('A' for Active; 'I' for Inactive)
REMARK    1  A    between atoms: C_1  and  C_2
REMARK    2  A    between atoms: C_2  and  C_3
REMARK    3  A    between atoms: C_3  and  C_4
REMARK    4  A    between atoms: C_4  and  N_5
REMARK    5  A    between atoms: C_6  and  C_8
REMARK    6  A    between atoms: C_8  and  C_10
REMARK    7  A    between atoms: C_8  and  N_19
REMARK    8  A    between atoms: C_11  and  O_18
REMARK    9  A    between atoms: C_13  and  O_17
REMARK   10  A    between atoms: C_15  and  O_16
REMARK   11  A    between atoms: N_19  and  C_20
REMARK   12  A    between atoms: C_27  and  C_29
REMARK                            x       y       z     vdW  Elec       q    Type
REMARK                         _______ _______ _______ _____ _____    ______ ____
ROOT
ATOM      1  C   UNL     1      -4.095  -4.628  -1.976  0.00  0.00    +0.204 C 
ENDROOT
BRANCH   1   2
ATOM      2  C   UNL     1      -5.461  -4.928  -2.536  0.00  0.00    +0.065 A 
ATOM      3  C   UNL     1      -5.899  -6.241  -2.627  0.00  0.00    +0.129 A 
ATOM      4  C   UNL     1      -7.157  -6.518  -3.143  0.00  0.00    +0.091 A 
ATOM      5  C   UNL     1      -7.976  -5.482  -3.567  0.00  0.00    +0.124 A 
ATOM      6  C   UNL     1      -7.538  -4.170  -3.475  0.00  0.00    +0.091 A 
ATOM      7  C   UNL     1      -6.282  -3.892  -2.955  0.00  0.00    +0.129 A 
BRANCH   7   8
ATOM      8  O   UNL     1      -5.855  -2.606  -2.861  0.00  0.00    -0.506 OA
ATOM      9  H   UNL     1      -5.386  -2.288  -3.645  0.00  0.00    +0.292 HD
ENDBRANCH   7   8
BRANCH   5  10
ATOM     10  O   UNL     1      -9.207  -5.753  -4.073  0.00  0.00    -0.507 OA
ATOM     11  H   UNL     1      -9.910  -5.774  -3.408  0.00  0.00    +0.292 HD
ENDBRANCH   5  10
BRANCH   3  12
ATOM     12  O   UNL     1      -5.097  -7.256  -2.212  0.00  0.00    -0.506 OA
ATOM     13  H   UNL     1      -5.324  -7.604  -1.339  0.00  0.00    +0.292 HD
ENDBRANCH   3  12
ENDBRANCH   1   2
BRANCH   1  15
ATOM     14  N   UNL     1      -2.935  -3.456  -3.820  0.00  0.00    -0.313 N 
ATOM     15  C   UNL     1      -3.090  -4.583  -3.099  0.00  0.00    +0.239 C 
ATOM     16  O   UNL     1      -2.421  -5.562  -3.352  0.00  0.00    -0.273 OA
ATOM     17  H   UNL     1      -3.471  -2.673  -3.617  0.00  0.00    +0.149 HD
BRANCH  14  18
ATOM     18  C   UNL     1      -1.959  -3.413  -4.912  0.00  0.00    +0.104 C 
BRANCH  18  19
ATOM     19  C   UNL     1      -1.983  -2.029  -5.563  0.00  0.00    +0.018 C 
BRANCH  19  21
ATOM     20  C   UNL     1      -0.987  -0.600  -7.354  0.00  0.00    +0.004 C 
ATOM     21  C   UNL     1      -0.963  -1.984  -6.703  0.00  0.00    -0.002 C 
ENDBRANCH  19  21
ENDBRANCH  18  19
ENDBRANCH  14  18
ENDBRANCH   1  15
BRANCH   1  22
ATOM     22  N   UNL     1      -3.716  -5.674  -1.023  0.00  0.00    -0.251 N 
ATOM     23  C   UNL     1      -4.566  -6.027  -0.038  0.00  0.00    +0.252 C 
ATOM     24  O   UNL     1      -4.199  -6.787   0.837  0.00  0.00    -0.270 OA
BRANCH  22  25
ATOM     25  C   UNL     1      -2.474  -6.306  -1.135  0.00  0.00    +0.039 A 
ATOM     26  C   UNL     1      -1.340  -5.713  -0.594  0.00  0.00    +0.023 A 
ATOM     27  C   UNL     1      -0.115  -6.340  -0.705  0.00  0.00    +0.003 A 
ATOM     28  C   UNL     1      -0.014  -7.556  -1.356  0.00  0.00    +0.020 A 
ATOM     29  C   UNL     1      -1.141  -8.149  -1.897  0.00  0.00    +0.043 A 
ATOM     30  C   UNL     1      -2.372  -7.529  -1.783  0.00  0.00    +0.043 A 
ATOM     31 CL   UNL     1      -1.011  -9.675  -2.713  0.00  0.00    -0.083 Cl
ENDBRANCH  22  25
BRANCH  23  32
ATOM     32  C   UNL     1      -5.943  -5.492  -0.023  0.00  0.00    +0.037 A 
ATOM     33  C   UNL     1      -6.229  -4.275  -0.644  0.00  0.00    +0.013 A 
ATOM     34  C   UNL     1      -7.517  -3.781  -0.626  0.00  0.00    +0.001 A 
ATOM     35  C   UNL     1      -8.524  -4.489   0.006  0.00  0.00    +0.000 A 
ATOM     36  C   UNL     1      -8.248  -5.696   0.624  0.00  0.00    +0.001 A 
ATOM     37  C   UNL     1      -6.965  -6.204   0.608  0.00  0.00    +0.013 A 
ENDBRANCH  23  32
ENDBRANCH   1  22
TORSDOF 11
