REMARK  Name = ZINC43262743
REMARK  10 active torsions:
REMARK  status: ('A' for Active; 'I' for Inactive)
REMARK    1  A    between atoms: C_1  and  C_2
REMARK    2  A    between atoms: C_2  and  C_3
REMARK    3  A    between atoms: C_3  and  C_5
REMARK    4  A    between atoms: C_3  and  N_20
REMARK    5  A    between atoms: C_5  and  C_7
REMARK    6  A    between atoms: C_5  and  N_13
REMARK    7  A    between atoms: N_13  and  C_14
REMARK    8  A    between atoms: N_13  and  C_17
REMARK    9  A    between atoms: C_14  and  C_15
REMARK   10  A    between atoms: C_15  and  O_16
REMARK                            x       y       z     vdW  Elec       q    Type
REMARK                         _______ _______ _______ _____ _____    ______ ____
ROOT
ATOM      1  C   UNL     1       1.145  -1.946   1.538  0.00  0.00    +0.079 C 
ENDROOT
BRANCH   1   2
ATOM      2  C   UNL     1       2.242  -1.813   0.514  0.00  0.00    +0.006 A 
ATOM      3  C   UNL     1       2.152  -1.820  -0.839  0.00  0.00    +0.014 A 
ATOM      4  C   UNL     1       3.305  -1.682  -1.588  0.00  0.00    +0.023 A 
ATOM      5  C   UNL     1       4.493  -1.545  -0.948  0.00  0.00    +0.055 A 
ATOM      6  S   UNL     1       3.997  -1.601   0.766  0.00  0.00    -0.085 S 
ATOM      7 BR   UNL     1       6.225  -1.340  -1.680  0.00  0.00    -0.043 Br
ENDBRANCH   1   2
BRANCH   1   8
ATOM      8  C   UNL     1       0.772  -0.559   2.068  0.00  0.00    -0.053 C 
BRANCH   8   9
ATOM      9  N   UNL     1      -0.195  -0.698   3.165  0.00  0.00    +0.381 N 
ATOM     10  H   UNL     1      -0.960  -1.284   2.867  0.00  0.00    -0.090 HD
ATOM     11  H   UNL     1       0.259  -1.118   3.962  0.00  0.00    -0.090 HD
ATOM     12  H   UNL     1      -0.548   0.212   3.419  0.00  0.00    -0.090 HD
ENDBRANCH   8   9
BRANCH   8  14
ATOM     13  C   UNL     1      -0.108   1.692   1.435  0.00  0.00    +0.002 C 
ATOM     14  C   UNL     1       0.150   0.267   0.941  0.00  0.00    -0.018 C 
ENDBRANCH   8  14
ENDBRANCH   1   8
BRANCH   1  15
ATOM     15  N   UNL     1       1.612  -2.785   2.650  0.00  0.00    -0.291 NA
BRANCH  15  16
ATOM     16  C   UNL     1       2.476  -2.022   3.559  0.00  0.00    +0.057 C 
ATOM     17  C   UNL     1       3.965  -2.376   3.583  0.00  0.00    +0.020 C 
ATOM     18  C   UNL     1       3.068  -2.763   4.760  0.00  0.00    +0.020 C 
ENDBRANCH  15  16
BRANCH  15  19
ATOM     19  C   UNL     1       0.479  -3.378   3.373  0.00  0.00    +0.113 C 
BRANCH  19  20
ATOM     20  C   UNL     1      -0.090  -4.544   2.563  0.00  0.00    +0.171 C 
BRANCH  20  21
ATOM     21  O   UNL     1       0.895  -5.574   2.454  0.00  0.00    -0.394 OA
ATOM     22  H   UNL     1       0.631  -6.312   1.889  0.00  0.00    +0.209 HD
ENDBRANCH  20  21
ENDBRANCH  19  20
ENDBRANCH  15  19
ENDBRANCH   1  15
TORSDOF 9
