REMARK  Name = ZINC67332078
REMARK  5 active torsions:
REMARK  status: ('A' for Active; 'I' for Inactive)
REMARK    1  A    between atoms: C_4  and  C_7
REMARK    2  A    between atoms: C_7  and  N_8
REMARK    3  A    between atoms: C_12  and  C_14
REMARK    4  A    between atoms: C_14  and  N_15
REMARK    5  A    between atoms: C_16  and  C_18
REMARK                            x       y       z     vdW  Elec       q    Type
REMARK                         _______ _______ _______ _____ _____    ______ ____
ROOT
ATOM      1  N   UNL     1       4.795  -0.289   3.681  0.00  0.00    -0.317 N 
ATOM      2  C   UNL     1       5.194   0.885   4.208  0.00  0.00    +0.216 C 
ATOM      3  O   UNL     1       4.976   1.131   5.376  0.00  0.00    -0.276 OA
ATOM      4  H   UNL     1       4.969  -0.486   2.747  0.00  0.00    +0.149 HD
ENDROOT
BRANCH   2   5
ATOM      5  C   UNL     1       5.910   1.893   3.347  0.00  0.00    +0.075 C 
ATOM      6  C   UNL     1       7.200   1.275   2.804  0.00  0.00    +0.015 C 
ATOM      7  C   UNL     1       7.920   2.295   1.919  0.00  0.00    +0.036 C 
ATOM      8  C   UNL     1       8.240   3.543   2.735  0.00  0.00    +0.112 C 
ATOM      9  C   UNL     1       6.966   4.157   3.304  0.00  0.00    +0.036 C 
ATOM     10  C   UNL     1       6.249   3.129   4.183  0.00  0.00    +0.015 C 
ATOM     11  C   UNL     1       9.210   3.214   3.846  0.00  0.00    +0.244 C 
ATOM     12  O   UNL     1       9.039   2.442   4.765  0.00  0.00    -0.273 OA
ATOM     13  N   UNL     1      10.307   3.960   3.599  0.00  0.00    -0.238 N 
ATOM     14  C   UNL     1      10.159   4.704   2.497  0.00  0.00    +0.307 C 
ATOM     15  O   UNL     1      11.012   5.458   2.071  0.00  0.00    -0.252 OA
ATOM     16  N   UNL     1       8.960   4.524   1.912  0.00  0.00    -0.285 N 
ATOM     17  H   UNL     1      11.104   3.957   4.153  0.00  0.00    +0.159 HD
ATOM     18  H   UNL     1       8.635   4.957   1.107  0.00  0.00    +0.151 HD
ENDBRANCH   2   5
BRANCH   1  19
ATOM     19  C   UNL     1       4.099  -1.269   4.518  0.00  0.00    +0.089 C 
BRANCH  19  24
ATOM     20  N   UNL     1       2.515  -2.006   2.787  0.00  0.00    +0.383 N 
ATOM     21  C   UNL     1       1.318  -2.806   3.125  0.00  0.00    -0.078 C 
ATOM     22  C   UNL     1       1.877  -4.109   3.749  0.00  0.00    -0.020 C 
ATOM     23  C   UNL     1       3.096  -3.576   4.547  0.00  0.00    -0.016 C 
ATOM     24  C   UNL     1       3.628  -2.439   3.651  0.00  0.00    -0.051 C 
ATOM     25  H   UNL     1       2.758  -2.155   1.819  0.00  0.00    -0.081 HD
BRANCH  20  26
ATOM     26  C   UNL     1       2.238  -0.581   3.014  0.00  0.00    -0.075 C 
BRANCH  26  30
ATOM     27  C   UNL     1      -1.210   1.421   1.332  0.00  0.00    +0.000 C 
ATOM     28  C   UNL     1       0.180   1.926   0.940  0.00  0.00    +0.000 C 
ATOM     29  C   UNL     1       1.207   1.437   1.962  0.00  0.00    +0.002 C 
ATOM     30  C   UNL     1       1.210  -0.092   1.991  0.00  0.00    -0.028 C 
ATOM     31  C   UNL     1      -0.180  -0.597   2.384  0.00  0.00    +0.002 C 
ATOM     32  C   UNL     1      -1.208  -0.108   1.361  0.00  0.00    +0.000 C 
ENDBRANCH  26  30
ENDBRANCH  20  26
ENDBRANCH  19  24
ENDBRANCH   1  19
TORSDOF 5
