REMARK  Name = ZINC39337521
REMARK  4 active torsions:
REMARK  status: ('A' for Active; 'I' for Inactive)
REMARK    1  A    between atoms: C_4  and  C_8
REMARK    2  A    between atoms: C_11  and  C_13
REMARK    3  A    between atoms: C_13  and  N_14
REMARK    4  A    between atoms: N_14  and  C_15
REMARK                            x       y       z     vdW  Elec       q    Type
REMARK                         _______ _______ _______ _____ _____    ______ ____
ROOT
ATOM      1  C   UNL     1       3.696  -0.685  -0.037  0.00  0.00    +0.137 A 
ATOM      2  C   UNL     1       4.056  -1.699   0.794  0.00  0.00    +0.050 A 
ATOM      3  C   UNL     1       5.361  -2.083   0.425  0.00  0.00    +0.046 A 
ATOM      4  C   UNL     1       5.729  -1.292  -0.602  0.00  0.00    +0.120 A 
ATOM      5  O   UNL     1       4.719  -0.452  -0.882  0.00  0.00    -0.458 OA
ENDROOT
BRANCH   1   9
ATOM      6  C   UNL     1      -0.017   1.380   0.010  0.00  0.00    +0.021 A 
ATOM      7  C   UNL     1       1.168   2.094   0.002  0.00  0.00    +0.022 A 
ATOM      8  C   UNL     1       2.378   1.430  -0.013  0.00  0.00    +0.052 A 
ATOM      9  C   UNL     1       2.404   0.033  -0.021  0.00  0.00    +0.037 A 
ATOM     10  C   UNL     1       1.206  -0.681  -0.013  0.00  0.00    +0.033 A 
ATOM     11  C   UNL     1       0.002  -0.004   0.002  0.00  0.00    +0.042 A 
ATOM     12 CL   UNL     1      -1.490  -0.890   0.012  0.00  0.00    -0.084 Cl
ATOM     13 CL   UNL     1       3.864   2.328  -0.023  0.00  0.00    -0.083 Cl
ENDBRANCH   1   9
BRANCH   4  14
ATOM     14  C   UNL     1       7.052  -1.345  -1.321  0.00  0.00    +0.158 C 
BRANCH  14  15
ATOM     15  N   UNL     1       6.960  -2.281  -2.449  0.00  0.00    -0.273 NA
ATOM     16  H   UNL     1       6.665  -3.194  -2.138  0.00  0.00    +0.126 HD
BRANCH  15  17
ATOM     17  C   UNL     1       8.235  -2.358  -3.175  0.00  0.00    +0.284 C 
ATOM     18  N   UNL     1       8.237  -3.510  -4.114  0.00  0.00    -0.207 NA
ATOM     19  N   UNL     1       8.946  -2.935  -5.265  0.00  0.00    -0.271 NA
ATOM     20  N   UNL     1       8.777  -1.582  -5.183  0.00  0.00    -0.089 NA
ATOM     21  N   UNL     1       8.397  -1.199  -4.069  0.00  0.00    -0.135 NA
ATOM     22  H   UNL     1       8.748  -4.291  -3.729  0.00  0.00    +0.147 HD
ATOM     23  H   UNL     1       9.927  -3.164  -5.217  0.00  0.00    +0.163 HD
ATOM     24  H   UNL     1       8.550  -3.282  -6.125  0.00  0.00    +0.163 HD
ENDBRANCH  15  17
ENDBRANCH  14  15
ENDBRANCH   4  14
TORSDOF 4
