REMARK  Name = ZINC47617299
REMARK  10 active torsions:
REMARK  status: ('A' for Active; 'I' for Inactive)
REMARK    1  A    between atoms: C_1  and  C_2
REMARK    2  A    between atoms: N_7  and  C_8
REMARK    3  A    between atoms: C_8  and  C_9
REMARK    4  A    between atoms: C_8  and  C_10
REMARK    5  A    between atoms: C_10  and  N_11
REMARK    6  A    between atoms: N_14  and  C_15
REMARK    7  A    between atoms: C_15  and  C_16
REMARK    8  A    between atoms: C_16  and  C_17
REMARK    9  A    between atoms: C_20  and  S_23
REMARK   10  A    between atoms: S_23  and  N_26
REMARK                            x       y       z     vdW  Elec       q    Type
REMARK                         _______ _______ _______ _____ _____    ______ ____
ROOT
ATOM      1  N   UNL     1      -0.780   1.937   0.765  0.00  0.00    -0.301 N 
ATOM      2  C   UNL     1      -1.053   3.210   0.418  0.00  0.00    +0.300 C 
ATOM      3  O   UNL     1      -0.598   4.129   1.071  0.00  0.00    -0.253 OA
ATOM      4  N   UNL     1      -1.831   3.465  -0.652  0.00  0.00    -0.299 N 
ATOM      5  H   UNL     1      -1.083   1.206   0.204  0.00  0.00    +0.150 HD
ATOM      6  H   UNL     1      -2.254   2.734  -1.130  0.00  0.00    +0.150 HD
ENDROOT
BRANCH   1   7
ATOM      7  C   UNL     1      -0.026   1.656   1.989  0.00  0.00    +0.090 C 
BRANCH   7   8
ATOM      8  C   UNL     1       0.044   0.144   2.210  0.00  0.00    -0.054 C 
ATOM      9  C   UNL     1       0.909  -0.153   3.437  0.00  0.00    -0.012 C 
BRANCH   8  16
ATOM     10  C   UNL     1      -0.825  -2.416   1.452  0.00  0.00    -0.013 C 
ATOM     11  C   UNL     1       0.612  -1.954   1.201  0.00  0.00    -0.071 C 
ATOM     12  C   UNL     1       1.151  -2.630  -0.062  0.00  0.00    -0.016 C 
ATOM     13  C   UNL     1       2.589  -2.165  -0.309  0.00  0.00    -0.003 C 
ATOM     14  C   UNL     1       2.610  -0.638  -0.414  0.00  0.00    -0.019 C 
ATOM     15  C   UNL     1       2.017  -0.036   0.862  0.00  0.00    -0.078 C 
ATOM     16  N   UNL     1       0.634  -0.497   1.028  0.00  0.00    +0.384 N 
ATOM     17  H   UNL     1       0.097  -0.248   0.210  0.00  0.00    -0.081 HD
ENDBRANCH   8  16
ENDBRANCH   7   8
ENDBRANCH   1   7
BRANCH   4  18
ATOM     18  C   UNL     1      -2.039   4.846  -1.094  0.00  0.00    +0.110 C 
BRANCH  18  19
ATOM     19  C   UNL     1      -2.955   4.857  -2.320  0.00  0.00    +0.054 C 
BRANCH  19  20
ATOM     20  C   UNL     1      -3.170   6.278  -2.774  0.00  0.00    -0.046 A 
ATOM     21  C   UNL     1      -4.220   7.016  -2.263  0.00  0.00    +0.005 A 
ATOM     22  C   UNL     1      -4.417   8.319  -2.680  0.00  0.00    +0.029 A 
ATOM     23  C   UNL     1      -3.562   8.884  -3.608  0.00  0.00    +0.105 A 
ATOM     24  C   UNL     1      -2.510   8.146  -4.119  0.00  0.00    +0.029 A 
ATOM     25  C   UNL     1      -2.312   6.844  -3.698  0.00  0.00    +0.005 A 
BRANCH  23  26
ATOM     26  S   UNL     1      -3.813  10.545  -4.141  0.00  0.00    +0.056 S 
ATOM     27  O   UNL     1      -3.203  10.658  -5.419  0.00  0.00    -0.153 OA
ATOM     28  O   UNL     1      -5.186  10.838  -3.923  0.00  0.00    -0.153 OA
BRANCH  26  29
ATOM     29  N   UNL     1      -2.952  11.523  -3.118  0.00  0.00    -0.204 NA
ATOM     30  H   UNL     1      -2.440  11.133  -2.392  0.00  0.00    +0.144 HD
ATOM     31  H   UNL     1      -2.961  12.484  -3.244  0.00  0.00    +0.144 HD
ENDBRANCH  26  29
ENDBRANCH  23  26
ENDBRANCH  19  20
ENDBRANCH  18  19
ENDBRANCH   4  18
TORSDOF 8
