REMARK  Name = ZINC54019889
REMARK  9 active torsions:
REMARK  status: ('A' for Active; 'I' for Inactive)
REMARK    1  A    between atoms: C_1  and  N_2
REMARK    2  A    between atoms: N_2  and  C_3
REMARK    3  A    between atoms: N_2  and  C_4
REMARK    4  A    between atoms: C_4  and  C_5
REMARK    5  A    between atoms: N_8  and  C_11
REMARK    6  A    between atoms: C_11  and  C_12
REMARK    7  A    between atoms: C_12  and  C_13
REMARK    8  A    between atoms: C_13  and  C_15
REMARK    9  A    between atoms: C_13  and  N_22
REMARK                            x       y       z     vdW  Elec       q    Type
REMARK                         _______ _______ _______ _____ _____    ______ ____
ROOT
ATOM      1  C   UNL     1      -2.316  -5.847  -1.770  0.00  0.00    -0.077 C 
ENDROOT
BRANCH   1   5
ATOM      2  C   UNL     1      -1.358  -2.037  -0.122  0.00  0.00    -0.031 C 
ATOM      3  C   UNL     1      -0.804  -2.423  -1.496  0.00  0.00    -0.017 C 
ATOM      4  C   UNL     1      -0.863  -3.944  -1.654  0.00  0.00    -0.079 C 
ATOM      5  N   UNL     1      -2.255  -4.398  -1.541  0.00  0.00    +0.380 N 
ATOM      6  C   UNL     1      -2.770  -4.094  -0.200  0.00  0.00    -0.079 C 
ATOM      7  C   UNL     1      -2.784  -2.579   0.014  0.00  0.00    -0.017 C 
ATOM      8  H   UNL     1      -2.819  -3.926  -2.231  0.00  0.00    -0.082 HD
BRANCH   2   9
ATOM      9  C   UNL     1      -1.376  -0.512   0.012  0.00  0.00    -0.076 C 
BRANCH   9  11
ATOM     10  C   UNL     1      -0.018   1.465   0.010  0.00  0.00    -0.097 C 
ATOM     11  N   UNL     1       0.002  -0.004   0.002  0.00  0.00    +0.376 N 
ATOM     12  C   UNL     1       0.713  -0.491   1.192  0.00  0.00    -0.097 C 
ATOM     13  H   UNL     1       0.474  -0.330  -0.828  0.00  0.00    -0.083 HD
ENDBRANCH   9  11
ENDBRANCH   2   9
ENDBRANCH   1   5
BRANCH   1  14
ATOM     14  C   UNL     1      -3.777  -6.302  -1.776  0.00  0.00    +0.005 C 
BRANCH  14  15
ATOM     15  C   UNL     1      -3.841  -7.811  -2.015  0.00  0.00    +0.080 C 
BRANCH  15  16
ATOM     16  C   UNL     1      -5.269  -8.278  -1.899  0.00  0.00    -0.017 A 
ATOM     17  C   UNL     1      -6.017  -8.504  -3.039  0.00  0.00    +0.006 A 
ATOM     18  C   UNL     1      -7.327  -8.933  -2.933  0.00  0.00    +0.000 A 
ATOM     19  C   UNL     1      -7.889  -9.137  -1.686  0.00  0.00    +0.001 A 
ATOM     20  C   UNL     1      -7.141  -8.912  -0.546  0.00  0.00    +0.015 A 
ATOM     21  C   UNL     1      -5.829  -8.488  -0.652  0.00  0.00    +0.023 A 
ATOM     22 BR   UNL     1      -4.803  -8.187   0.908  0.00  0.00    -0.050 Br
ENDBRANCH  15  16
BRANCH  15  23
ATOM     23  N   UNL     1      -3.334  -8.116  -3.360  0.00  0.00    -0.324 NA
ATOM     24  H   UNL     1      -3.305  -9.112  -3.519  0.00  0.00    +0.119 HD
ATOM     25  H   UNL     1      -3.884  -7.653  -4.068  0.00  0.00    +0.119 HD
ENDBRANCH  15  23
ENDBRANCH  14  15
ENDBRANCH   1  14
TORSDOF 7
