REMARK  Name = ZINC58293772
REMARK  6 active torsions:
REMARK  status: ('A' for Active; 'I' for Inactive)
REMARK    1  A    between atoms: C_1  and  C_2
REMARK    2  A    between atoms: C_7  and  C_12
REMARK    3  A    between atoms: N_14  and  C_15
REMARK    4  A    between atoms: C_18  and  N_21
REMARK    5  A    between atoms: C_22  and  N_28
REMARK    6  A    between atoms: C_23  and  C_26
REMARK                            x       y       z     vdW  Elec       q    Type
REMARK                         _______ _______ _______ _____ _____    ______ ____
ROOT
ATOM      1  C   UNL     1       0.010  -6.766   4.398  0.00  0.00    +0.034 A 
ATOM      2  C   UNL     1      -0.685  -6.825   5.599  0.00  0.00    +0.025 A 
ATOM      3  C   UNL     1      -0.770  -8.017   6.289  0.00  0.00    +0.029 A 
ATOM      4  C   UNL     1      -0.160  -9.157   5.784  0.00  0.00    +0.068 A 
ATOM      5  C   UNL     1       0.535  -9.098   4.583  0.00  0.00    +0.029 A 
ATOM      6  C   UNL     1       0.615  -7.908   3.889  0.00  0.00    +0.025 A 
ENDROOT
BRANCH   4   7
ATOM      7  N   UNL     1      -0.245 -10.368   6.486  0.00  0.00    -0.218 N 
ATOM      8  C   UNL     1      -0.328 -11.599   5.932  0.00  0.00    +0.137 A 
ATOM      9  C   UNL     1      -0.394 -12.515   6.979  0.00  0.00    +0.111 A 
ATOM     10  C   UNL     1      -0.347 -11.773   8.182  0.00  0.00    +0.155 A 
ATOM     11  N   UNL     1      -0.254 -10.508   7.878  0.00  0.00    -0.172 NA
BRANCH   8  12
ATOM     12  N   UNL     1      -0.344 -11.892   4.582  0.00  0.00    -0.342 N 
ATOM     13  H   UNL     1      -0.293 -11.177   3.929  0.00  0.00    +0.144 HD
ATOM     14  H   UNL     1      -0.406 -12.814   4.287  0.00  0.00    +0.144 HD
ENDBRANCH   8  12
BRANCH   9  15
ATOM     15  C   UNL     1      -0.491 -13.939   6.860  0.00  0.00    +0.104 C 
ATOM     16  N   UNL     1      -0.568 -15.068   6.765  0.00  0.00    -0.191 NA
ENDBRANCH   9  15
ENDBRANCH   4   7
BRANCH   1  19
ATOM     17  C   UNL     1       0.088  -5.557   2.350  0.00  0.00    +0.265 C 
ATOM     18  O   UNL     1       0.090  -6.611   1.742  0.00  0.00    -0.268 OA
ATOM     19  N   UNL     1       0.096  -5.557   3.698  0.00  0.00    -0.280 N 
ATOM     20  H   UNL     1       0.162  -4.720   4.183  0.00  0.00    +0.155 HD
BRANCH  17  27
ATOM     21  C   UNL     1       0.030   1.504   0.011  0.00  0.00    +0.044 C 
ATOM     22  C   UNL     1       0.039  -0.003   0.003  0.00  0.00    -0.048 A 
ATOM     23  C   UNL     1       0.035  -0.684  -1.208  0.00  0.00    +0.004 A 
ATOM     24  C   UNL     1       0.043  -2.048  -1.238  0.00  0.00    +0.010 A 
ATOM     25  C   UNL     1       0.056  -2.772  -0.039  0.00  0.00    +0.000 A 
ATOM     26  C   UNL     1       0.066  -4.155   0.263  0.00  0.00    +0.040 A 
ATOM     27  C   UNL     1       0.076  -4.284   1.615  0.00  0.00    +0.103 A 
ATOM     28  N   UNL     1       0.072  -3.028   2.190  0.00  0.00    -0.351 N 
ATOM     29  H   UNL     1       0.077  -2.842   3.142  0.00  0.00    +0.166 HD
ATOM     30  C   UNL     1       0.059  -2.084   1.190  0.00  0.00    +0.047 A 
ATOM     31  C   UNL     1       0.056  -0.691   1.195  0.00  0.00    +0.029 A 
ENDBRANCH  17  27
ENDBRANCH   1  19
TORSDOF 5
