REMARK  Name = ZINC39655613
REMARK  6 active torsions:
REMARK  status: ('A' for Active; 'I' for Inactive)
REMARK    1  A    between atoms: C_4  and  N_7
REMARK    2  A    between atoms: N_7  and  C_8
REMARK    3  A    between atoms: C_8  and  C_9
REMARK    4  A    between atoms: C_9  and  N_10
REMARK    5  A    between atoms: C_11  and  C_13
REMARK    6  A    between atoms: C_24  and  C_26
REMARK                            x       y       z     vdW  Elec       q    Type
REMARK                         _______ _______ _______ _____ _____    ______ ____
ROOT
ATOM      1  C   UNL     1       5.884  -6.841  -0.719  0.00  0.00    +0.100 C 
ATOM      2  C   UNL     1       5.694  -7.006   0.806  0.00  0.00    +0.121 C 
ATOM      3  N   UNL     1       6.536  -8.171   1.165  0.00  0.00    -0.300 N 
ATOM      4  C   UNL     1       7.757  -8.012   0.339  0.00  0.00    +0.115 C 
ATOM      5  C   UNL     1       7.240  -7.502  -1.021  0.00  0.00    -0.004 C 
ATOM      6  C   UNL     1       8.209  -6.478  -1.603  0.00  0.00    -0.010 C 
ATOM      7  C   UNL     1       9.530  -7.172  -1.950  0.00  0.00    -0.082 C 
ATOM      8  N   UNL     1       9.281  -8.245  -2.919  0.00  0.00    +0.379 N 
ATOM      9  C   UNL     1       8.422  -9.273  -2.318  0.00  0.00    -0.082 C 
ATOM     10  C   UNL     1       7.055  -8.669  -1.987  0.00  0.00    -0.010 C 
ATOM     11  C   UNL     1       6.255  -9.154   2.043  0.00  0.00    +0.219 C 
ATOM     12  O   UNL     1       5.171  -9.189   2.588  0.00  0.00    -0.275 OA
ATOM     13  H   UNL     1       8.825  -7.862  -3.734  0.00  0.00    -0.086 HD
ATOM     14  H   UNL     1      10.159  -8.661  -3.192  0.00  0.00    -0.086 HD
ENDROOT
BRANCH  11  15
ATOM     15  C   UNL     1       7.286 -10.210   2.348  0.00  0.00    +0.079 C 
ATOM     16  C   UNL     1       6.588 -11.491   2.821  0.00  0.00    +0.017 C 
ATOM     17  C   UNL     1       7.639 -12.595   2.952  0.00  0.00    +0.027 C 
ATOM     18  C   UNL     1       8.815 -12.099   3.742  0.00  0.00    -0.031 C 
ATOM     19  C   UNL     1       9.064 -10.848   3.962  0.00  0.00    -0.030 C 
ATOM     20  C   UNL     1       8.211  -9.717   3.463  0.00  0.00    +0.039 C 
ENDBRANCH  11  15
BRANCH   1  22
ATOM     21  N   UNL     1       5.521  -4.986  -2.314  0.00  0.00    -0.314 N 
ATOM     22  C   UNL     1       5.919  -5.381  -1.088  0.00  0.00    +0.218 C 
ATOM     23  O   UNL     1       6.305  -4.560  -0.283  0.00  0.00    -0.275 OA
ATOM     24  H   UNL     1       5.212  -5.642  -2.958  0.00  0.00    +0.149 HD
BRANCH  21  25
ATOM     25  C   UNL     1       5.554  -3.566  -2.674  0.00  0.00    +0.123 C 
BRANCH  25  26
ATOM     26  C   UNL     1       5.055  -3.392  -4.109  0.00  0.00    +0.120 C 
BRANCH  26  27
ATOM     27  N   UNL     1       5.088  -1.972  -4.468  0.00  0.00    -0.342 N 
ATOM     28  H   UNL     1       5.397  -1.316  -3.824  0.00  0.00    +0.146 HD
BRANCH  27  32
ATOM     29  C   UNL     1       3.859  -0.753  -8.255  0.00  0.00    +0.000 A 
ATOM     30  C   UNL     1       4.298   0.183  -7.338  0.00  0.00    +0.002 A 
ATOM     31  C   UNL     1       4.707  -0.217  -6.081  0.00  0.00    +0.023 A 
ATOM     32  C   UNL     1       4.676  -1.563  -5.739  0.00  0.00    +0.027 A 
ATOM     33  C   UNL     1       4.233  -2.502  -6.662  0.00  0.00    +0.023 A 
ATOM     34  C   UNL     1       3.826  -2.094  -7.918  0.00  0.00    +0.002 A 
ENDBRANCH  27  32
ENDBRANCH  26  27
ENDBRANCH  25  26
ENDBRANCH  21  25
ENDBRANCH   1  22
TORSDOF 6
