REMARK  Name = ZINC59170355
REMARK  4 active torsions:
REMARK  status: ('A' for Active; 'I' for Inactive)
REMARK    1  A    between atoms: C_3  and  S_23
REMARK    2  A    between atoms: C_6  and  N_7
REMARK    3  A    between atoms: C_9  and  C_20
REMARK    4  A    between atoms: S_23  and  N_26
REMARK                            x       y       z     vdW  Elec       q    Type
REMARK                         _______ _______ _______ _____ _____    ______ ____
ROOT
ATOM      1  N   UNL     1      -1.177  -0.701   0.007  0.00  0.00    -0.325 N 
ATOM      2  C   UNL     1      -1.332  -1.727  -0.801  0.00  0.00    +0.212 A 
ATOM      3  C   UNL     1      -2.544  -2.568  -0.739  0.00  0.00    +0.097 A 
ATOM      4  C   UNL     1      -2.919  -3.225  -1.904  0.00  0.00    +0.030 A 
ATOM      5  C   UNL     1      -2.080  -3.026  -3.088  0.00  0.00    +0.021 A 
ATOM      6  C   UNL     1      -2.524  -3.425  -4.355  0.00  0.00    +0.031 A 
ATOM      7  C   UNL     1      -1.718  -3.223  -5.453  0.00  0.00    +0.043 A 
ATOM      8  C   UNL     1      -0.472  -2.626  -5.310  0.00  0.00    +0.043 A 
ATOM      9  C   UNL     1      -0.021  -2.228  -4.067  0.00  0.00    +0.085 A 
ATOM     10  C   UNL     1      -0.816  -2.424  -2.946  0.00  0.00    +0.156 A 
ATOM     11  O   UNL     1      -0.386  -2.042  -1.722  0.00  0.00    -0.437 OA
ATOM     12 CL   UNL     1       1.538  -1.482  -3.907  0.00  0.00    -0.080 Cl
ATOM     13 CL   UNL     1      -2.263  -3.717  -7.026  0.00  0.00    -0.083 Cl
ATOM     14  H   UNL     1      -1.898  -0.437   0.599  0.00  0.00    +0.169 HD
ENDROOT
BRANCH   1  20
ATOM     15  C   UNL     1      -0.005   1.389   0.017  0.00  0.00    +0.027 A 
ATOM     16  C   UNL     1       1.188   2.081   0.024  0.00  0.00    +0.030 A 
ATOM     17  C   UNL     1       2.390   1.395   0.027  0.00  0.00    +0.105 A 
ATOM     18  C   UNL     1       2.405   0.011   0.024  0.00  0.00    +0.030 A 
ATOM     19  C   UNL     1       1.220  -0.694   0.017  0.00  0.00    +0.027 A 
ATOM     20  C   UNL     1       0.002  -0.009   0.014  0.00  0.00    +0.042 A 
BRANCH  17  21
ATOM     21  S   UNL     1       3.909   2.288   0.034  0.00  0.00    +0.056 S 
ATOM     22  O   UNL     1       4.892   1.421  -0.514  0.00  0.00    -0.153 OA
ATOM     23  O   UNL     1       3.630   3.568  -0.515  0.00  0.00    -0.153 OA
BRANCH  21  24
ATOM     24  N   UNL     1       4.325   2.533   1.619  0.00  0.00    -0.204 NA
ATOM     25  H   UNL     1       3.754   2.197   2.327  0.00  0.00    +0.144 HD
ATOM     26  H   UNL     1       5.140   3.012   1.837  0.00  0.00    +0.144 HD
ENDBRANCH  21  24
ENDBRANCH  17  21
ENDBRANCH   1  20
BRANCH   3  27
ATOM     27  C   UNL     1      -3.322  -2.705   0.504  0.00  0.00    +0.247 C 
ATOM     28  O   UNL     1      -3.021  -2.050   1.485  0.00  0.00    -0.270 OA
ATOM     29  N   UNL     1      -4.366  -3.555   0.556  0.00  0.00    -0.325 N 
ATOM     30  H   UNL     1      -4.561  -4.131  -0.200  0.00  0.00    +0.145 HD
ATOM     31  H   UNL     1      -4.923  -3.591   1.350  0.00  0.00    +0.145 HD
ENDBRANCH   3  27
TORSDOF 4
