REMARK  Name = ZINC65529921
REMARK  4 active torsions:
REMARK  status: ('A' for Active; 'I' for Inactive)
REMARK    1  A    between atoms: C_1  and  C_2
REMARK    2  A    between atoms: C_2  and  C_3
REMARK    3  A    between atoms: C_2  and  C_4
REMARK    4  A    between atoms: C_4  and  C_5
REMARK                            x       y       z     vdW  Elec       q    Type
REMARK                         _______ _______ _______ _____ _____    ______ ____
ROOT
ATOM      1  C   UNL     1      -1.422  -2.024  -0.118  0.00  0.00    +0.216 C 
ATOM      2  O   UNL     1      -0.365  -2.613  -0.201  0.00  0.00    -0.276 OA
ATOM      3  N   UNL     1      -2.581  -2.713  -0.132  0.00  0.00    -0.298 N 
ATOM      4  C   UNL     1      -3.869  -2.011  -0.039  0.00  0.00    +0.126 C 
ATOM      5  C   UNL     1      -4.734  -2.415  -1.239  0.00  0.00    +0.127 C 
ATOM      6  N   UNL     1      -4.732  -3.880  -1.349  0.00  0.00    -0.298 N 
ATOM      7  C   UNL     1      -3.444  -4.582  -1.442  0.00  0.00    +0.127 C 
ATOM      8  C   UNL     1      -2.579  -4.178  -0.247  0.00  0.00    +0.126 C 
ATOM      9  C   UNL     1      -5.909  -4.580  -1.363  0.00  0.00    +0.199 A 
ATOM     10  N   UNL     1      -5.882  -5.924  -1.575  0.00  0.00    -0.295 N 
ATOM     11  H   UNL     1      -5.036  -6.378  -1.715  0.00  0.00    +0.172 HD
ATOM     12  C   UNL     1      -7.038  -6.624  -1.589  0.00  0.00    +0.256 A 
ATOM     13  O   UNL     1      -7.039  -7.830  -1.776  0.00  0.00    -0.267 OA
ATOM     14  C   UNL     1      -8.239  -5.926  -1.381  0.00  0.00    +0.036 A 
ATOM     15  C   UNL     1      -8.207  -4.587  -1.178  0.00  0.00    +0.051 A 
ATOM     16  N   UNL     1      -7.044  -3.938  -1.166  0.00  0.00    -0.220 NA
ATOM     17  C   UNL     1      -9.501  -3.829  -0.960  0.00  0.00    +0.037 C 
ATOM     18  C   UNL     1     -10.281  -3.826  -2.278  0.00  0.00    -0.076 C 
ATOM     19  N   UNL     1     -11.083  -5.030  -2.413  0.00  0.00    +0.380 N 
ATOM     20  C   UNL     1     -10.336  -6.255  -2.638  0.00  0.00    -0.078 C 
ATOM     21  C   UNL     1      -9.561  -6.663  -1.381  0.00  0.00    +0.023 C 
ATOM     22  H   UNL     1     -11.629  -5.142  -1.572  0.00  0.00    -0.086 HD
ATOM     23  H   UNL     1     -11.720  -4.901  -3.184  0.00  0.00    -0.086 HD
ENDROOT
BRANCH   1  24
ATOM     24  C   UNL     1      -1.440  -0.522   0.000  0.00  0.00    +0.099 C 
BRANCH  24  26
ATOM     25  C   UNL     1      -0.025   1.537  -0.013  0.00  0.00    +0.008 C 
ATOM     26  C   UNL     1      -0.005   0.008  -0.008  0.00  0.00    -0.008 C 
ATOM     27  C   UNL     1       0.729  -0.488   1.240  0.00  0.00    +0.008 C 
ENDBRANCH  24  26
ENDBRANCH   1  24
TORSDOF 2
