REMARK  Name = ZINC35734382
REMARK  6 active torsions:
REMARK  status: ('A' for Active; 'I' for Inactive)
REMARK    1  A    between atoms: C_1  and  C_2
REMARK    2  A    between atoms: C_2  and  C_4
REMARK    3  A    between atoms: C_2  and  N_10
REMARK    4  A    between atoms: N_10  and  S_11
REMARK    5  A    between atoms: S_11  and  C_14
REMARK    6  A    between atoms: C_19  and  N_20
REMARK                            x       y       z     vdW  Elec       q    Type
REMARK                         _______ _______ _______ _____ _____    ______ ____
ROOT
ATOM      1  S   UNL     1      -2.191  -0.795  -1.435  0.00  0.00    +0.060 S 
ATOM      2  O   UNL     1      -3.547  -1.157  -1.216  0.00  0.00    -0.153 OA
ATOM      3  O   UNL     1      -1.820   0.337  -2.209  0.00  0.00    -0.153 OA
ENDROOT
BRANCH   1   4
ATOM      4  C   UNL     1      -1.411  -2.190  -2.178  0.00  0.00    +0.126 A 
ATOM      5  C   UNL     1      -0.651  -2.030  -3.320  0.00  0.00    +0.031 A 
ATOM      6  C   UNL     1      -0.039  -3.123  -3.904  0.00  0.00    +0.017 A 
ATOM      7  C   UNL     1      -0.185  -4.381  -3.347  0.00  0.00    +0.020 A 
ATOM      8  C   UNL     1      -0.945  -4.548  -2.205  0.00  0.00    +0.040 A 
ATOM      9  C   UNL     1      -1.556  -3.450  -1.613  0.00  0.00    +0.052 A 
ATOM     10 BR   UNL     1       0.654  -5.874  -4.149  0.00  0.00    -0.050 Br
BRANCH   9  11
ATOM     11  N   UNL     1      -2.320  -3.614  -0.455  0.00  0.00    -0.356 N 
ATOM     12  H   UNL     1      -2.681  -2.838   0.002  0.00  0.00    +0.142 HD
ATOM     13  H   UNL     1      -2.490  -4.504  -0.108  0.00  0.00    +0.142 HD
ENDBRANCH   9  11
ENDBRANCH   1   4
BRANCH   1  14
ATOM     14  N   UNL     1      -1.508  -0.591   0.060  0.00  0.00    -0.185 NA
ATOM     15  H   UNL     1      -2.046  -0.704   0.859  0.00  0.00    +0.148 HD
BRANCH  14  17
ATOM     16  C   UNL     1       0.050   1.276   0.324  0.00  0.00    +0.028 C 
ATOM     17  C   UNL     1      -0.090  -0.240   0.175  0.00  0.00    +0.102 C 
BRANCH  17  18
ATOM     18  C   UNL     1       0.507  -0.930   1.404  0.00  0.00    +0.137 C 
ATOM     19  C   UNL     1       2.028  -0.645   1.494  0.00  0.00    +0.035 C 
ATOM     20  C   UNL     1       2.273  -0.833   3.016  0.00  0.00    +0.031 C 
ATOM     21  C   UNL     1       0.954  -0.314   3.627  0.00  0.00    +0.160 C 
ATOM     22  O   UNL     1      -0.052  -0.378   2.606  0.00  0.00    -0.375 OA
ENDBRANCH  17  18
ENDBRANCH  14  17
ENDBRANCH   1  14
TORSDOF 5
