REMARK  Name = ZINC12465682
REMARK  7 active torsions:
REMARK  status: ('A' for Active; 'I' for Inactive)
REMARK    1  A    between atoms: C_1  and  C_2
REMARK    2  A    between atoms: C_2  and  N_54
REMARK    3  A    between atoms: C_8  and  N_13
REMARK    4  A    between atoms: C_9  and  C_10
REMARK    5  A    between atoms: C_14  and  C_16
REMARK    6  A    between atoms: N_21  and  S_22
REMARK    7  A    between atoms: S_22  and  C_25
REMARK                            x       y       z     vdW  Elec       q    Type
REMARK                         _______ _______ _______ _____ _____    ______ ____
ROOT
ATOM      1  N   UNL     1      -2.393  -0.251  -0.564  0.00  0.00    -0.278 N 
ATOM      2  C   UNL     1      -1.110  -0.527  -0.870  0.00  0.00    +0.236 C 
ATOM      3  O   UNL     1      -0.850  -1.196  -1.848  0.00  0.00    -0.274 OA
ATOM      4  H   UNL     1      -2.601   0.285   0.217  0.00  0.00    +0.155 HD
ENDROOT
BRANCH   1  10
ATOM      5  C   UNL     1      -7.678  -1.457  -3.596  0.00  0.00    -0.074 C 
ATOM      6  C   UNL     1      -7.173  -1.079  -2.201  0.00  0.00    +0.018 C 
ATOM      7  C   UNL     1      -5.651  -1.169  -2.206  0.00  0.00    -0.027 A 
ATOM      8  C   UNL     1      -5.016  -1.859  -3.181  0.00  0.00    -0.021 A 
ATOM      9  S   UNL     1      -3.296  -1.699  -2.800  0.00  0.00    -0.079 S 
ATOM     10  C   UNL     1      -3.416  -0.732  -1.367  0.00  0.00    +0.084 A 
ATOM     11  C   UNL     1      -4.786  -0.560  -1.214  0.00  0.00    +0.068 A 
ATOM     12  C   UNL     1      -5.661  -2.588  -4.318  0.00  0.00    -0.035 C 
ATOM     13  N   UNL     1      -7.098  -2.756  -3.992  0.00  0.00    +0.383 N 
ATOM     14  H   UNL     1      -7.188  -3.415  -3.210  0.00  0.00    -0.081 HD
BRANCH  11  15
ATOM     15  C   UNL     1      -5.336   0.211  -0.095  0.00  0.00    +0.244 C 
ATOM     16  O   UNL     1      -5.520   1.408  -0.213  0.00  0.00    -0.270 OA
ATOM     17  N   UNL     1      -5.638  -0.406   1.065  0.00  0.00    -0.325 N 
ATOM     18  H   UNL     1      -5.492  -1.361   1.159  0.00  0.00    +0.145 HD
ATOM     19  H   UNL     1      -6.003   0.104   1.805  0.00  0.00    +0.145 HD
ENDBRANCH  11  15
BRANCH  13  21
ATOM     20  C   UNL     1      -7.799  -2.294  -6.317  0.00  0.00    -0.017 C 
ATOM     21  C   UNL     1      -7.822  -3.298  -5.162  0.00  0.00    -0.082 C 
ENDBRANCH  13  21
ENDBRANCH   1  10
BRANCH   2  22
ATOM     22  C   UNL     1       0.002  -0.004   0.002  0.00  0.00    +0.166 C 
ATOM     23  C   UNL     1      -0.019   1.539   0.011  0.00  0.00    +0.031 C 
ATOM     24  C   UNL     1       1.488   1.907  -0.002  0.00  0.00    +0.019 C 
ATOM     25  C   UNL     1       2.075   0.785  -0.895  0.00  0.00    +0.110 C 
ATOM     26  N   UNL     1       1.303  -0.420  -0.543  0.00  0.00    -0.164 NA
BRANCH  26  27
ATOM     27  S   UNL     1       1.815  -1.984  -0.731  0.00  0.00    +0.068 S 
ATOM     28  O   UNL     1       3.235  -1.948  -0.737  0.00  0.00    -0.152 OA
ATOM     29  O   UNL     1       1.076  -2.767   0.196  0.00  0.00    -0.152 OA
BRANCH  27  30
ATOM     30  C   UNL     1       1.318  -2.505  -2.339  0.00  0.00    +0.144 A 
ATOM     31  C   UNL     1       1.989  -2.410  -3.512  0.00  0.00    +0.038 A 
ATOM     32  C   UNL     1       1.397  -2.892  -4.665  0.00  0.00    +0.030 A 
ATOM     33  C   UNL     1       0.161  -3.445  -4.587  0.00  0.00    +0.080 A 
ATOM     34  S   UNL     1      -0.199  -3.300  -2.844  0.00  0.00    -0.057 S 
ATOM     35 CL   UNL     1      -0.816  -4.122  -5.852  0.00  0.00    -0.076 Cl
ENDBRANCH  27  30
ENDBRANCH  26  27
ENDBRANCH   2  22
TORSDOF 6
