REMARK  Name = ZINC46743446
REMARK  6 active torsions:
REMARK  status: ('A' for Active; 'I' for Inactive)
REMARK    1  A    between atoms: C_1  and  C_2
REMARK    2  A    between atoms: C_7  and  N_8
REMARK    3  A    between atoms: C_9  and  C_11
REMARK    4  A    between atoms: C_11  and  C_13
REMARK    5  A    between atoms: C_11  and  N_14
REMARK    6  A    between atoms: C_20  and  C_22
REMARK                            x       y       z     vdW  Elec       q    Type
REMARK                         _______ _______ _______ _____ _____    ______ ____
ROOT
ATOM      1  C   UNL     1      -0.065   0.051   4.918  0.00  0.00    +0.017 C 
ATOM      2  C   UNL     1       1.169   0.951   5.016  0.00  0.00    -0.004 C 
ENDROOT
BRANCH   1   3
ATOM      3  N   UNL     1      -0.054  -0.917   6.024  0.00  0.00    +0.389 N 
ATOM      4  C   UNL     1      -1.259  -1.753   5.951  0.00  0.00    -0.058 C 
ATOM      5  C   UNL     1      -1.194  -2.836   7.033  0.00  0.00    +0.089 C 
ATOM      6  N   UNL     1      -0.986  -2.183   8.334  0.00  0.00    -0.299 N 
ATOM      7  C   UNL     1       0.103  -1.201   8.452  0.00  0.00    +0.089 C 
ATOM      8  C   UNL     1      -0.023  -0.196   7.303  0.00  0.00    -0.058 C 
ATOM      9  C   UNL     1      -1.773  -2.475   9.389  0.00  0.00    +0.282 C 
ATOM     10  O   UNL     1      -2.593  -3.369   9.307  0.00  0.00    -0.267 OA
ATOM     11  H   UNL     1       0.764  -1.502   5.949  0.00  0.00    -0.081 HD
BRANCH   9  12
ATOM     12  C   UNL     1      -1.639  -1.714  10.636  0.00  0.00    +0.189 A 
ATOM     13  C   UNL     1      -2.281  -1.981  11.812  0.00  0.00    +0.054 A 
ATOM     14  C   UNL     1      -1.860  -1.008  12.731  0.00  0.00    +0.042 A 
ATOM     15  C   UNL     1      -0.991  -0.200  12.085  0.00  0.00    +0.196 A 
ATOM     16  O   UNL     1      -0.856  -0.631  10.824  0.00  0.00    -0.458 OA
ENDBRANCH   9  12
ENDBRANCH   1   3
BRANCH   1  18
ATOM     17  N   UNL     1      -0.594  -0.127   2.509  0.00  0.00    -0.287 N 
ATOM     18  C   UNL     1      -0.045  -0.687   3.605  0.00  0.00    +0.203 C 
ATOM     19  O   UNL     1       0.465  -1.785   3.534  0.00  0.00    -0.277 OA
ATOM     20  H   UNL     1      -0.944   0.777   2.550  0.00  0.00    +0.155 HD
BRANCH  17  27
ATOM     21  C   UNL     1      -2.745   0.416   0.727  0.00  0.00    +0.046 C 
ATOM     22  C   UNL     1      -1.692  -0.616   0.413  0.00  0.00    -0.028 A 
ATOM     23  C   UNL     1      -1.750  -1.325  -0.770  0.00  0.00    +0.020 A 
ATOM     24  C   UNL     1      -0.784  -2.273  -1.058  0.00  0.00    +0.018 A 
ATOM     25  C   UNL     1       0.242  -2.512  -0.162  0.00  0.00    +0.017 A 
ATOM     26  C   UNL     1       0.306  -1.805   1.022  0.00  0.00    +0.024 A 
ATOM     27  C   UNL     1      -0.659  -0.849   1.312  0.00  0.00    +0.036 A 
ATOM     28 BR   UNL     1      -0.868  -3.243  -2.679  0.00  0.00    -0.050 Br
ENDBRANCH  17  27
ENDBRANCH   1  18
TORSDOF 4
