REMARK  Name = ZINC63426868
REMARK  9 active torsions:
REMARK  status: ('A' for Active; 'I' for Inactive)
REMARK    1  A    between atoms: C_1  and  C_2
REMARK    2  A    between atoms: C_2  and  O_3
REMARK    3  A    between atoms: O_3  and  C_4
REMARK    4  A    between atoms: C_9  and  S_14
REMARK    5  A    between atoms: S_14  and  C_15
REMARK    6  A    between atoms: C_15  and  C_16
REMARK    7  A    between atoms: N_18  and  C_19
REMARK    8  A    between atoms: C_24  and  O_29
REMARK    9  A    between atoms: O_29  and  C_30
REMARK                            x       y       z     vdW  Elec       q    Type
REMARK                         _______ _______ _______ _____ _____    ______ ____
ROOT
ATOM      1  C   UNL     1      -0.639  -5.775  -4.543  0.00  0.00    +0.168 C 
ENDROOT
BRANCH   1   2
ATOM      2  C   UNL     1      -1.551  -6.380  -5.580  0.00  0.00    +0.225 C 
ATOM      3  O   UNL     1      -1.190  -7.348  -6.215  0.00  0.00    -0.275 OA
ATOM      4  N   UNL     1      -2.768  -5.845  -5.800  0.00  0.00    -0.288 N 
ATOM      5  H   UNL     1      -3.058  -5.071  -5.292  0.00  0.00    +0.151 HD
BRANCH   4   6
ATOM      6  C   UNL     1      -3.655  -6.433  -6.808  0.00  0.00    +0.224 C 
ATOM      7  N   UNL     1      -5.014  -5.885  -6.701  0.00  0.00    -0.316 N 
ATOM      8  C   UNL     1      -5.513  -5.181  -7.795  0.00  0.00    +0.046 A 
ATOM      9  C   UNL     1      -6.787  -4.589  -7.874  0.00  0.00    +0.069 A 
ATOM     10  C   UNL     1      -7.189  -3.912  -9.007  0.00  0.00    +0.122 A 
ATOM     11  C   UNL     1      -6.350  -3.793 -10.104  0.00  0.00    +0.047 A 
ATOM     12  C   UNL     1      -5.091  -4.368 -10.050  0.00  0.00    +0.020 A 
ATOM     13  C   UNL     1      -4.693  -5.043  -8.919  0.00  0.00    +0.032 A 
ATOM     14  S   UNL     1      -3.185  -5.891  -8.499  0.00  0.00    -0.082 S 
ATOM     15  H   UNL     1      -5.544  -6.008  -5.897  0.00  0.00    +0.149 HD
BRANCH  10  16
ATOM     16  O   UNL     1      -8.428  -3.353  -9.047  0.00  0.00    -0.495 OA
ATOM     17  C   UNL     1      -8.790  -2.664 -10.246  0.00  0.00    +0.277 C 
ENDBRANCH  10  16
ENDBRANCH   4   6
ENDBRANCH   1   2
BRANCH   1  18
ATOM     18  S   UNL     1       0.913  -6.712  -4.483  0.00  0.00    -0.106 S 
BRANCH  18  24
ATOM     19  C   UNL     1       0.776  -1.807  -1.336  0.00  0.00    +0.123 A 
ATOM     20  C   UNL     1       0.208  -2.690  -0.325  0.00  0.00    +0.048 A 
ATOM     21  C   UNL     1       0.281  -4.030  -0.429  0.00  0.00    +0.031 A 
ATOM     22  C   UNL     1       0.949  -4.637  -1.589  0.00  0.00    +0.061 A 
ATOM     23  N   UNL     1       1.157  -5.877  -1.931  0.00  0.00    -0.355 N 
ATOM     24  C   UNL     1       1.885  -5.869  -3.205  0.00  0.00    +0.236 C 
ATOM     25  N   UNL     1       2.076  -4.458  -3.565  0.00  0.00    -0.355 N 
ATOM     26  C   UNL     1       1.530  -3.738  -2.623  0.00  0.00    +0.064 A 
ATOM     27  C   UNL     1       1.403  -2.291  -2.436  0.00  0.00    +0.073 A 
ATOM     28  H   UNL     1       0.882  -6.662  -1.433  0.00  0.00    +0.162 HD
ATOM     29  H   UNL     1       2.525  -4.123  -4.356  0.00  0.00    +0.162 HD
BRANCH  19  30
ATOM     30  O   UNL     1       0.671  -0.465  -1.174  0.00  0.00    -0.492 OA
BRANCH  30  32
ATOM     31  C   UNL     1      -0.019   1.526   0.010  0.00  0.00    +0.048 C 
ATOM     32  C   UNL     1       0.002  -0.004   0.002  0.00  0.00    +0.225 C 
ENDBRANCH  30  32
ENDBRANCH  19  30
ENDBRANCH  18  24
ENDBRANCH   1  18
TORSDOF 7
