REMARK  Name = ZINC43258753
REMARK  6 active torsions:
REMARK  status: ('A' for Active; 'I' for Inactive)
REMARK    1  A    between atoms: C_1  and  C_2
REMARK    2  A    between atoms: C_2  and  C_3
REMARK    3  A    between atoms: C_3  and  C_5
REMARK    4  A    between atoms: C_3  and  N_20
REMARK    5  A    between atoms: C_5  and  C_7
REMARK    6  A    between atoms: C_5  and  N_13
REMARK                            x       y       z     vdW  Elec       q    Type
REMARK                         _______ _______ _______ _____ _____    ______ ____
ROOT
ATOM      1  C   UNL     1      -1.032  -2.030   0.062  0.00  0.00    +0.080 C 
ENDROOT
BRANCH   1   2
ATOM      2  N   UNL     1      -2.180  -2.890   0.380  0.00  0.00    -0.287 NA
ATOM      3  C   UNL     1      -3.438  -2.286  -0.088  0.00  0.00    +0.104 C 
ATOM      4  C   UNL     1      -4.545  -3.339  -0.017  0.00  0.00    +0.119 C 
ATOM      5  N   UNL     1      -4.554  -3.967   1.302  0.00  0.00    -0.313 N 
ATOM      6  C   UNL     1      -3.515  -3.908   2.142  0.00  0.00    +0.227 C 
ATOM      7  O   UNL     1      -3.596  -4.484   3.206  0.00  0.00    -0.274 OA
ATOM      8  C   UNL     1      -2.253  -3.158   1.823  0.00  0.00    +0.181 C 
ATOM      9  H   UNL     1      -5.349  -4.447   1.581  0.00  0.00    +0.149 HD
ENDBRANCH   1   2
BRANCH   1  10
ATOM     10  C   UNL     1      -0.649  -2.217  -1.383  0.00  0.00    +0.006 A 
ATOM     11  C   UNL     1       0.579  -2.413  -1.922  0.00  0.00    +0.014 A 
ATOM     12  C   UNL     1       0.695  -2.562  -3.292  0.00  0.00    +0.023 A 
ATOM     13  C   UNL     1      -0.425  -2.508  -4.055  0.00  0.00    +0.055 A 
ATOM     14  S   UNL     1      -1.696  -2.248  -2.829  0.00  0.00    -0.085 S 
ATOM     15 BR   UNL     1      -0.596  -2.674  -5.931  0.00  0.00    -0.043 Br
ENDBRANCH   1  10
BRANCH   1  16
ATOM     16  C   UNL     1      -1.409  -0.567   0.304  0.00  0.00    -0.053 C 
BRANCH  16  17
ATOM     17  N   UNL     1      -1.833  -0.395   1.700  0.00  0.00    +0.381 N 
ATOM     18  H   UNL     1      -1.887   0.589   1.916  0.00  0.00    -0.090 HD
ATOM     19  H   UNL     1      -2.739  -0.818   1.831  0.00  0.00    -0.090 HD
ATOM     20  H   UNL     1      -1.163  -0.837   2.312  0.00  0.00    -0.090 HD
ENDBRANCH  16  17
BRANCH  16  22
ATOM     21  C   UNL     1      -0.607   1.794   0.146  0.00  0.00    +0.002 C 
ATOM     22  C   UNL     1      -0.197   0.325   0.025  0.00  0.00    -0.018 C 
ENDBRANCH  16  22
ENDBRANCH   1  16
TORSDOF 5
