REMARK  Name = ZINC26473171
REMARK  9 active torsions:
REMARK  status: ('A' for Active; 'I' for Inactive)
REMARK    1  A    between atoms: C_1  and  C_2
REMARK    2  A    between atoms: N_11  and  C_14
REMARK    3  A    between atoms: C_14  and  C_15
REMARK    4  A    between atoms: C_15  and  C_16
REMARK    5  A    between atoms: C_27  and  C_38
REMARK    6  A    between atoms: C_28  and  C_29
REMARK    7  A    between atoms: C_32  and  O_37
REMARK    8  A    between atoms: C_33  and  O_35
REMARK    9  A    between atoms: O_35  and  C_36
REMARK                            x       y       z     vdW  Elec       q    Type
REMARK                         _______ _______ _______ _____ _____    ______ ____
ROOT
ATOM      1  C   UNL     1       0.002  -0.004   0.002  0.00  0.00    +0.194 C 
ATOM      2  C   UNL     1      -0.019   1.532   0.011  0.00  0.00    +0.167 C 
ATOM      3  N   UNL     1       1.373   2.003  -0.000  0.00  0.00    -0.333 N 
ATOM      4  C   UNL     1       2.348   1.144   0.490  0.00  0.00    +0.092 A 
ATOM      5  C   UNL     1       3.594   1.753   0.398  0.00  0.00    +0.007 A 
ATOM      6  C   UNL     1       4.700   1.023   0.848  0.00  0.00    +0.010 A 
ATOM      7  C   UNL     1       4.517  -0.239   1.350  0.00  0.00    +0.004 A 
ATOM      8  C   UNL     1       3.258  -0.833   1.434  0.00  0.00    +0.048 A 
ATOM      9  C   UNL     1       2.155  -0.141   1.001  0.00  0.00    +0.145 A 
ATOM     10  O   UNL     1       0.862  -0.556   1.007  0.00  0.00    -0.485 OA
ATOM     11  C   UNL     1       3.328   3.065  -0.185  0.00  0.00    -0.017 A 
ATOM     12  C   UNL     1       1.978   3.151  -0.400  0.00  0.00    +0.053 A 
ATOM     13  C   UNL     1       4.350   4.128  -0.493  0.00  0.00    +0.046 C 
ENDROOT
BRANCH  12  14
ATOM     14  C   UNL     1       1.284   4.320  -0.982  0.00  0.00    +0.002 A 
ATOM     15  C   UNL     1       0.317   4.138  -1.971  0.00  0.00    +0.014 A 
ATOM     16  C   UNL     1      -0.335   5.229  -2.508  0.00  0.00    +0.050 A 
ATOM     17  C   UNL     1      -0.022   6.509  -2.076  0.00  0.00    +0.158 A 
ATOM     18  C   UNL     1       0.947   6.698  -1.093  0.00  0.00    +0.162 A 
ATOM     19  C   UNL     1       1.599   5.608  -0.546  0.00  0.00    +0.059 A 
BRANCH  18  20
ATOM     20  O   UNL     1       1.250   7.955  -0.670  0.00  0.00    -0.491 OA
ATOM     21  C   UNL     1       2.253   8.074   0.341  0.00  0.00    +0.277 C 
ENDBRANCH  18  20
BRANCH  17  22
ATOM     22  O   UNL     1      -0.662   7.582  -2.612  0.00  0.00    -0.503 OA
ATOM     23  H   UNL     1      -0.415   8.598  -2.270  0.00  0.00    +0.292 HD
ENDBRANCH  17  22
ENDBRANCH  12  14
BRANCH   1  24
ATOM     24  C   UNL     1      -1.420  -0.517   0.236  0.00  0.00    +0.061 C 
BRANCH  24  25
ATOM     25  C   UNL     1      -1.440  -2.042   0.107  0.00  0.00    +0.088 C 
BRANCH  25  36
ATOM     26  C   UNL     1      -8.615  -4.857   4.560  0.00  0.00    +0.044 C 
ATOM     27  C   UNL     1      -7.949  -4.981   3.214  0.00  0.00    -0.046 A 
ATOM     28  C   UNL     1      -8.612  -5.568   2.144  0.00  0.00    +0.021 A 
ATOM     29  C   UNL     1      -7.974  -5.665   0.924  0.00  0.00    +0.084 A 
ATOM     30  N   UNL     1      -6.746  -5.210   0.764  0.00  0.00    -0.350 N 
ATOM     31  C   UNL     1      -6.081  -4.644   1.759  0.00  0.00    +0.099 A 
ATOM     32  C   UNL     1      -6.661  -4.517   3.017  0.00  0.00    +0.045 A 
ATOM     33  N   UNL     1      -4.789  -4.177   1.546  0.00  0.00    -0.314 N 
ATOM     34  C   UNL     1      -4.366  -4.413   0.158  0.00  0.00    +0.122 C 
ATOM     35  C   UNL     1      -2.914  -3.959  -0.014  0.00  0.00    +0.103 C 
ATOM     36  N   UNL     1      -2.805  -2.535   0.333  0.00  0.00    -0.299 NA
ATOM     37  C   UNL     1      -3.228  -2.299   1.720  0.00  0.00    +0.103 C 
ATOM     38  C   UNL     1      -4.679  -2.753   1.892  0.00  0.00    +0.122 C 
ATOM     39  H   UNL     1      -6.251  -5.295  -0.214  0.00  0.00    +0.166 HD
ENDBRANCH  25  36
ENDBRANCH  24  25
ENDBRANCH   1  24
TORSDOF 6
