REMARK  Name = ZINC59238652
REMARK  11 active torsions:
REMARK  status: ('A' for Active; 'I' for Inactive)
REMARK    1  A    between atoms: C_1  and  C_2
REMARK    2  A    between atoms: C_3  and  C_20
REMARK    3  A    between atoms: C_4  and  C_10
REMARK    4  A    between atoms: C_15  and  O_16
REMARK    5  A    between atoms: O_16  and  C_17
REMARK    6  A    between atoms: C_17  and  C_18
REMARK    7  A    between atoms: N_22  and  C_23
REMARK    8  A    between atoms: C_25  and  O_32
REMARK    9  A    between atoms: C_28  and  O_29
REMARK   10  A    between atoms: O_29  and  C_30
REMARK   11  A    between atoms: O_32  and  C_33
REMARK                            x       y       z     vdW  Elec       q    Type
REMARK                         _______ _______ _______ _____ _____    ______ ____
ROOT
ATOM      1  C   UNL     1       0.288   0.555   2.250  0.00  0.00    +0.061 C 
ATOM      2  C   UNL     1       0.212  -0.811   1.618  0.00  0.00    +0.017 C 
ATOM      3  C   UNL     1      -0.839  -1.120   0.829  0.00  0.00    +0.056 C 
ATOM      4  C   UNL     1      -0.876  -2.505   0.214  0.00  0.00    +0.143 C 
ATOM      5  N   UNL     1       0.245  -3.405   0.530  0.00  0.00    -0.315 N 
ATOM      6  C   UNL     1       1.225  -2.952   1.337  0.00  0.00    +0.135 C 
ATOM      7  S   UNL     1       2.535  -3.988   1.713  0.00  0.00    -0.019 S 
ATOM      8  N   UNL     1       1.210  -1.715   1.850  0.00  0.00    -0.300 N 
ATOM      9  H   UNL     1       0.278  -4.304   0.166  0.00  0.00    +0.149 HD
ATOM     10  H   UNL     1       1.946  -1.447   2.421  0.00  0.00    +0.154 HD
ENDROOT
BRANCH   4  11
ATOM     11  C   UNL     1      -2.150  -3.176   0.658  0.00  0.00    +0.019 A 
ATOM     12  C   UNL     1      -2.182  -3.881   1.846  0.00  0.00    +0.009 A 
ATOM     13  C   UNL     1      -3.350  -4.498   2.253  0.00  0.00    +0.001 A 
ATOM     14  C   UNL     1      -4.489  -4.411   1.473  0.00  0.00    +0.004 A 
ATOM     15  C   UNL     1      -4.462  -3.707   0.285  0.00  0.00    +0.046 A 
ATOM     16  C   UNL     1      -3.292  -3.083  -0.123  0.00  0.00    +0.126 A 
BRANCH  16  17
ATOM     17  O   UNL     1      -3.264  -2.385  -1.289  0.00  0.00    -0.488 OA
BRANCH  17  18
ATOM     18  C   UNL     1      -4.492  -2.284  -2.014  0.00  0.00    +0.256 C 
BRANCH  18  19
ATOM     19  C   UNL     1      -4.241  -1.602  -3.334  0.00  0.00    +0.006 C 
ATOM     20  C   UNL     1      -4.788  -2.071  -4.428  0.00  0.00    +0.007 C 
ENDBRANCH  18  19
ENDBRANCH  17  18
ENDBRANCH  16  17
ENDBRANCH   4  11
BRANCH   3  21
ATOM     21  C   UNL     1      -1.872  -0.183   0.585  0.00  0.00    +0.248 C 
ATOM     22  O   UNL     1      -1.899   0.433  -0.466  0.00  0.00    -0.270 OA
ATOM     23  N   UNL     1      -2.824   0.029   1.515  0.00  0.00    -0.279 N 
ATOM     24  H   UNL     1      -2.756  -0.396   2.384  0.00  0.00    +0.155 HD
BRANCH  23  25
ATOM     25  C   UNL     1      -3.912   0.863   1.226  0.00  0.00    +0.079 A 
ATOM     26  C   UNL     1      -4.225   1.165  -0.091  0.00  0.00    +0.074 A 
ATOM     27  C   UNL     1      -5.302   1.991  -0.374  0.00  0.00    +0.140 A 
ATOM     28  C   UNL     1      -6.067   2.514   0.660  0.00  0.00    +0.086 A 
ATOM     29  C   UNL     1      -5.756   2.214   1.974  0.00  0.00    +0.071 A 
ATOM     30  C   UNL     1      -4.684   1.385   2.261  0.00  0.00    +0.143 A 
ATOM     31 CL   UNL     1      -7.415   3.548   0.303  0.00  0.00    -0.080 Cl
BRANCH  30  32
ATOM     32  O   UNL     1      -4.382   1.085   3.554  0.00  0.00    -0.493 OA
ATOM     33  C   UNL     1      -5.280   1.564   4.557  0.00  0.00    +0.277 C 
ENDBRANCH  30  32
BRANCH  27  34
ATOM     34  O   UNL     1      -5.610   2.288  -1.665  0.00  0.00    -0.494 OA
ATOM     35  C   UNL     1      -4.781   1.715  -2.678  0.00  0.00    +0.277 C 
ENDBRANCH  27  34
ENDBRANCH  23  25
ENDBRANCH   3  21
TORSDOF 8
