REMARK  Name = ZINC56934012
REMARK  7 active torsions:
REMARK  status: ('A' for Active; 'I' for Inactive)
REMARK    1  A    between atoms: C_1  and  O_2
REMARK    2  A    between atoms: O_2  and  C_3
REMARK    3  A    between atoms: C_8  and  C_9
REMARK    4  A    between atoms: C_9  and  C_11
REMARK    5  A    between atoms: C_9  and  N_20
REMARK    6  A    between atoms: C_11  and  N_12
REMARK    7  A    between atoms: N_15  and  N_16
REMARK                            x       y       z     vdW  Elec       q    Type
REMARK                         _______ _______ _______ _____ _____    ______ ____
ROOT
ATOM      1  C   UNL     1       0.065  -2.838  -0.002  0.00  0.00    -0.017 C 
ENDROOT
BRANCH   1   2
ATOM      2  N   UNL     1      -0.146  -4.161   0.600  0.00  0.00    +0.385 N 
ATOM      3  C   UNL     1      -0.568  -5.108  -0.439  0.00  0.00    -0.078 C 
ATOM      4  C   UNL     1      -0.711  -6.506   0.168  0.00  0.00    -0.019 C 
ATOM      5  C   UNL     1      -1.760  -6.468   1.283  0.00  0.00    -0.004 C 
ATOM      6  C   UNL     1      -1.347  -5.423   2.324  0.00  0.00    -0.019 C 
ATOM      7  C   UNL     1      -1.180  -4.066   1.638  0.00  0.00    -0.078 C 
ATOM      8  H   UNL     1       0.716  -4.482   1.015  0.00  0.00    -0.081 HD
ENDBRANCH   1   2
BRANCH   1  14
ATOM      9  C   UNL     1       0.401  -0.525   0.906  0.00  0.00    +0.122 A 
ATOM     10  C   UNL     1       0.890   0.344   1.871  0.00  0.00    +0.046 A 
ATOM     11  C   UNL     1       1.578  -0.152   2.960  0.00  0.00    +0.004 A 
ATOM     12  C   UNL     1       1.780  -1.514   3.091  0.00  0.00    +0.000 A 
ATOM     13  C   UNL     1       1.294  -2.382   2.130  0.00  0.00    +0.005 A 
ATOM     14  C   UNL     1       0.600  -1.891   1.041  0.00  0.00    -0.018 A 
BRANCH   9  16
ATOM     15  C   UNL     1      -0.443   1.379  -0.242  0.00  0.00    +0.277 C 
ATOM     16  O   UNL     1      -0.277  -0.039  -0.167  0.00  0.00    -0.495 OA
ENDBRANCH   9  16
ENDBRANCH   1  14
BRANCH   1  17
ATOM     17  C   UNL     1       1.071  -2.954  -1.149  0.00  0.00    +0.095 C 
BRANCH  17  18
ATOM     18  N   UNL     1       2.297  -3.588  -0.661  0.00  0.00    -0.299 N 
ATOM     19  C   UNL     1       3.365  -3.708  -1.475  0.00  0.00    +0.316 C 
ATOM     20  O   UNL     1       3.309  -3.289  -2.615  0.00  0.00    -0.251 OA
ATOM     21  N   UNL     1       4.493  -4.291  -1.026  0.00  0.00    -0.217 N 
ATOM     22  H   UNL     1       2.342  -3.922   0.249  0.00  0.00    +0.150 HD
ATOM     23  H   UNL     1       5.261  -4.377  -1.612  0.00  0.00    +0.174 HD
BRANCH  21  24
ATOM     24  N   UNL     1       4.557  -4.774   0.288  0.00  0.00    -0.217 N 
ATOM     25  C   UNL     1       5.686  -5.357   0.737  0.00  0.00    +0.313 C 
ATOM     26  O   UNL     1       5.742  -5.776   1.877  0.00  0.00    -0.252 OA
ATOM     27  N   UNL     1       6.753  -5.477  -0.077  0.00  0.00    -0.312 N 
ATOM     28  H   UNL     1       3.789  -4.688   0.874  0.00  0.00    +0.174 HD
ATOM     29  H   UNL     1       6.709  -5.143  -0.987  0.00  0.00    +0.147 HD
ATOM     30  H   UNL     1       7.566  -5.897   0.246  0.00  0.00    +0.147 HD
ENDBRANCH  21  24
ENDBRANCH  17  18
ENDBRANCH   1  17
TORSDOF 6
