REMARK  Name = ZINC62520998
REMARK  10 active torsions:
REMARK  status: ('A' for Active; 'I' for Inactive)
REMARK    1  A    between atoms: C_1  and  C_2
REMARK    2  A    between atoms: C_2  and  C_3
REMARK    3  A    between atoms: C_2  and  N_12
REMARK    4  A    between atoms: N_5  and  C_6
REMARK    5  A    between atoms: C_6  and  C_7
REMARK    6  A    between atoms: N_15  and  C_16
REMARK    7  A    between atoms: C_16  and  C_17
REMARK    8  A    between atoms: C_17  and  C_18
REMARK    9  A    between atoms: C_17  and  C_19
REMARK   10  A    between atoms: C_17  and  N_20
REMARK                            x       y       z     vdW  Elec       q    Type
REMARK                         _______ _______ _______ _____ _____    ______ ____
ROOT
ATOM      1  N   UNL     1       0.834  -0.926  -1.117  0.00  0.00    -0.288 N 
ATOM      2  C   UNL     1       0.127  -0.903  -2.264  0.00  0.00    +0.300 C 
ATOM      3  O   UNL     1      -1.038  -0.554  -2.252  0.00  0.00    -0.253 OA
ATOM      4  N   UNL     1       0.710  -1.267  -3.423  0.00  0.00    -0.301 N 
ATOM      5  H   UNL     1       1.763  -1.205  -1.126  0.00  0.00    +0.151 HD
ATOM      6  H   UNL     1       1.639  -1.546  -3.432  0.00  0.00    +0.150 HD
ENDROOT
BRANCH   1   8
ATOM      7  C   UNL     1       0.278   0.989   0.298  0.00  0.00    +0.038 C 
ATOM      8  C   UNL     1       0.200  -0.531   0.143  0.00  0.00    +0.157 C 
BRANCH   8   9
ATOM      9  C   UNL     1       0.916  -1.190   1.294  0.00  0.00    +0.233 C 
ATOM     10  O   UNL     1       1.862  -1.919   1.083  0.00  0.00    -0.274 OA
ATOM     11  N   UNL     1       0.504  -0.970   2.559  0.00  0.00    -0.307 N 
ATOM     12  H   UNL     1      -0.253  -0.388   2.728  0.00  0.00    +0.149 HD
BRANCH  11  13
ATOM     13  C   UNL     1       1.200  -1.611   3.678  0.00  0.00    +0.178 C 
BRANCH  13  14
ATOM     14  C   UNL     1       0.548  -1.204   4.974  0.00  0.00    +0.122 A 
ATOM     15  C   UNL     1      -0.463  -1.850   5.582  0.00  0.00    +0.046 A 
ATOM     16  C   UNL     1      -0.760  -1.128   6.761  0.00  0.00    +0.041 A 
ATOM     17  C   UNL     1       0.088  -0.084   6.802  0.00  0.00    +0.195 A 
ATOM     18  O   UNL     1       0.881  -0.139   5.720  0.00  0.00    -0.466 OA
ENDBRANCH  13  14
ENDBRANCH  11  13
ENDBRANCH   8   9
ENDBRANCH   1   8
BRANCH   4  19
ATOM     19  C   UNL     1      -0.059  -1.242  -4.669  0.00  0.00    +0.093 C 
BRANCH  19  20
ATOM     20  C   UNL     1       0.863  -1.571  -5.845  0.00  0.00    -0.055 C 
ATOM     21  C   UNL     1       1.360  -3.012  -5.715  0.00  0.00    -0.008 C 
ATOM     22  C   UNL     1       0.093  -1.414  -7.157  0.00  0.00    -0.008 C 
BRANCH  20  23
ATOM     23  N   UNL     1       2.011  -0.655  -5.838  0.00  0.00    +0.384 N 
ATOM     24  C   UNL     1       1.531   0.730  -5.918  0.00  0.00    -0.078 C 
ATOM     25  C   UNL     1       2.718   1.692  -5.830  0.00  0.00    -0.019 C 
ATOM     26  C   UNL     1       3.679   1.415  -6.989  0.00  0.00    -0.004 C 
ATOM     27  C   UNL     1       4.116  -0.052  -6.938  0.00  0.00    -0.019 C 
ATOM     28  C   UNL     1       2.877  -0.949  -6.986  0.00  0.00    -0.078 C 
ATOM     29  H   UNL     1       2.533  -0.778  -4.983  0.00  0.00    -0.081 HD
ENDBRANCH  20  23
ENDBRANCH  19  20
ENDBRANCH   4  19
TORSDOF 7
