REMARK  Name = ZINC54479455
REMARK  11 active torsions:
REMARK  status: ('A' for Active; 'I' for Inactive)
REMARK    1  A    between atoms: C_1  and  C_2
REMARK    2  A    between atoms: C_2  and  C_3
REMARK    3  A    between atoms: C_3  and  C_5
REMARK    4  A    between atoms: C_3  and  N_6
REMARK    5  A    between atoms: C_7  and  C_9
REMARK    6  A    between atoms: C_12  and  N_15
REMARK    7  A    between atoms: N_18  and  C_19
REMARK    8  A    between atoms: C_19  and  C_20
REMARK    9  A    between atoms: C_20  and  C_22
REMARK   10  A    between atoms: C_20  and  N_23
REMARK   11  A    between atoms: C_27  and  C_30
REMARK                            x       y       z     vdW  Elec       q    Type
REMARK                         _______ _______ _______ _____ _____    ______ ____
ROOT
ATOM      1  N   UNL     1       8.620   1.348  -1.566  0.00  0.00    -0.269 N 
ATOM      2  C   UNL     1       9.171   1.424  -2.793  0.00  0.00    +0.304 C 
ATOM      3  O   UNL     1       8.503   1.168  -3.777  0.00  0.00    -0.253 OA
ATOM      4  N   UNL     1      10.462   1.785  -2.931  0.00  0.00    -0.301 N 
ATOM      5  H   UNL     1       9.130   1.620  -0.787  0.00  0.00    +0.156 HD
ATOM      6  H   UNL     1      10.995   1.990  -2.147  0.00  0.00    +0.150 HD
ENDROOT
BRANCH   1  10
ATOM      7  C   UNL     1       4.724  -0.057  -1.116  0.00  0.00    +0.037 A 
ATOM      8  C   UNL     1       5.066   0.715  -2.230  0.00  0.00    +0.015 A 
ATOM      9  C   UNL     1       6.354   1.178  -2.376  0.00  0.00    +0.024 A 
ATOM     10  C   UNL     1       7.316   0.878  -1.415  0.00  0.00    +0.035 A 
ATOM     11  C   UNL     1       6.979   0.109  -0.306  0.00  0.00    +0.024 A 
ATOM     12  C   UNL     1       5.691  -0.352  -0.151  0.00  0.00    +0.015 A 
BRANCH   7  14
ATOM     13  N   UNL     1       2.413  -0.269  -1.888  0.00  0.00    -0.309 N 
ATOM     14  C   UNL     1       3.344  -0.554  -0.957  0.00  0.00    +0.244 C 
ATOM     15  O   UNL     1       3.047  -1.222   0.015  0.00  0.00    -0.270 OA
ATOM     16  H   UNL     1       2.650   0.264  -2.664  0.00  0.00    +0.149 HD
BRANCH  13  17
ATOM     17  C   UNL     1       1.043  -0.762  -1.730  0.00  0.00    +0.070 C 
ATOM     18  C   UNL     1       0.250   0.207  -0.851  0.00  0.00    +0.028 C 
BRANCH  17  20
ATOM     19  C   UNL     1       1.095  -1.929  -3.938  0.00  0.00    +0.005 C 
ATOM     20  C   UNL     1       0.377  -0.868  -3.103  0.00  0.00    +0.018 C 
ENDBRANCH  17  20
ENDBRANCH  13  17
ENDBRANCH   7  14
ENDBRANCH   1  10
BRANCH   4  21
ATOM     21  C   UNL     1      11.062   1.868  -4.265  0.00  0.00    +0.090 C 
BRANCH  21  22
ATOM     22  C   UNL     1      12.550   2.199  -4.136  0.00  0.00    -0.054 C 
ATOM     23  C   UNL     1      13.162   2.345  -5.531  0.00  0.00    -0.012 C 
BRANCH  22  24
ATOM     24  N   UNL     1      12.709   3.458  -3.397  0.00  0.00    +0.383 N 
ATOM     25  C   UNL     1      12.126   4.558  -4.175  0.00  0.00    -0.078 C 
ATOM     26  C   UNL     1      12.216   5.858  -3.374  0.00  0.00    -0.018 C 
ATOM     27  C   UNL     1      13.687   6.166  -3.076  0.00  0.00    -0.001 C 
ATOM     28  C   UNL     1      14.305   4.981  -2.330  0.00  0.00    -0.031 C 
ATOM     29  C   UNL     1      14.137   3.712  -3.169  0.00  0.00    -0.075 C 
ATOM     30  C   UNL     1      15.794   5.245  -2.095  0.00  0.00    +0.005 C 
ATOM     31  H   UNL     1      12.235   3.388  -2.509  0.00  0.00    -0.081 HD
ENDBRANCH  22  24
ENDBRANCH  21  22
ENDBRANCH   4  21
TORSDOF 7
