REMARK  Name = ZINC32751080
REMARK  8 active torsions:
REMARK  status: ('A' for Active; 'I' for Inactive)
REMARK    1  A    between atoms: C_8  and  C_12
REMARK    2  A    between atoms: C_12  and  N_13
REMARK    3  A    between atoms: N_13  and  C_14
REMARK    4  A    between atoms: C_14  and  C_15
REMARK    5  A    between atoms: C_15  and  C_17
REMARK    6  A    between atoms: C_15  and  O_27
REMARK    7  A    between atoms: C_17  and  O_18
REMARK    8  A    between atoms: O_18  and  C_19
REMARK                            x       y       z     vdW  Elec       q    Type
REMARK                         _______ _______ _______ _____ _____    ______ ____
ROOT
ATOM      1  N   UNL     1       6.050   2.997   0.604  0.00  0.00    +0.381 N 
ATOM      2  H   UNL     1       5.950   2.850   1.690  0.00  0.00    -0.086 HD
ATOM      3  H   UNL     1       6.042   2.019   0.100  0.00  0.00    -0.086 HD
ENDROOT
BRANCH   1   4
ATOM      4  C   UNL     1       4.928   3.809   0.115  0.00  0.00    -0.075 C 
BRANCH   4  12
ATOM      5  C   UNL     1      -1.238   3.130   0.032  0.00  0.00    +0.000 A 
ATOM      6  C   UNL     1      -1.218   1.747   0.017  0.00  0.00    +0.004 A 
ATOM      7  C   UNL     1      -0.013   1.076   0.008  0.00  0.00    +0.046 A 
ATOM      8  C   UNL     1       1.184   1.786   0.000  0.00  0.00    +0.124 A 
ATOM      9  C   UNL     1       1.161   3.169   0.007  0.00  0.00    -0.005 A 
ATOM     10  C   UNL     1      -0.052   3.837   0.024  0.00  0.00    +0.007 A 
ATOM     11  C   UNL     1       2.434   3.977  -0.007  0.00  0.00    +0.043 C 
ATOM     12  C   UNL     1       3.610   3.092   0.414  0.00  0.00    +0.014 C 
ATOM     13  C   UNL     1       3.540   1.785  -0.386  0.00  0.00    +0.231 C 
ATOM     14  O   UNL     1       2.351   1.089  -0.010  0.00  0.00    -0.491 OA
ENDBRANCH   4  12
ENDBRANCH   1   4
BRANCH   1  15
ATOM     15  C   UNL     1       7.334   3.656   0.334  0.00  0.00    -0.048 C 
BRANCH  15  16
ATOM     16  C   UNL     1       8.476   2.782   0.857  0.00  0.00    +0.135 C 
BRANCH  16  17
ATOM     17  O   UNL     1       8.516   1.559   0.118  0.00  0.00    -0.390 OA
ATOM     18  H   UNL     1       9.276   0.799   0.353  0.00  0.00    +0.210 HD
ENDBRANCH  16  17
BRANCH  16  19
ATOM     19  C   UNL     1       9.804   3.523   0.688  0.00  0.00    +0.258 C 
BRANCH  19  20
ATOM     20  O   UNL     1      10.855   2.757   1.281  0.00  0.00    -0.488 OA
BRANCH  20  21
ATOM     21  C   UNL     1      12.109   3.278   1.218  0.00  0.00    +0.139 A 
ATOM     22  C   UNL     1      12.323   4.500   0.599  0.00  0.00    +0.048 A 
ATOM     23  C   UNL     1      13.598   5.029   0.535  0.00  0.00    +0.023 A 
ATOM     24  C   UNL     1      14.662   4.339   1.090  0.00  0.00    +0.043 A 
ATOM     25  C   UNL     1      14.452   3.119   1.708  0.00  0.00    +0.043 A 
ATOM     26  C   UNL     1      13.177   2.590   1.778  0.00  0.00    +0.084 A 
ATOM     27 CL   UNL     1      12.911   1.063   2.561  0.00  0.00    -0.080 Cl
ATOM     28 CL   UNL     1      16.263   5.005   1.009  0.00  0.00    -0.083 Cl
ENDBRANCH  20  21
ENDBRANCH  19  20
ENDBRANCH  16  19
ENDBRANCH  15  16
ENDBRANCH   1  15
TORSDOF 8
