REMARK  Name = ZINC40375769
REMARK  6 active torsions:
REMARK  status: ('A' for Active; 'I' for Inactive)
REMARK    1  A    between atoms: C_1  and  C_2
REMARK    2  A    between atoms: C_2  and  C_3
REMARK    3  A    between atoms: C_2  and  N_4
REMARK    4  A    between atoms: N_7  and  C_8
REMARK    5  A    between atoms: C_8  and  C_15
REMARK    6  A    between atoms: N_16  and  O_17
REMARK                            x       y       z     vdW  Elec       q    Type
REMARK                         _______ _______ _______ _____ _____    ______ ____
ROOT
ATOM      1  C   UNL     1       4.112  -1.227  -2.406  0.00  0.00    +0.094 C 
ATOM      2  C   UNL     1       4.612  -2.269  -1.384  0.00  0.00    +0.033 C 
ATOM      3  C   UNL     1       3.601  -3.380  -1.302  0.00  0.00    +0.002 C 
ATOM      4  C   UNL     1       3.941  -4.557  -2.236  0.00  0.00    +0.000 C 
ATOM      5  C   UNL     1       4.440  -4.096  -3.619  0.00  0.00    +0.000 C 
ATOM      6  C   UNL     1       3.649  -2.936  -4.160  0.00  0.00    +0.002 C 
ATOM      7  C   UNL     1       4.374  -1.629  -3.780  0.00  0.00    +0.033 C 
ENDROOT
BRANCH   1  11
ATOM      8  N   UNL     1       0.647  -0.135  -2.962  0.00  0.00    -0.297 N 
ATOM      9  C   UNL     1       1.989  -0.223  -3.055  0.00  0.00    +0.301 C 
ATOM     10  O   UNL     1       2.586   0.440  -3.881  0.00  0.00    -0.253 OA
ATOM     11  N   UNL     1       2.669  -1.046  -2.232  0.00  0.00    -0.287 N 
ATOM     12  H   UNL     1       0.171  -0.664  -2.303  0.00  0.00    +0.150 HD
ATOM     13  H   UNL     1       2.202  -1.519  -1.525  0.00  0.00    +0.151 HD
BRANCH   8  15
ATOM     14  C   UNL     1      -0.377   0.041  -5.176  0.00  0.00    +0.027 C 
ATOM     15  C   UNL     1      -0.092   0.760  -3.856  0.00  0.00    +0.068 C 
ATOM     16  C   UNL     1      -1.413   1.161  -3.198  0.00  0.00    +0.027 C 
ENDBRANCH   8  15
ENDBRANCH   1  11
BRANCH   1  17
ATOM     17  C   UNL     1       4.804   0.085  -2.141  0.00  0.00    +0.155 C 
ATOM     18  N   UNL     1       5.492   0.653  -3.075  0.00  0.00    -0.075 NA
ATOM     19  N   UNL     1       4.702   0.679  -0.902  0.00  0.00    -0.342 N 
ATOM     20  H   UNL     1       4.125   0.292  -0.225  0.00  0.00    +0.144 HD
ATOM     21  H   UNL     1       5.206   1.484  -0.708  0.00  0.00    +0.144 HD
BRANCH  18  22
ATOM     22  O   UNL     1       6.142   1.886  -2.825  0.00  0.00    -0.408 OA
ATOM     23  H   UNL     1       6.632   2.233  -3.583  0.00  0.00    +0.328 HD
ENDBRANCH  18  22
ENDBRANCH   1  17
TORSDOF 4
