REMARK  Name = ZINC61551370
REMARK  12 active torsions:
REMARK  status: ('A' for Active; 'I' for Inactive)
REMARK    1  A    between atoms: C_1  and  C_2
REMARK    2  A    between atoms: C_4  and  C_28
REMARK    3  A    between atoms: C_9  and  C_10
REMARK    4  A    between atoms: C_10  and  N_11
REMARK    5  A    between atoms: N_14  and  C_15
REMARK    6  A    between atoms: C_15  and  C_16
REMARK    7  A    between atoms: C_21  and  C_22
REMARK    8  A    between atoms: C_22  and  N_23
REMARK    9  A    between atoms: N_23  and  C_24
REMARK   10  A    between atoms: N_23  and  C_25
REMARK   11  A    between atoms: C_25  and  C_26
REMARK   12  A    between atoms: C_25  and  C_27
REMARK                            x       y       z     vdW  Elec       q    Type
REMARK                         _______ _______ _______ _____ _____    ______ ____
ROOT
ATOM      1  N   UNL     1      -0.750  -0.077   3.599  0.00  0.00    -0.295 N 
ATOM      2  C   UNL     1      -1.224   0.682   4.607  0.00  0.00    +0.300 C 
ATOM      3  O   UNL     1      -0.458   1.159   5.421  0.00  0.00    -0.253 OA
ATOM      4  N   UNL     1      -2.548   0.911   4.713  0.00  0.00    -0.295 N 
ATOM      5  H   UNL     1      -1.362  -0.458   2.950  0.00  0.00    +0.151 HD
ATOM      6  H   UNL     1      -3.160   0.529   4.064  0.00  0.00    +0.151 HD
ENDROOT
BRANCH   1   7
ATOM      7  C   UNL     1       0.689  -0.326   3.483  0.00  0.00    +0.146 C 
BRANCH   7  16
ATOM      8  C   UNL     1       1.395   0.864   0.949  0.00  0.00    +0.044 C 
ATOM      9  C   UNL     1       1.287  -0.633   1.084  0.00  0.00    -0.039 A 
ATOM     10  C   UNL     1       1.533  -1.464  -0.018  0.00  0.00    +0.024 A 
ATOM     11  C   UNL     1       1.434  -2.807   0.113  0.00  0.00    +0.016 A 
ATOM     12  N   UNL     1       1.097  -3.365   1.304  0.00  0.00    -0.326 N 
ATOM     13  H   UNL     1       1.030  -4.330   1.380  0.00  0.00    +0.169 HD
ATOM     14  C   UNL     1       0.855  -2.594   2.381  0.00  0.00    +0.254 A 
ATOM     15  O   UNL     1       0.553  -3.110   3.445  0.00  0.00    -0.268 OA
ATOM     16  C   UNL     1       0.953  -1.195   2.281  0.00  0.00    +0.037 A 
ATOM     17  C   UNL     1       1.700  -3.694  -1.077  0.00  0.00    +0.063 C 
ENDBRANCH   7  16
ENDBRANCH   1   7
BRANCH   4  18
ATOM     18  C   UNL     1      -3.063   1.735   5.809  0.00  0.00    +0.141 C 
BRANCH  18  19
ATOM     19  C   UNL     1      -4.570   1.741   5.768  0.00  0.00    -0.029 A 
ATOM     20  C   UNL     1      -5.242   2.799   5.186  0.00  0.00    +0.005 A 
ATOM     21  C   UNL     1      -6.623   2.804   5.149  0.00  0.00    +0.000 A 
ATOM     22  C   UNL     1      -7.334   1.750   5.693  0.00  0.00    +0.000 A 
ATOM     23  C   UNL     1      -6.662   0.692   6.274  0.00  0.00    +0.002 A 
ATOM     24  C   UNL     1      -5.280   0.684   6.308  0.00  0.00    -0.059 A 
BRANCH  24  25
ATOM     25  C   UNL     1      -4.547  -0.472   6.937  0.00  0.00    -0.043 C 
BRANCH  25  26
ATOM     26  N   UNL     1      -4.098  -1.397   5.887  0.00  0.00    +0.382 N 
ATOM     27  C   UNL     1      -5.267  -1.976   5.211  0.00  0.00    -0.095 C 
ATOM     28  H   UNL     1      -3.535  -0.895   5.216  0.00  0.00    -0.081 HD
BRANCH  26  29
ATOM     29  C   UNL     1      -3.299  -2.472   6.490  0.00  0.00    -0.075 C 
ATOM     30  C   UNL     1      -2.831  -3.434   5.396  0.00  0.00    -0.014 C 
ATOM     31  C   UNL     1      -2.081  -1.869   7.194  0.00  0.00    -0.014 C 
ENDBRANCH  26  29
ENDBRANCH  25  26
ENDBRANCH  24  25
ENDBRANCH  18  19
ENDBRANCH   4  18
TORSDOF 7
