REMARK  Name = ZINC27349974
REMARK  10 active torsions:
REMARK  status: ('A' for Active; 'I' for Inactive)
REMARK    1  A    between atoms: C_1  and  C_2
REMARK    2  A    between atoms: C_2  and  C_3
REMARK    3  A    between atoms: C_3  and  N_4
REMARK    4  A    between atoms: N_4  and  C_5
REMARK    5  A    between atoms: N_4  and  C_18
REMARK    6  A    between atoms: C_5  and  C_6
REMARK    7  A    between atoms: C_9  and  C_15
REMARK    8  A    between atoms: C_11  and  N_12
REMARK    9  A    between atoms: C_18  and  C_19
REMARK   10  A    between atoms: N_21  and  C_22
REMARK                            x       y       z     vdW  Elec       q    Type
REMARK                         _______ _______ _______ _____ _____    ______ ____
ROOT
ATOM      1  N   UNL     1       3.825   6.150   0.313  0.00  0.00    +0.388 N 
ATOM      2  H   UNL     1       4.439   5.744   1.131  0.00  0.00    -0.081 HD
ENDROOT
BRANCH   1   3
ATOM      3  C   UNL     1       4.629   6.112  -0.916  0.00  0.00    -0.078 C 
BRANCH   3   5
ATOM      4  C   UNL     1       6.835   6.705  -1.926  0.00  0.00    +0.002 C 
ATOM      5  C   UNL     1       6.029   6.655  -0.627  0.00  0.00    -0.022 C 
ENDBRANCH   3   5
ENDBRANCH   1   3
BRANCH   1   6
ATOM      6  C   UNL     1       3.463   7.530   0.663  0.00  0.00    -0.040 C 
BRANCH   6   7
ATOM      7  C   UNL     1       2.809   7.549   2.021  0.00  0.00    -0.034 A 
ATOM      8  C   UNL     1       1.438   7.704   2.123  0.00  0.00    +0.005 A 
ATOM      9  C   UNL     1       0.833   7.721   3.362  0.00  0.00    +0.013 A 
ATOM     10  C   UNL     1       1.608   7.583   4.515  0.00  0.00    +0.039 A 
ATOM     11  C   UNL     1       2.990   7.428   4.405  0.00  0.00    +0.046 A 
ATOM     12  C   UNL     1       3.582   7.407   3.159  0.00  0.00    +0.128 A 
BRANCH  10  13
ATOM     13  C   UNL     1       0.966   7.602   5.847  0.00  0.00    +0.242 C 
ATOM     14  O   UNL     1       1.643   7.481   6.850  0.00  0.00    -0.270 OA
ATOM     15  N   UNL     1      -0.369   7.752   5.950  0.00  0.00    -0.325 N 
ATOM     16  H   UNL     1      -0.846   7.766   6.941  0.00  0.00    +0.145 HD
ATOM     17  H   UNL     1      -0.982   7.861   5.043  0.00  0.00    +0.145 HD
ENDBRANCH  10  13
BRANCH  12  18
ATOM     18  N   UNL     1       5.047   7.237   3.040  0.00  0.00    +0.057 N 
ATOM     19  O   UNL     1       5.719   7.028   4.035  0.00  0.00    -0.126 OA
ATOM     20  O   UNL     1       5.582   7.306   1.948  0.00  0.00    -0.126 OA
ENDBRANCH  12  18
ENDBRANCH   6   7
ENDBRANCH   1   6
BRANCH   1  21
ATOM     21  C   UNL     1       2.628   5.307   0.186  0.00  0.00    +0.019 C 
BRANCH  21  22
ATOM     22  C   UNL     1       3.041   3.862   0.072  0.00  0.00    +0.201 C 
ATOM     23  O   UNL     1       4.216   3.564   0.095  0.00  0.00    -0.278 OA
ATOM     24  N   UNL     1       2.104   2.902  -0.054  0.00  0.00    -0.285 N 
ATOM     25  H   UNL     1       1.044   3.178  -0.158  0.00  0.00    +0.155 HD
BRANCH  24  26
ATOM     26  C   UNL     1       2.480   1.552  -0.054  0.00  0.00    +0.072 A 
ATOM     27  C   UNL     1       3.672   1.163   0.541  0.00  0.00    +0.029 A 
ATOM     28  C   UNL     1       4.042  -0.169   0.541  0.00  0.00    +0.043 A 
ATOM     29  C   UNL     1       3.226  -1.116  -0.053  0.00  0.00    +0.161 A 
ATOM     30  C   UNL     1       2.034  -0.732  -0.649  0.00  0.00    +0.195 A 
ATOM     31  C   UNL     1       1.660   0.601  -0.651  0.00  0.00    +0.182 A 
ATOM     32  F   UNL     1       0.502   0.978  -1.236  0.00  0.00    -0.200 F 
ATOM     33  F   UNL     1       1.240  -1.658  -1.229  0.00  0.00    -0.199 F 
ATOM     34  F   UNL     1       3.591  -2.417  -0.052  0.00  0.00    -0.202 F 
ENDBRANCH  24  26
ENDBRANCH  21  22
ENDBRANCH   1  21
TORSDOF 9
