REMARK  Name = ZINC02789441
REMARK  7 active torsions:
REMARK  status: ('A' for Active; 'I' for Inactive)
REMARK    1  A    between atoms: C_1  and  O_2
REMARK    2  A    between atoms: O_2  and  C_3
REMARK    3  A    between atoms: C_3  and  C_5
REMARK    4  A    between atoms: C_6  and  C_25
REMARK    5  A    between atoms: C_9  and  N_10
REMARK    6  A    between atoms: C_11  and  C_13
REMARK    7  A    between atoms: C_28  and  C_31
REMARK                            x       y       z     vdW  Elec       q    Type
REMARK                         _______ _______ _______ _____ _____    ______ ____
ROOT
ATOM      1  C   UNL     1      -3.677   1.658   0.034  0.00  0.00    +0.095 A 
ATOM      2  C   UNL     1      -4.750   0.681   0.029  0.00  0.00    +0.005 A 
ATOM      3  C   UNL     1      -4.385  -0.626   0.021  0.00  0.00    +0.056 A 
ATOM      4  S   UNL     1      -2.606  -0.555   0.012  0.00  0.00    -0.080 S 
ATOM      5  C   UNL     1      -2.380   1.162   0.020  0.00  0.00    +0.087 A 
ENDROOT
BRANCH   2   6
ATOM      6  C   UNL     1      -6.174   1.091   0.039  0.00  0.00    -0.017 A 
ATOM      7  C   UNL     1      -6.629   2.020   0.974  0.00  0.00    +0.009 A 
ATOM      8  C   UNL     1      -7.955   2.401   0.974  0.00  0.00    +0.004 A 
ATOM      9  C   UNL     1      -8.835   1.856   0.057  0.00  0.00    -0.044 A 
ATOM     10  C   UNL     1      -8.391   0.929  -0.870  0.00  0.00    +0.004 A 
ATOM     11  C   UNL     1      -7.066   0.544  -0.883  0.00  0.00    +0.009 A 
BRANCH   9  12
ATOM     12  C   UNL     1     -10.284   2.272   0.066  0.00  0.00    +0.019 C 
ATOM     13  C   UNL     1     -10.382   3.780  -0.176  0.00  0.00    +0.008 C 
ATOM     14  C   UNL     1     -11.852   4.203  -0.166  0.00  0.00    +0.001 C 
ATOM     15  C   UNL     1     -12.472   3.862   1.190  0.00  0.00    +0.000 C 
ATOM     16  C   UNL     1     -12.374   2.355   1.432  0.00  0.00    +0.001 C 
ATOM     17  C   UNL     1     -10.903   1.932   1.423  0.00  0.00    +0.008 C 
ENDBRANCH   9  12
ENDBRANCH   2   6
BRANCH   5  18
ATOM     18  N   UNL     1      -1.191   1.870   0.018  0.00  0.00    -0.275 N 
ATOM     19  C   UNL     1      -0.014   1.212   0.009  0.00  0.00    +0.256 C 
ATOM     20  O   UNL     1       0.002  -0.004   0.002  0.00  0.00    -0.270 OA
ATOM     21  H   UNL     1      -1.204   2.840   0.023  0.00  0.00    +0.156 HD
BRANCH  19  22
ATOM     22  C   UNL     1       1.250   1.965   0.001  0.00  0.00    +0.122 A 
ATOM     23  C   UNL     1       1.246   3.350   0.002  0.00  0.00    +0.031 A 
ATOM     24  C   UNL     1       2.487   4.035  -0.001  0.00  0.00    +0.020 A 
ATOM     25  C   UNL     1       2.519   5.438   0.005  0.00  0.00    +0.031 A 
ATOM     26  C   UNL     1       3.719   6.091  -0.004  0.00  0.00    +0.042 A 
ATOM     27  C   UNL     1       4.910   5.376  -0.018  0.00  0.00    +0.023 A 
ATOM     28  C   UNL     1       4.901   3.997  -0.025  0.00  0.00    +0.048 A 
ATOM     29  C   UNL     1       3.692   3.309  -0.016  0.00  0.00    +0.139 A 
ATOM     30  O   UNL     1       3.687   1.959  -0.023  0.00  0.00    -0.422 OA
ATOM     31  C   UNL     1       2.538   1.262  -0.015  0.00  0.00    +0.350 A 
ATOM     32  O   UNL     1       2.566   0.046  -0.022  0.00  0.00    -0.244 OA
ATOM     33 CL   UNL     1       3.755   7.826   0.004  0.00  0.00    -0.084 Cl
ENDBRANCH  19  22
ENDBRANCH   5  18
BRANCH   1  34
ATOM     34  C   UNL     1      -3.948   3.096   0.050  0.00  0.00    +0.342 C 
ATOM     35  O   UNL     1      -4.069   3.703  -0.997  0.00  0.00    -0.245 OA
BRANCH  34  37
ATOM     36  C   UNL     1      -4.333   5.173   1.166  0.00  0.00    +0.280 C 
ATOM     37  O   UNL     1      -4.064   3.747   1.226  0.00  0.00    -0.464 OA
ENDBRANCH  34  37
ENDBRANCH   1  34
TORSDOF 6
