REMARK  Name = ZINC63280494
REMARK  9 active torsions:
REMARK  status: ('A' for Active; 'I' for Inactive)
REMARK    1  A    between atoms: C_1  and  C_2
REMARK    2  A    between atoms: C_5  and  C_9
REMARK    3  A    between atoms: C_7  and  C_8
REMARK    4  A    between atoms: N_11  and  C_12
REMARK    5  A    between atoms: C_12  and  C_19
REMARK    6  A    between atoms: C_13  and  C_14
REMARK    7  A    between atoms: N_21  and  C_22
REMARK    8  A    between atoms: C_22  and  C_23
REMARK    9  A    between atoms: C_23  and  C_24
REMARK                            x       y       z     vdW  Elec       q    Type
REMARK                         _______ _______ _______ _____ _____    ______ ____
ROOT
ATOM      1  C   UNL     1       0.195  -6.314  -1.037  0.00  0.00    +0.097 C 
ATOM      2  C   UNL     1       0.204  -6.932   0.174  0.00  0.00    +0.043 C 
ENDROOT
BRANCH   2   3
ATOM      3  C   UNL     1       0.218  -6.161   1.362  0.00  0.00    +0.014 A 
ATOM      4  C   UNL     1       0.314  -6.587   2.681  0.00  0.00    +0.015 A 
ATOM      5  C   UNL     1       0.307  -5.638   3.673  0.00  0.00    +0.008 A 
ATOM      6  C   UNL     1       0.207  -4.323   3.338  0.00  0.00    +0.046 A 
ATOM      7  S   UNL     1       0.125  -4.389   1.556  0.00  0.00    -0.097 S 
ENDBRANCH   2   3
BRANCH   1  10
ATOM      8  C   UNL     1       1.044  -4.192  -1.703  0.00  0.00    +0.248 C 
ATOM      9  O   UNL     1       1.977  -4.750  -2.249  0.00  0.00    -0.270 OA
ATOM     10  N   UNL     1       0.077  -4.920  -1.111  0.00  0.00    -0.277 N 
ATOM     11  H   UNL     1      -0.702  -4.479  -0.737  0.00  0.00    +0.155 HD
BRANCH   8  16
ATOM     12  C   UNL     1       0.765   1.555  -1.643  0.00  0.00    +0.044 C 
ATOM     13  C   UNL     1       0.838   0.050  -1.659  0.00  0.00    -0.047 A 
ATOM     14  C   UNL     1      -0.211  -0.696  -1.151  0.00  0.00    +0.004 A 
ATOM     15  C   UNL     1      -0.150  -2.074  -1.162  0.00  0.00    +0.013 A 
ATOM     16  C   UNL     1       0.972  -2.716  -1.688  0.00  0.00    +0.037 A 
ATOM     17  C   UNL     1       2.027  -1.958  -2.200  0.00  0.00    +0.016 A 
ATOM     18  C   UNL     1       1.951  -0.580  -2.187  0.00  0.00    -0.047 A 
ATOM     19  C   UNL     1       3.086   0.241  -2.743  0.00  0.00    +0.044 C 
ENDBRANCH   8  16
ENDBRANCH   1  10
BRANCH   1  20
ATOM     20  C   UNL     1       0.310  -7.105  -2.264  0.00  0.00    +0.258 C 
ATOM     21  O   UNL     1       0.303  -6.552  -3.348  0.00  0.00    -0.269 OA
ATOM     22  N   UNL     1       0.424  -8.447  -2.192  0.00  0.00    -0.310 N 
ATOM     23  H   UNL     1       0.430  -8.887  -1.329  0.00  0.00    +0.149 HD
BRANCH  22  24
ATOM     24  C   UNL     1       0.539  -9.238  -3.420  0.00  0.00    +0.109 C 
BRANCH  24  25
ATOM     25  C   UNL     1       0.655 -10.721  -3.061  0.00  0.00    +0.052 C 
BRANCH  25  26
ATOM     26  C   UNL     1       0.773 -11.536  -4.324  0.00  0.00    -0.040 C 
ATOM     27  C   UNL     1       1.913 -11.965  -4.910  0.00  0.00    -0.001 A 
ATOM     28  C   UNL     1       3.331 -11.808  -4.562  0.00  0.00    +0.010 A 
ATOM     29  C   UNL     1       4.268 -12.364  -5.363  0.00  0.00    +0.001 A 
ATOM     30  C   UNL     1       3.921 -13.085  -6.514  0.00  0.00    +0.002 A 
ATOM     31  C   UNL     1       2.640 -13.273  -6.898  0.00  0.00    +0.026 A 
ATOM     32  C   UNL     1       1.573 -12.732  -6.130  0.00  0.00    +0.043 A 
ATOM     33  N   UNL     1       0.273 -12.774  -6.291  0.00  0.00    -0.380 N 
ATOM     34  C   UNL     1      -0.360 -12.044  -5.187  0.00  0.00    +0.144 C 
ATOM     35  H   UNL     1      -0.194 -13.217  -7.017  0.00  0.00    +0.160 HD
ENDBRANCH  25  26
ENDBRANCH  24  25
ENDBRANCH  22  24
ENDBRANCH   1  20
TORSDOF 7
