REMARK  Name = ZINC43259357
REMARK  10 active torsions:
REMARK  status: ('A' for Active; 'I' for Inactive)
REMARK    1  A    between atoms: C_1  and  C_2
REMARK    2  A    between atoms: C_2  and  C_3
REMARK    3  A    between atoms: C_3  and  C_5
REMARK    4  A    between atoms: C_3  and  N_23
REMARK    5  A    between atoms: C_5  and  C_7
REMARK    6  A    between atoms: C_5  and  N_13
REMARK    7  A    between atoms: N_13  and  C_14
REMARK    8  A    between atoms: N_13  and  C_15
REMARK    9  A    between atoms: C_15  and  C_16
REMARK   10  A    between atoms: C_19  and  C_22
REMARK                            x       y       z     vdW  Elec       q    Type
REMARK                         _______ _______ _______ _____ _____    ______ ____
ROOT
ATOM      1  C   UNL     1       0.769  -2.027   1.365  0.00  0.00    +0.079 C 
ENDROOT
BRANCH   1   2
ATOM      2  C   UNL     1      -0.643  -2.521   1.542  0.00  0.00    +0.006 A 
ATOM      3  C   UNL     1      -1.288  -2.873   2.681  0.00  0.00    +0.014 A 
ATOM      4  C   UNL     1      -2.599  -3.303   2.604  0.00  0.00    +0.023 A 
ATOM      5  C   UNL     1      -3.203  -3.359   1.390  0.00  0.00    +0.055 A 
ATOM      6  S   UNL     1      -1.905  -2.786   0.306  0.00  0.00    -0.085 S 
ATOM      7 BR   UNL     1      -4.963  -3.897   0.959  0.00  0.00    -0.043 Br
ENDBRANCH   1   2
BRANCH   1   8
ATOM      8  N   UNL     1       1.341  -2.607   0.143  0.00  0.00    -0.295 NA
ATOM      9  C   UNL     1       2.700  -2.101  -0.095  0.00  0.00    +0.105 C 
BRANCH   8  10
ATOM     10  C   UNL     1       1.329  -4.075   0.201  0.00  0.00    +0.119 C 
BRANCH  10  11
ATOM     11  C   UNL     1       1.689  -4.634  -1.151  0.00  0.00    -0.033 A 
ATOM     12  C   UNL     1       0.698  -4.888  -2.081  0.00  0.00    +0.005 A 
ATOM     13  C   UNL     1       1.028  -5.401  -3.321  0.00  0.00    +0.003 A 
ATOM     14  C   UNL     1       2.350  -5.660  -3.632  0.00  0.00    -0.050 A 
ATOM     15  C   UNL     1       3.341  -5.405  -2.703  0.00  0.00    +0.003 A 
ATOM     16  C   UNL     1       3.011  -4.888  -1.464  0.00  0.00    +0.005 A 
ATOM     17  C   UNL     1       2.710  -6.220  -4.984  0.00  0.00    +0.044 C 
ENDBRANCH  10  11
ENDBRANCH   8  10
ENDBRANCH   1   8
BRANCH   1  18
ATOM     18  C   UNL     1       0.766  -0.501   1.252  0.00  0.00    -0.053 C 
BRANCH  18  19
ATOM     19  N   UNL     1       0.099   0.075   2.427  0.00  0.00    +0.381 N 
ATOM     20  H   UNL     1       0.594  -0.199   3.263  0.00  0.00    -0.090 HD
ATOM     21  H   UNL     1       0.097   1.082   2.353  0.00  0.00    -0.090 HD
ATOM     22  H   UNL     1      -0.851  -0.261   2.474  0.00  0.00    -0.090 HD
ENDBRANCH  18  19
BRANCH  18  24
ATOM     23  C   UNL     1       0.121   1.430  -0.196  0.00  0.00    +0.002 C 
ATOM     24  C   UNL     1       0.015  -0.085  -0.015  0.00  0.00    -0.018 C 
ENDBRANCH  18  24
ENDBRANCH   1  18
TORSDOF 7
