REMARK  Name = ZINC67492700
REMARK  11 active torsions:
REMARK  status: ('A' for Active; 'I' for Inactive)
REMARK    1  A    between atoms: C_1  and  C_2
REMARK    2  A    between atoms: C_2  and  C_3
REMARK    3  A    between atoms: C_3  and  C_4
REMARK    4  A    between atoms: C_4  and  N_5
REMARK    5  A    between atoms: C_11  and  N_14
REMARK    6  A    between atoms: C_15  and  C_17
REMARK    7  A    between atoms: N_19  and  C_20
REMARK    8  A    between atoms: C_20  and  C_22
REMARK    9  A    between atoms: C_20  and  C_23
REMARK   10  A    between atoms: N_25  and  C_26
REMARK   11  A    between atoms: C_26  and  C_27
REMARK                            x       y       z     vdW  Elec       q    Type
REMARK                         _______ _______ _______ _____ _____    ______ ____
ROOT
ATOM      1  N   UNL     1      -4.304  -6.755  -0.145  0.00  0.00    -0.278 N 
ATOM      2  C   UNL     1      -5.209  -7.682  -0.515  0.00  0.00    +0.303 C 
ATOM      3  O   UNL     1      -6.368  -7.570  -0.172  0.00  0.00    -0.265 OA
ATOM      4  H   UNL     1      -3.397  -6.800  -0.485  0.00  0.00    +0.155 HD
ENDROOT
BRANCH   1  11
ATOM      5  N   UNL     1      -2.793  -2.572   0.038  0.00  0.00    +0.385 N 
ATOM      6  C   UNL     1      -3.422  -2.336   1.357  0.00  0.00    -0.042 C 
ATOM      7  C   UNL     1      -4.345  -3.511   1.586  0.00  0.00    -0.061 A 
ATOM      8  C   UNL     1      -5.404  -3.694   2.456  0.00  0.00    +0.002 A 
ATOM      9  C   UNL     1      -6.098  -4.890   2.465  0.00  0.00    +0.002 A 
ATOM     10  C   UNL     1      -5.736  -5.907   1.604  0.00  0.00    +0.023 A 
ATOM     11  C   UNL     1      -4.673  -5.728   0.727  0.00  0.00    +0.035 A 
ATOM     12  C   UNL     1      -3.978  -4.526   0.720  0.00  0.00    -0.041 A 
ATOM     13  C   UNL     1      -2.803  -4.046  -0.101  0.00  0.00    -0.040 C 
ATOM     14  H   UNL     1      -3.335  -2.144  -0.697  0.00  0.00    -0.081 HD
BRANCH   5  15
ATOM     15  C   UNL     1      -1.415  -2.063   0.025  0.00  0.00    -0.078 C 
BRANCH  15  16
ATOM     16  C   UNL     1      -1.437  -0.533   0.044  0.00  0.00    -0.019 C 
BRANCH  16  18
ATOM     17  C   UNL     1      -0.024   1.528   0.051  0.00  0.00    +0.004 C 
ATOM     18  C   UNL     1      -0.002  -0.002   0.031  0.00  0.00    -0.005 C 
ENDBRANCH  16  18
ENDBRANCH  15  16
ENDBRANCH   5  15
ENDBRANCH   1  11
BRANCH   2  19
ATOM     19  C   UNL     1      -4.786  -8.848  -1.347  0.00  0.00    +0.300 C 
ATOM     20  O   UNL     1      -3.628  -8.960  -1.691  0.00  0.00    -0.265 OA
ATOM     21  N   UNL     1      -5.691  -9.776  -1.717  0.00  0.00    -0.297 N 
ATOM     22  H   UNL     1      -6.617  -9.686  -1.442  0.00  0.00    +0.150 HD
BRANCH  21  23
ATOM     23  C   UNL     1      -5.277 -10.919  -2.534  0.00  0.00    +0.156 C 
ATOM     24  C   UNL     1      -5.295 -10.524  -4.012  0.00  0.00    +0.038 C 
BRANCH  23  25
ATOM     25  C   UNL     1      -6.226 -12.068  -2.308  0.00  0.00    +0.233 C 
ATOM     26  O   UNL     1      -7.157 -11.944  -1.542  0.00  0.00    -0.274 OA
ATOM     27  N   UNL     1      -6.040 -13.233  -2.959  0.00  0.00    -0.314 N 
ATOM     28  H   UNL     1      -5.295 -13.333  -3.573  0.00  0.00    +0.149 HD
BRANCH  27  29
ATOM     29  C   UNL     1      -6.962 -14.350  -2.740  0.00  0.00    +0.101 C 
ATOM     30  C   UNL     1      -6.529 -15.544  -3.593  0.00  0.00    +0.024 C 
ENDBRANCH  27  29
ENDBRANCH  23  25
ENDBRANCH  21  23
ENDBRANCH   2  19
TORSDOF 8
