REMARK  Name = ZINC29369610
REMARK  9 active torsions:
REMARK  status: ('A' for Active; 'I' for Inactive)
REMARK    1  A    between atoms: C_1  and  C_2
REMARK    2  A    between atoms: C_4  and  N_24
REMARK    3  A    between atoms: C_7  and  N_8
REMARK    4  A    between atoms: C_9  and  C_11
REMARK    5  A    between atoms: C_11  and  C_12
REMARK    6  A    between atoms: C_12  and  N_13
REMARK    7  A    between atoms: N_13  and  S_14
REMARK    8  A    between atoms: S_14  and  C_17
REMARK    9  A    between atoms: N_27  and  C_30
REMARK                            x       y       z     vdW  Elec       q    Type
REMARK                         _______ _______ _______ _____ _____    ______ ____
ROOT
ATOM      1  N   UNL     1      -3.228   5.069  -5.797  0.00  0.00    -0.285 N 
ATOM      2  C   UNL     1      -4.097   4.306  -6.489  0.00  0.00    +0.218 C 
ATOM      3  O   UNL     1      -4.421   3.218  -6.062  0.00  0.00    -0.275 OA
ATOM      4  H   UNL     1      -3.003   6.091  -6.135  0.00  0.00    +0.155 HD
ENDROOT
BRANCH   1  11
ATOM      5  C   UNL     1      -2.314   6.915  -3.836  0.00  0.00    +0.046 C 
ATOM      6  C   UNL     1      -2.149   5.427  -3.665  0.00  0.00    -0.028 A 
ATOM      7  C   UNL     1      -1.541   4.926  -2.531  0.00  0.00    +0.028 A 
ATOM      8  C   UNL     1      -1.389   3.554  -2.373  0.00  0.00    +0.030 A 
ATOM      9  C   UNL     1      -1.845   2.687  -3.358  0.00  0.00    +0.025 A 
ATOM     10  C   UNL     1      -2.459   3.189  -4.489  0.00  0.00    +0.025 A 
ATOM     11  C   UNL     1      -2.610   4.560  -4.647  0.00  0.00    +0.036 A 
BRANCH   8  12
ATOM     12  N   UNL     1      -0.773   3.046  -1.225  0.00  0.00    -0.333 N 
ATOM     13  C   UNL     1      -0.717   1.578  -1.263  0.00  0.00    +0.086 C 
ATOM     14  C   UNL     1       0.033   1.067  -0.030  0.00  0.00    -0.060 C 
ATOM     15  N   UNL     1      -0.650   1.534   1.184  0.00  0.00    +0.380 N 
ATOM     16  C   UNL     1      -0.706   3.002   1.222  0.00  0.00    -0.060 C 
ATOM     17  C   UNL     1      -1.456   3.513  -0.010  0.00  0.00    +0.086 C 
ATOM     18  C   UNL     1      -0.002   1.000   2.390  0.00  0.00    -0.096 C 
ATOM     19  H   UNL     1      -1.682   1.155   1.161  0.00  0.00    -0.082 HD
ENDBRANCH   8  12
ENDBRANCH   1  11
BRANCH   2  20
ATOM     20  C   UNL     1      -4.666   4.805  -7.792  0.00  0.00    +0.113 C 
BRANCH  20  21
ATOM     21  C   UNL     1      -5.619   3.755  -8.367  0.00  0.00    +0.115 C 
BRANCH  21  22
ATOM     22  N   UNL     1      -6.172   4.240  -9.634  0.00  0.00    -0.189 NA
ATOM     23  H   UNL     1      -6.232   5.321  -9.831  0.00  0.00    +0.148 HD
BRANCH  22  24
ATOM     24  S   UNL     1      -6.932   3.188 -10.663  0.00  0.00    +0.058 S 
ATOM     25  O   UNL     1      -7.375   3.955 -11.774  0.00  0.00    -0.153 OA
ATOM     26  O   UNL     1      -6.071   2.067 -10.806  0.00  0.00    -0.153 OA
BRANCH  24  27
ATOM     27  C   UNL     1      -8.379   2.610  -9.841  0.00  0.00    +0.105 A 
ATOM     28  C   UNL     1      -8.321   1.472  -9.058  0.00  0.00    +0.029 A 
ATOM     29  C   UNL     1      -9.455   1.021  -8.409  0.00  0.00    +0.017 A 
ATOM     30  C   UNL     1     -10.651   1.702  -8.552  0.00  0.00    +0.018 A 
ATOM     31  C   UNL     1     -10.709   2.837  -9.340  0.00  0.00    +0.017 A 
ATOM     32  C   UNL     1      -9.574   3.291  -9.984  0.00  0.00    +0.029 A 
ATOM     33 BR   UNL     1     -12.204   1.081  -7.670  0.00  0.00    -0.050 Br
ENDBRANCH  24  27
ENDBRANCH  22  24
ENDBRANCH  21  22
ENDBRANCH  20  21
ENDBRANCH   2  20
TORSDOF 7
