REMARK  Name = ZINC13630340
REMARK  7 active torsions:
REMARK  status: ('A' for Active; 'I' for Inactive)
REMARK    1  A    between atoms: C_3  and  C_6
REMARK    2  A    between atoms: C_6  and  N_7
REMARK    3  A    between atoms: C_9  and  C_14
REMARK    4  A    between atoms: N_16  and  N_17
REMARK    5  A    between atoms: C_18  and  C_19
REMARK    6  A    between atoms: C_22  and  O_26
REMARK    7  A    between atoms: C_24  and  O_25
REMARK                            x       y       z     vdW  Elec       q    Type
REMARK                         _______ _______ _______ _____ _____    ______ ____
ROOT
ATOM      1  C   UNL     1       7.580   4.445   2.225  0.00  0.00    +0.237 C 
ATOM      2  O   UNL     1       7.043   4.186   3.281  0.00  0.00    -0.274 OA
ATOM      3  N   UNL     1       6.954   4.167   1.064  0.00  0.00    -0.207 N 
ATOM      4  H   UNL     1       7.384   4.374   0.220  0.00  0.00    +0.177 HD
ENDROOT
BRANCH   1   7
ATOM      5  N   UNL     1      10.971   4.911   3.488  0.00  0.00    -0.293 N 
ATOM      6  C   UNL     1       9.533   5.161   3.638  0.00  0.00    +0.121 C 
ATOM      7  C   UNL     1       8.948   5.076   2.211  0.00  0.00    +0.103 C 
ATOM      8  C   UNL     1       9.974   4.160   1.504  0.00  0.00    +0.110 C 
ATOM      9  C   UNL     1      11.247   4.344   2.301  0.00  0.00    +0.217 C 
ATOM     10  O   UNL     1      12.355   4.025   1.923  0.00  0.00    -0.276 OA
BRANCH   5  11
ATOM     11  C   UNL     1      11.978   5.238   4.501  0.00  0.00    +0.182 C 
BRANCH  11  14
ATOM     12  C   UNL     1      12.747   8.838   4.324  0.00  0.00    +0.041 A 
ATOM     13  C   UNL     1      11.964   7.761   4.798  0.00  0.00    +0.046 A 
ATOM     14  C   UNL     1      12.485   6.638   4.271  0.00  0.00    +0.122 A 
ATOM     15  O   UNL     1      13.532   6.978   3.501  0.00  0.00    -0.466 OA
ATOM     16  C   UNL     1      13.695   8.310   3.529  0.00  0.00    +0.195 A 
ENDBRANCH  11  14
ENDBRANCH   5  11
ENDBRANCH   1   7
BRANCH   3  17
ATOM     17  N   UNL     1       5.682   3.580   1.077  0.00  0.00    -0.188 NA
ATOM     18  C   UNL     1       5.079   3.312  -0.041  0.00  0.00    +0.142 C 
BRANCH  18  19
ATOM     19  C   UNL     1       3.742   2.695  -0.027  0.00  0.00    +0.036 A 
ATOM     20  C   UNL     1       3.090   2.406  -1.229  0.00  0.00    +0.016 A 
ATOM     21  C   UNL     1       1.839   1.829  -1.211  0.00  0.00    +0.046 A 
ATOM     22  C   UNL     1       1.222   1.532  -0.001  0.00  0.00    +0.120 A 
ATOM     23  C   UNL     1       1.859   1.820   1.197  0.00  0.00    +0.091 A 
ATOM     24  C   UNL     1       3.117   2.395   1.193  0.00  0.00    +0.129 A 
BRANCH  24  25
ATOM     25  O   UNL     1       3.744   2.673   2.365  0.00  0.00    -0.506 OA
ATOM     26  H   UNL     1       3.555   3.555   2.712  0.00  0.00    +0.292 HD
ENDBRANCH  24  25
BRANCH  22  27
ATOM     27  O   UNL     1      -0.011   0.963   0.007  0.00  0.00    -0.507 OA
ATOM     28  H   UNL     1       0.002  -0.004   0.002  0.00  0.00    +0.292 HD
ENDBRANCH  22  27
ENDBRANCH  18  19
ENDBRANCH   3  17
TORSDOF 7
