REMARK  Name = ZINC65369943
REMARK  5 active torsions:
REMARK  status: ('A' for Active; 'I' for Inactive)
REMARK    1  A    between atoms: C_1  and  C_2
REMARK    2  A    between atoms: C_2  and  C_4
REMARK    3  A    between atoms: C_2  and  O_21
REMARK    4  A    between atoms: C_8  and  C_10
REMARK    5  A    between atoms: O_21  and  C_22
REMARK                            x       y       z     vdW  Elec       q    Type
REMARK                         _______ _______ _______ _____ _____    ______ ____
ROOT
ATOM      1  C   UNL     1      -3.972  -1.709   2.494  0.00  0.00    +0.057 C 
ATOM      2  N   UNL     1      -3.374  -1.598   3.687  0.00  0.00    -0.329 N 
ATOM      3  C   UNL     1      -4.017  -1.937   4.816  0.00  0.00    +0.166 C 
ATOM      4  N   UNL     1      -5.103  -2.658   4.909  0.00  0.00    -0.333 N 
ATOM      5  C   UNL     1      -5.695  -3.224   3.697  0.00  0.00    +0.257 C 
ATOM      6  C   UNL     1      -5.340  -2.221   2.590  0.00  0.00    +0.042 C 
ATOM      7  C   UNL     1      -6.484  -2.020   1.948  0.00  0.00    +0.144 C 
ATOM      8  N   UNL     1      -7.508  -2.548   2.664  0.00  0.00    -0.160 NA
ATOM      9  N   UNL     1      -7.154  -3.225   3.673  0.00  0.00    -0.158 NA
ATOM     10  N   UNL     1      -3.474  -1.478   6.000  0.00  0.00    -0.331 N 
ATOM     11  H   UNL     1      -2.668  -0.939   5.987  0.00  0.00    +0.145 HD
ATOM     12  H   UNL     1      -3.900  -1.694   6.844  0.00  0.00    +0.145 HD
ATOM     13  H   UNL     1      -5.513  -2.816   5.774  0.00  0.00    +0.165 HD
ATOM     14  H   UNL     1      -2.463  -1.269   3.737  0.00  0.00    +0.169 HD
ENDROOT
BRANCH   1  19
ATOM     15  C   UNL     1      -1.412  -0.526   0.013  0.00  0.00    -0.019 A 
ATOM     16  C   UNL     1      -2.105  -0.665  -1.177  0.00  0.00    +0.006 A 
ATOM     17  C   UNL     1      -3.404  -1.144  -1.176  0.00  0.00    +0.001 A 
ATOM     18  C   UNL     1      -4.016  -1.484   0.012  0.00  0.00    +0.010 A 
ATOM     19  C   UNL     1      -3.322  -1.346   1.216  0.00  0.00    -0.001 A 
ATOM     20  C   UNL     1      -2.010  -0.868   1.207  0.00  0.00    +0.016 A 
BRANCH  15  22
ATOM     21  C   UNL     1      -0.019   1.526   0.010  0.00  0.00    +0.043 C 
ATOM     22  C   UNL     1       0.002  -0.004   0.002  0.00  0.00    +0.145 C 
BRANCH  22  23
ATOM     23  O   UNL     1       0.671  -0.465  -1.174  0.00  0.00    -0.375 OA
ATOM     24  C   UNL     1       2.080  -0.640  -1.010  0.00  0.00    +0.194 C 
ENDBRANCH  22  23
ENDBRANCH  15  22
ENDBRANCH   1  19
TORSDOF 3
