REMARK  Name = ZINC20915705
REMARK  12 active torsions:
REMARK  status: ('A' for Active; 'I' for Inactive)
REMARK    1  A    between atoms: C_1  and  C_2
REMARK    2  A    between atoms: C_2  and  C_31
REMARK    3  A    between atoms: C_4  and  N_10
REMARK    4  A    between atoms: C_6  and  C_8
REMARK    5  A    between atoms: C_6  and  C_9
REMARK    6  A    between atoms: C_11  and  C_13
REMARK    7  A    between atoms: C_13  and  S_14
REMARK    8  A    between atoms: S_14  and  C_15
REMARK    9  A    between atoms: N_19  and  N_20
REMARK   10  A    between atoms: N_21  and  N_22
REMARK   11  A    between atoms: C_23  and  C_24
REMARK   12  A    between atoms: C_28  and  O_30
REMARK                            x       y       z     vdW  Elec       q    Type
REMARK                         _______ _______ _______ _____ _____    ______ ____
ROOT
ATOM      1  C   UNL     1      -3.953   9.647   0.089  0.00  0.00    +0.210 A 
ATOM      2  N   UNL     1      -4.590   8.500   0.090  0.00  0.00    -0.119 NA
ATOM      3  N   UNL     1      -3.636   7.475   0.070  0.00  0.00    -0.109 NA
ATOM      4  C   UNL     1      -2.447   8.028   0.066  0.00  0.00    +0.254 A 
ATOM      5  N   UNL     1      -2.612   9.385   0.074  0.00  0.00    -0.211 N 
ATOM      6  N   UNL     1      -1.234   7.354   0.051  0.00  0.00    -0.204 N 
ATOM      7  H   UNL     1      -0.291   7.920   0.044  0.00  0.00    +0.177 HD
ENDROOT
BRANCH   5   8
ATOM      8  N   UNL     1      -1.613  10.316   0.069  0.00  0.00    -0.294 N 
ATOM      9  H   UNL     1      -0.561   9.993   0.057  0.00  0.00    +0.163 HD
ATOM     10  H   UNL     1      -1.859  11.388   0.077  0.00  0.00    +0.163 HD
ENDBRANCH   5   8
BRANCH   6  11
ATOM     11  N   UNL     1      -1.211   5.953   0.044  0.00  0.00    -0.188 NA
ATOM     12  C   UNL     1      -0.076   5.323   0.030  0.00  0.00    +0.138 C 
BRANCH  12  13
ATOM     13  C   UNL     1      -0.051   3.849   0.023  0.00  0.00    -0.002 A 
ATOM     14  C   UNL     1      -1.248   3.127   0.031  0.00  0.00    +0.010 A 
ATOM     15  C   UNL     1      -1.221   1.748   0.017  0.00  0.00    +0.004 A 
ATOM     16  C   UNL     1      -0.013   1.076   0.008  0.00  0.00    +0.045 A 
ATOM     17  C   UNL     1       1.182   1.784   0.000  0.00  0.00    +0.117 A 
ATOM     18  C   UNL     1       1.167   3.168   0.007  0.00  0.00    +0.054 A 
BRANCH  17  19
ATOM     19  O   UNL     1       2.366   1.117  -0.015  0.00  0.00    -0.507 OA
ATOM     20  H   UNL     1       3.313   1.677  -0.021  0.00  0.00    +0.292 HD
ENDBRANCH  17  19
ENDBRANCH  12  13
ENDBRANCH   6  11
BRANCH   1  21
ATOM     21  S   UNL     1      -4.696  11.245   0.104  0.00  0.00    -0.075 S 
BRANCH  21  22
ATOM     22  C   UNL     1      -6.477  10.900   0.120  0.00  0.00    +0.173 C 
BRANCH  22  24
ATOM     23  N   UNL     1      -8.587  12.190   0.147  0.00  0.00    -0.312 N 
ATOM     24  C   UNL     1      -7.239  12.200   0.134  0.00  0.00    +0.224 C 
ATOM     25  O   UNL     1      -6.641  13.255   0.134  0.00  0.00    -0.275 OA
ATOM     26  H   UNL     1      -9.130  11.234   0.148  0.00  0.00    +0.149 HD
BRANCH  23  30
ATOM     27  C   UNL     1     -11.019  15.464  -1.518  0.00  0.00    -0.010 C 
ATOM     28  C   UNL     1     -11.524  14.528  -0.414  0.00  0.00    -0.072 C 
ATOM     29  C   UNL     1     -10.719  13.232  -0.436  0.00  0.00    +0.009 C 
ATOM     30  C   UNL     1      -9.330  13.457   0.161  0.00  0.00    +0.070 C 
ATOM     31  C   UNL     1      -9.494  13.929   1.605  0.00  0.00    +0.009 C 
ATOM     32  C   UNL     1     -10.282  15.235   1.651  0.00  0.00    -0.072 C 
ATOM     33  N   UNL     1     -11.505  15.184   0.877  0.00  0.00    +0.386 N 
ATOM     34  C   UNL     1      -9.385  16.392   1.195  0.00  0.00    -0.010 C 
ATOM     35  C   UNL     1     -10.656  15.501   3.127  0.00  0.00    -0.010 C 
ATOM     36  C   UNL     1     -12.989  14.172  -0.752  0.00  0.00    -0.010 C 
ATOM     37  H   UNL     1     -11.783  16.241   0.755  0.00  0.00    -0.084 HD
ATOM     38  H   UNL     1     -12.222  14.691   1.550  0.00  0.00    -0.084 HD
ENDBRANCH  23  30
ENDBRANCH  22  24
ENDBRANCH  21  22
ENDBRANCH   1  21
TORSDOF 8
