REMARK  Name = ZINC12147354
REMARK  4 active torsions:
REMARK  status: ('A' for Active; 'I' for Inactive)
REMARK    1  A    between atoms: C_1  and  C_2
REMARK    2  A    between atoms: C_10  and  C_12
REMARK    3  A    between atoms: N_14  and  C_15
REMARK    4  A    between atoms: C_15  and  C_16
REMARK                            x       y       z     vdW  Elec       q    Type
REMARK                         _______ _______ _______ _____ _____    ______ ____
ROOT
ATOM      1  C   UNL     1      -2.317   0.305   5.625  0.00  0.00    +0.280 C 
ATOM      2  O   UNL     1      -2.377   1.352   6.240  0.00  0.00    -0.267 OA
ATOM      3  N   UNL     1      -2.574   0.285   4.303  0.00  0.00    -0.303 N 
ATOM      4  H   UNL     1      -2.526  -0.551   3.812  0.00  0.00    +0.149 HD
ENDROOT
BRANCH   1  14
ATOM      5  C   UNL     1      -0.464  -5.208  10.227  0.00  0.00    +0.044 C 
ATOM      6  C   UNL     1      -0.840  -4.437   8.988  0.00  0.00    -0.048 A 
ATOM      7  C   UNL     1      -0.963  -5.102   7.774  0.00  0.00    +0.005 A 
ATOM      8  C   UNL     1      -1.303  -4.425   6.639  0.00  0.00    +0.030 A 
ATOM      9  C   UNL     1      -1.531  -3.043   6.693  0.00  0.00    +0.090 A 
ATOM     10  C   UNL     1      -1.405  -2.369   7.924  0.00  0.00    +0.067 A 
ATOM     11  C   UNL     1      -1.058  -3.080   9.067  0.00  0.00    +0.031 A 
ATOM     12  N   UNL     1      -1.683  -1.047   7.667  0.00  0.00    -0.334 N 
ATOM     13  H   UNL     1      -1.681  -0.299   8.332  0.00  0.00    +0.168 HD
ATOM     14  C   UNL     1      -1.963  -0.947   6.330  0.00  0.00    +0.195 A 
ATOM     15  N   UNL     1      -1.876  -2.127   5.770  0.00  0.00    -0.224 NA
ENDBRANCH   1  14
BRANCH   3  16
ATOM     16  C   UNL     1      -2.924   1.524   3.605  0.00  0.00    +0.162 C 
BRANCH  16  17
ATOM     17  C   UNL     1      -3.161   1.230   2.146  0.00  0.00    +0.083 A 
ATOM     18  C   UNL     1      -2.198   1.259   1.139  0.00  0.00    -0.002 A 
ATOM     19  C   UNL     1      -2.806   0.939  -0.031  0.00  0.00    +0.040 A 
ATOM     20  N   UNL     1      -4.105   0.714   0.227  0.00  0.00    -0.281 N 
ATOM     21  H   UNL     1      -4.803   0.457  -0.441  0.00  0.00    +0.189 HD
ATOM     22  N   UNL     1      -4.308   0.903   1.603  0.00  0.00    -0.177 NA
ATOM     23  C   UNL     1      -2.097   0.865  -1.360  0.00  0.00    +0.055 C 
ATOM     24  C   UNL     1      -0.753   1.593  -1.233  0.00  0.00    +0.006 C 
ATOM     25  C   UNL     1      -0.013   1.086   0.008  0.00  0.00    +0.005 C 
ATOM     26  C   UNL     1      -0.730   1.580   1.270  0.00  0.00    +0.039 C 
ENDBRANCH  16  17
ENDBRANCH   3  16
TORSDOF 3
