REMARK  Name = ZINC42398714
REMARK  9 active torsions:
REMARK  status: ('A' for Active; 'I' for Inactive)
REMARK    1  A    between atoms: C_1  and  N_2
REMARK    2  A    between atoms: N_2  and  C_3
REMARK    3  A    between atoms: N_2  and  C_10
REMARK    4  A    between atoms: C_3  and  C_4
REMARK    5  A    between atoms: C_10  and  C_12
REMARK    6  A    between atoms: C_10  and  C_14
REMARK    7  A    between atoms: C_12  and  N_13
REMARK    8  A    between atoms: C_17  and  S_20
REMARK    9  A    between atoms: S_20  and  C_21
REMARK                            x       y       z     vdW  Elec       q    Type
REMARK                         _______ _______ _______ _____ _____    ______ ____
ROOT
ATOM      1  C   UNL     1      -1.391  -0.491   0.221  0.00  0.00    +0.069 C 
ENDROOT
BRANCH   1   2
ATOM      2  C   UNL     1      -2.123  -0.113  -1.041  0.00  0.00    -0.032 A 
ATOM      3  C   UNL     1      -1.481  -0.198  -2.263  0.00  0.00    +0.006 A 
ATOM      4  C   UNL     1      -2.148   0.148  -3.421  0.00  0.00    +0.015 A 
ATOM      5  C   UNL     1      -3.468   0.581  -3.358  0.00  0.00    +0.008 A 
ATOM      6  C   UNL     1      -4.110   0.664  -2.128  0.00  0.00    +0.015 A 
ATOM      7  C   UNL     1      -3.438   0.311  -0.975  0.00  0.00    +0.006 A 
BRANCH   5   8
ATOM      8  S   UNL     1      -4.323   1.024  -4.833  0.00  0.00    -0.129 S 
ATOM      9  C   UNL     1      -5.972   1.511  -4.255  0.00  0.00    +0.090 C 
ENDBRANCH   5   8
ENDBRANCH   1   2
BRANCH   1  11
ATOM     10  C   UNL     1       0.018   1.452  -0.093  0.00  0.00    +0.105 C 
ATOM     11  N   UNL     1      -0.010   0.004   0.153  0.00  0.00    -0.296 NA
BRANCH  11  12
ATOM     12  C   UNL     1       0.733  -0.337   1.374  0.00  0.00    +0.127 C 
BRANCH  12  13
ATOM     13  C   UNL     1       2.191  -0.011   1.182  0.00  0.00    +0.005 A 
ATOM     14  C   UNL     1       2.851   1.142   1.451  0.00  0.00    +0.027 A 
ATOM     15  C   UNL     1       4.207   1.215   1.191  0.00  0.00    +0.025 A 
ATOM     16  C   UNL     1       4.837   0.131   0.674  0.00  0.00    +0.060 A 
ATOM     17  S   UNL     1       3.500  -1.046   0.547  0.00  0.00    -0.099 S 
ATOM     18 BR   UNL     1       5.170   2.802   1.550  0.00  0.00    -0.050 Br
ENDBRANCH  12  13
ENDBRANCH  11  12
ENDBRANCH   1  11
BRANCH   1  19
ATOM     19  C   UNL     1      -1.380  -2.014   0.368  0.00  0.00    -0.063 C 
BRANCH  19  20
ATOM     20  N   UNL     1      -2.756  -2.499   0.542  0.00  0.00    +0.379 N 
ATOM     21  H   UNL     1      -3.138  -2.127   1.399  0.00  0.00    -0.090 HD
ATOM     22  H   UNL     1      -3.320  -2.197  -0.237  0.00  0.00    -0.090 HD
ATOM     23  H   UNL     1      -2.754  -3.507   0.586  0.00  0.00    -0.090 HD
ENDBRANCH  19  20
ENDBRANCH   1  19
TORSDOF 7
