REMARK  Name = ZINC35051126
REMARK  8 active torsions:
REMARK  status: ('A' for Active; 'I' for Inactive)
REMARK    1  A    between atoms: C_4  and  C_7
REMARK    2  A    between atoms: C_7  and  C_8
REMARK    3  A    between atoms: C_8  and  C_10
REMARK    4  A    between atoms: C_8  and  N_28
REMARK    5  A    between atoms: C_17  and  C_24
REMARK    6  A    between atoms: C_19  and  O_20
REMARK    7  A    between atoms: C_29  and  C_31
REMARK    8  A    between atoms: C_31  and  N_32
REMARK                            x       y       z     vdW  Elec       q    Type
REMARK                         _______ _______ _______ _____ _____    ______ ____
ROOT
ATOM      1  C   UNL     1       5.140  -2.429   2.419  0.00  0.00    +0.238 C 
ATOM      2  O   UNL     1       6.184  -1.810   2.523  0.00  0.00    -0.273 OA
ATOM      3  N   UNL     1       5.142  -3.645   1.908  0.00  0.00    -0.284 N 
ATOM      4  C   UNL     1       6.322  -4.260   1.621  0.00  0.00    +0.037 A 
ATOM      5  C   UNL     1       6.339  -5.377   0.768  0.00  0.00    +0.024 A 
ATOM      6  C   UNL     1       7.511  -6.000   0.473  0.00  0.00    +0.014 A 
ATOM      7  C   UNL     1       8.715  -5.526   1.024  0.00  0.00    +0.029 A 
ATOM      8  C   UNL     1       9.941  -6.158   0.730  0.00  0.00    +0.072 A 
ATOM      9  C   UNL     1      11.095  -5.653   1.295  0.00  0.00    +0.100 A 
ATOM     10  C   UNL     1      11.030  -4.548   2.132  0.00  0.00    +0.285 A 
ATOM     11  O   UNL     1       9.865  -3.952   2.408  0.00  0.00    -0.425 OA
ATOM     12  C   UNL     1       8.707  -4.404   1.882  0.00  0.00    +0.141 A 
ATOM     13  C   UNL     1       7.510  -3.774   2.171  0.00  0.00    +0.070 A 
ATOM     14  H   UNL     1       4.304  -4.100   1.736  0.00  0.00    +0.155 HD
ENDROOT
BRANCH   8  15
ATOM     15  C   UNL     1       9.991  -7.358  -0.181  0.00  0.00    +0.418 C 
ATOM     16  F   UNL     1       9.843  -6.942  -1.508  0.00  0.00    -0.166 F 
ATOM     17  F   UNL     1      11.221  -8.007  -0.030  0.00  0.00    -0.166 F 
ATOM     18  F   UNL     1       8.955  -8.238   0.150  0.00  0.00    -0.166 F 
ENDBRANCH   8  15
BRANCH  10  19
ATOM     19  O   UNL     1      12.163  -4.065   2.677  0.00  0.00    -0.480 OA
ATOM     20  H   UNL     1      12.028  -3.295   3.246  0.00  0.00    +0.295 HD
ENDBRANCH  10  19
BRANCH   1  21
ATOM     21  C   UNL     1       3.845  -1.806   2.874  0.00  0.00    +0.163 C 
BRANCH  21  22
ATOM     22  N   UNL     1       4.131  -0.714   3.808  0.00  0.00    -0.305 N 
ATOM     23  C   UNL     1       4.875   0.337   3.409  0.00  0.00    +0.196 C 
ATOM     24  O   UNL     1       5.309   0.378   2.277  0.00  0.00    -0.278 OA
ATOM     25  H   UNL     1       3.784  -0.746   4.713  0.00  0.00    +0.149 HD
BRANCH  23  26
ATOM     26  C   UNL     1       5.169   1.460   4.369  0.00  0.00    +0.011 C 
BRANCH  26  27
ATOM     27  N   UNL     1       5.992   2.475   3.698  0.00  0.00    +0.384 N 
ATOM     28  H   UNL     1       6.188   3.228   4.341  0.00  0.00    -0.089 HD
ATOM     29  H   UNL     1       6.858   2.058   3.393  0.00  0.00    -0.089 HD
ATOM     30  H   UNL     1       5.494   2.838   2.899  0.00  0.00    -0.089 HD
ENDBRANCH  26  27
ENDBRANCH  23  26
ENDBRANCH  21  22
BRANCH  21  31
ATOM     31  C   UNL     1       3.090  -1.257   1.662  0.00  0.00    +0.067 C 
BRANCH  31  35
ATOM     32  C   UNL     1      -0.731   0.197   2.902  0.00  0.00    +0.000 A 
ATOM     33  C   UNL     1       0.362   1.043   2.897  0.00  0.00    +0.000 A 
ATOM     34  C   UNL     1       1.599   0.573   2.496  0.00  0.00    +0.004 A 
ATOM     35  C   UNL     1       1.742  -0.744   2.100  0.00  0.00    -0.045 A 
ATOM     36  C   UNL     1       0.649  -1.591   2.106  0.00  0.00    +0.004 A 
ATOM     37  C   UNL     1      -0.587  -1.120   2.506  0.00  0.00    +0.000 A 
ENDBRANCH  31  35
ENDBRANCH  21  31
ENDBRANCH   1  21
TORSDOF 8
