REMARK  Name = ZINC37622959
REMARK  4 active torsions:
REMARK  status: ('A' for Active; 'I' for Inactive)
REMARK    1  A    between atoms: C_3  and  N_12
REMARK    2  A    between atoms: C_4  and  C_8
REMARK    3  A    between atoms: C_13  and  C_15
REMARK    4  A    between atoms: C_18  and  N_21
REMARK                            x       y       z     vdW  Elec       q    Type
REMARK                         _______ _______ _______ _____ _____    ______ ____
ROOT
ATOM      1  N   UNL     1       3.584   2.125  -0.021  0.00  0.00    -0.285 N 
ATOM      2  C   UNL     1       3.569   3.469  -0.116  0.00  0.00    +0.220 C 
ATOM      3  O   UNL     1       2.513   4.066  -0.103  0.00  0.00    -0.275 OA
ATOM      4  H   UNL     1       4.430   1.652   0.034  0.00  0.00    +0.155 HD
ENDROOT
BRANCH   1   7
ATOM      5  C   UNL     1       0.075   1.243   0.633  0.00  0.00    +0.022 A 
ATOM      6  C   UNL     1       1.261   1.950   0.617  0.00  0.00    +0.025 A 
ATOM      7  C   UNL     1       2.381   1.410  -0.003  0.00  0.00    +0.045 A 
ATOM      8  C   UNL     1       2.304   0.161  -0.604  0.00  0.00    +0.077 A 
ATOM      9  C   UNL     1       1.115  -0.542  -0.585  0.00  0.00    +0.034 A 
ATOM     10  C   UNL     1       0.001  -0.002   0.034  0.00  0.00    +0.042 A 
ATOM     11 CL   UNL     1      -1.492  -0.887   0.057  0.00  0.00    -0.084 Cl
BRANCH   8  12
ATOM     12  C   UNL     1       3.517  -0.428  -1.278  0.00  0.00    +0.419 C 
ATOM     13  F   UNL     1       3.194  -1.683  -1.805  0.00  0.00    -0.166 F 
ATOM     14  F   UNL     1       3.933   0.419  -2.310  0.00  0.00    -0.166 F 
ATOM     15  F   UNL     1       4.548  -0.566  -0.343  0.00  0.00    -0.166 F 
ENDBRANCH   8  12
ENDBRANCH   1   7
BRANCH   2  16
ATOM     16  C   UNL     1       4.863   4.231  -0.238  0.00  0.00    +0.075 C 
ATOM     17  C   UNL     1       5.734   3.957   0.990  0.00  0.00    +0.011 C 
ATOM     18  C   UNL     1       4.994   4.408   2.250  0.00  0.00    -0.016 C 
ATOM     19  C   UNL     1       4.697   5.906   2.159  0.00  0.00    -0.075 C 
ATOM     20  C   UNL     1       3.826   6.180   0.932  0.00  0.00    -0.016 C 
ATOM     21  C   UNL     1       4.566   5.729  -0.329  0.00  0.00    +0.011 C 
BRANCH  19  22
ATOM     22  N   UNL     1       3.987   6.339   3.370  0.00  0.00    +0.380 N 
ATOM     23  H   UNL     1       4.561   6.159   4.180  0.00  0.00    -0.090 HD
ATOM     24  H   UNL     1       3.791   7.327   3.310  0.00  0.00    -0.090 HD
ATOM     25  H   UNL     1       3.120   5.829   3.452  0.00  0.00    -0.090 HD
ENDBRANCH  19  22
ENDBRANCH   2  16
TORSDOF 4
