REMARK  Name = ZINC38657963
REMARK  8 active torsions:
REMARK  status: ('A' for Active; 'I' for Inactive)
REMARK    1  A    between atoms: C_4  and  C_7
REMARK    2  A    between atoms: C_7  and  C_8
REMARK    3  A    between atoms: C_7  and  C_14
REMARK    4  A    between atoms: C_14  and  O_16
REMARK    5  A    between atoms: O_16  and  C_17
REMARK    6  A    between atoms: C_24  and  N_40
REMARK    7  A    between atoms: C_25  and  C_38
REMARK    8  A    between atoms: C_26  and  C_28
REMARK                            x       y       z     vdW  Elec       q    Type
REMARK                         _______ _______ _______ _____ _____    ______ ____
ROOT
ATOM      1  C   UNL     1       4.524  -3.460  -2.421  0.00  0.00    +0.135 A 
ATOM      2  C   UNL     1       3.332  -3.435  -3.131  0.00  0.00    +0.047 A 
ATOM      3  C   UNL     1       3.160  -4.268  -4.219  0.00  0.00    +0.012 A 
ATOM      4  C   UNL     1       4.172  -5.130  -4.604  0.00  0.00    +0.008 A 
ATOM      5  C   UNL     1       5.364  -5.159  -3.898  0.00  0.00    +0.138 A 
ATOM      6  C   UNL     1       5.541  -4.317  -2.808  0.00  0.00    +0.093 A 
ATOM      7  O   UNL     1       6.367  -5.996  -4.260  0.00  0.00    -0.441 OA
ATOM      8  C   UNL     1       6.389  -6.519  -5.497  0.00  0.00    +0.199 C 
ATOM      9  C   UNL     1       5.283  -6.565  -6.276  0.00  0.00    +0.098 C 
ATOM     10  C   UNL     1       3.964  -6.031  -5.793  0.00  0.00    +0.098 C 
ENDROOT
BRANCH  10  11
ATOM     11  C   UNL     1       3.074  -7.181  -5.397  0.00  0.00    -0.027 A 
ATOM     12  C   UNL     1       3.398  -7.961  -4.330  0.00  0.00    +0.005 A 
ATOM     13  C   UNL     1       2.587  -9.029  -3.950  0.00  0.00    +0.001 A 
ATOM     14  C   UNL     1       1.448  -9.322  -4.635  0.00  0.00    +0.008 A 
ATOM     15  C   UNL     1       1.081  -8.539  -5.742  0.00  0.00    -0.018 A 
ATOM     16  C   UNL     1       1.902  -7.449  -6.125  0.00  0.00    -0.014 A 
ATOM     17  C   UNL     1       1.532  -6.662  -7.229  0.00  0.00    +0.009 A 
ATOM     18  C   UNL     1       0.390  -6.952  -7.910  0.00  0.00    +0.001 A 
ATOM     19  C   UNL     1      -0.421  -8.020  -7.529  0.00  0.00    +0.001 A 
ATOM     20  C   UNL     1      -0.088  -8.812  -6.474  0.00  0.00    +0.008 A 
ENDBRANCH  10  11
BRANCH   8  21
ATOM     21  N   UNL     1       7.569  -7.021  -5.987  0.00  0.00    -0.328 N 
ATOM     22  H   UNL     1       8.371  -6.995  -5.441  0.00  0.00    +0.145 HD
ATOM     23  H   UNL     1       7.602  -7.402  -6.878  0.00  0.00    +0.145 HD
ENDBRANCH   8  21
BRANCH   9  24
ATOM     24  C   UNL     1       5.371  -7.135  -7.588  0.00  0.00    +0.101 C 
ATOM     25  N   UNL     1       5.440  -7.586  -8.628  0.00  0.00    -0.191 NA
ENDBRANCH   9  24
BRANCH   1  26
ATOM     26  O   UNL     1       4.695  -2.640  -1.350  0.00  0.00    -0.425 OA
BRANCH  26  27
ATOM     27  C   UNL     1       4.075  -2.963  -0.203  0.00  0.00    +0.324 C 
ATOM     28  O   UNL     1       3.405  -3.967  -0.141  0.00  0.00    -0.249 OA
BRANCH  27  29
ATOM     29  C   UNL     1       4.214  -2.074   1.005  0.00  0.00    +0.158 C 
BRANCH  29  33
ATOM     30  C   UNL     1       1.981  -3.725   4.251  0.00  0.00    +0.000 A 
ATOM     31  C   UNL     1       1.731  -2.434   3.826  0.00  0.00    +0.000 A 
ATOM     32  C   UNL     1       2.453  -1.899   2.776  0.00  0.00    +0.005 A 
ATOM     33  C   UNL     1       3.427  -2.656   2.151  0.00  0.00    -0.029 A 
ATOM     34  C   UNL     1       3.677  -3.947   2.576  0.00  0.00    +0.005 A 
ATOM     35  C   UNL     1       2.954  -4.482   3.625  0.00  0.00    +0.000 A 
ENDBRANCH  29  33
BRANCH  29  36
ATOM     36  C   UNL     1       5.667  -1.977   1.393  0.00  0.00    -0.029 A 
ATOM     37  C   UNL     1       6.427  -3.124   1.520  0.00  0.00    +0.005 A 
ATOM     38  C   UNL     1       7.760  -3.035   1.875  0.00  0.00    +0.000 A 
ATOM     39  C   UNL     1       8.333  -1.798   2.103  0.00  0.00    +0.000 A 
ATOM     40  C   UNL     1       7.574  -0.650   1.974  0.00  0.00    +0.000 A 
ATOM     41  C   UNL     1       6.242  -0.739   1.615  0.00  0.00    +0.005 A 
ENDBRANCH  29  36
ENDBRANCH  27  29
ENDBRANCH  26  27
ENDBRANCH   1  26
TORSDOF 8
