REMARK  Name = ZINC22430852
REMARK  10 active torsions:
REMARK  status: ('A' for Active; 'I' for Inactive)
REMARK    1  A    between atoms: C_1  and  C_2
REMARK    2  A    between atoms: C_5  and  S_8
REMARK    3  A    between atoms: S_8  and  N_11
REMARK    4  A    between atoms: N_11  and  C_12
REMARK    5  A    between atoms: N_11  and  C_29
REMARK    6  A    between atoms: C_12  and  C_13
REMARK    7  A    between atoms: N_15  and  C_16
REMARK    8  A    between atoms: C_16  and  C_17
REMARK    9  A    between atoms: C_20  and  N_23
REMARK   10  A    between atoms: C_27  and  C_28
REMARK                            x       y       z     vdW  Elec       q    Type
REMARK                         _______ _______ _______ _____ _____    ______ ____
ROOT
ATOM      1  C   UNL     1       7.436   8.350  -2.335  0.00  0.00    +0.227 C 
ENDROOT
BRANCH   1   2
ATOM      2  C   UNL     1       6.023   8.053  -1.905  0.00  0.00    +0.232 C 
ATOM      3  O   UNL     1       5.364   8.910  -1.354  0.00  0.00    -0.274 OA
ATOM      4  N   UNL     1       5.491   6.836  -2.131  0.00  0.00    -0.310 N 
ATOM      5  H   UNL     1       6.088   6.059  -2.631  0.00  0.00    +0.149 HD
BRANCH   4   6
ATOM      6  C   UNL     1       4.117   6.547  -1.713  0.00  0.00    +0.139 C 
BRANCH   6   7
ATOM      7  C   UNL     1       3.767   5.128  -2.080  0.00  0.00    -0.030 A 
ATOM      8  C   UNL     1       4.010   4.104  -1.183  0.00  0.00    +0.007 A 
ATOM      9  C   UNL     1       3.691   2.802  -1.516  0.00  0.00    +0.026 A 
ATOM     10  C   UNL     1       3.125   2.522  -2.753  0.00  0.00    +0.048 A 
ATOM     11  C   UNL     1       2.887   3.552  -3.653  0.00  0.00    +0.026 A 
ATOM     12  C   UNL     1       3.204   4.853  -3.312  0.00  0.00    +0.007 A 
BRANCH  10  13
ATOM     13  N   UNL     1       2.800   1.202  -3.095  0.00  0.00    -0.305 N 
ATOM     14  C   UNL     1       3.621   0.108  -2.992  0.00  0.00    +0.110 A 
ATOM     15  C   UNL     1       2.913  -0.953  -3.424  0.00  0.00    +0.102 A 
ATOM     16  N   UNL     1       1.695  -0.524  -3.787  0.00  0.00    -0.350 N 
ATOM     17  C   UNL     1       1.613   0.764  -3.589  0.00  0.00    +0.088 A 
ATOM     18  C   UNL     1       0.406   1.622  -3.868  0.00  0.00    +0.084 C 
ATOM     19  H   UNL     1       0.955  -1.237  -4.179  0.00  0.00    +0.166 HD
ENDBRANCH  10  13
ENDBRANCH   6   7
ENDBRANCH   4   6
ENDBRANCH   1   2
BRANCH   1  20
ATOM     20  N   UNL     1       7.776   9.729  -1.978  0.00  0.00    -0.194 N 
BRANCH  20  21
ATOM     21  C   UNL     1       7.436  10.777  -2.838  0.00  0.00    +0.053 A 
ATOM     22  C   UNL     1       6.110  10.978  -3.200  0.00  0.00    +0.025 A 
ATOM     23  C   UNL     1       5.777  12.015  -4.050  0.00  0.00    +0.003 A 
ATOM     24  C   UNL     1       6.762  12.852  -4.540  0.00  0.00    +0.020 A 
ATOM     25  C   UNL     1       8.084  12.655  -4.182  0.00  0.00    +0.043 A 
ATOM     26  C   UNL     1       8.423  11.622  -3.328  0.00  0.00    +0.044 A 
ATOM     27 CL   UNL     1       9.317  13.709  -4.801  0.00  0.00    -0.083 Cl
ENDBRANCH  20  21
BRANCH  20  28
ATOM     28  S   UNL     1       8.562  10.047  -0.556  0.00  0.00    +0.075 S 
ATOM     29  O   UNL     1       8.376  11.431  -0.290  0.00  0.00    -0.150 OA
ATOM     30  O   UNL     1       8.169   9.035   0.360  0.00  0.00    -0.150 OA
BRANCH  28  35
ATOM     31  C   UNL     1      14.459   9.262  -1.563  0.00  0.00    +0.044 C 
ATOM     32  C   UNL     1      12.986   9.458  -1.311  0.00  0.00    -0.050 A 
ATOM     33  C   UNL     1      12.434  10.723  -1.393  0.00  0.00    +0.005 A 
ATOM     34  C   UNL     1      11.083  10.903  -1.162  0.00  0.00    +0.029 A 
ATOM     35  C   UNL     1      10.284   9.818  -0.851  0.00  0.00    +0.109 A 
ATOM     36  C   UNL     1      10.838   8.554  -0.765  0.00  0.00    +0.029 A 
ATOM     37  C   UNL     1      12.188   8.374  -1.000  0.00  0.00    +0.005 A 
ENDBRANCH  28  35
ENDBRANCH  20  28
ENDBRANCH   1  20
TORSDOF 8
