REMARK  Name = ZINC10751221
REMARK  8 active torsions:
REMARK  status: ('A' for Active; 'I' for Inactive)
REMARK    1  A    between atoms: C_1  and  C_2
REMARK    2  A    between atoms: C_2  and  C_3
REMARK    3  A    between atoms: C_3  and  N_60
REMARK    4  A    between atoms: C_9  and  N_14
REMARK    5  A    between atoms: C_10  and  C_11
REMARK    6  A    between atoms: C_15  and  C_17
REMARK    7  A    between atoms: N_22  and  S_24
REMARK    8  A    between atoms: S_24  and  C_27
REMARK                            x       y       z     vdW  Elec       q    Type
REMARK                         _______ _______ _______ _____ _____    ______ ____
ROOT
ATOM      1  C   UNL     1      -2.013  12.991   8.505  0.00  0.00    -0.074 C 
ATOM      2  C   UNL     1      -3.147  12.566   7.568  0.00  0.00    +0.018 C 
ATOM      3  C   UNL     1      -2.647  11.410   6.710  0.00  0.00    -0.027 A 
ATOM      4  C   UNL     1      -1.320  11.172   6.600  0.00  0.00    -0.021 A 
ATOM      5  S   UNL     1      -1.202   9.760   5.541  0.00  0.00    -0.079 S 
ATOM      6  C   UNL     1      -2.888   9.496   5.239  0.00  0.00    +0.084 A 
ATOM      7  C   UNL     1      -3.503  10.502   5.971  0.00  0.00    +0.068 A 
ATOM      8  C   UNL     1      -0.220  11.951   7.251  0.00  0.00    -0.035 C 
ATOM      9  N   UNL     1      -0.790  13.239   7.715  0.00  0.00    +0.383 N 
ATOM     10  H   UNL     1      -1.032  13.812   6.897  0.00  0.00    -0.081 HD
ENDROOT
BRANCH   7  11
ATOM     11  C   UNL     1      -4.963  10.642   5.997  0.00  0.00    +0.244 C 
ATOM     12  O   UNL     1      -5.615  10.062   6.845  0.00  0.00    -0.270 OA
ATOM     13  N   UNL     1      -5.582  11.412   5.081  0.00  0.00    -0.325 N 
ATOM     14  H   UNL     1      -5.062  11.874   4.404  0.00  0.00    +0.145 HD
ATOM     15  H   UNL     1      -6.548  11.504   5.098  0.00  0.00    +0.145 HD
ENDBRANCH   7  11
BRANCH   6  16
ATOM     16  N   UNL     1      -3.479   8.513   4.459  0.00  0.00    -0.279 N 
ATOM     17  C   UNL     1      -2.712   7.612   3.814  0.00  0.00    +0.222 C 
ATOM     18  O   UNL     1      -1.505   7.660   3.916  0.00  0.00    -0.275 OA
ATOM     19  H   UNL     1      -4.445   8.475   4.377  0.00  0.00    +0.155 HD
BRANCH  17  20
ATOM     20  C   UNL     1      -3.355   6.545   2.966  0.00  0.00    +0.091 C 
ATOM     21  C   UNL     1      -4.275   5.686   3.837  0.00  0.00    +0.015 C 
ATOM     22  C   UNL     1      -4.954   4.622   2.971  0.00  0.00    +0.018 C 
ATOM     23  C   UNL     1      -3.889   3.717   2.353  0.00  0.00    +0.109 C 
ATOM     24  N   UNL     1      -2.913   4.548   1.635  0.00  0.00    -0.175 NA
ATOM     25  C   UNL     1      -2.268   5.658   2.350  0.00  0.00    +0.122 C 
BRANCH  24  26
ATOM     26  S   UNL     1      -2.551   4.243   0.049  0.00  0.00    +0.067 S 
ATOM     27  O   UNL     1      -2.072   5.463  -0.500  0.00  0.00    -0.152 OA
ATOM     28  O   UNL     1      -3.664   3.547  -0.496  0.00  0.00    -0.152 OA
BRANCH  26  29
ATOM     29  C   UNL     1      -1.196   3.116   0.030  0.00  0.00    +0.143 A 
ATOM     30  C   UNL     1      -1.213   1.761   0.017  0.00  0.00    +0.036 A 
ATOM     31  C   UNL     1      -0.013   1.076   0.008  0.00  0.00    +0.010 A 
ATOM     32  C   UNL     1       1.146   1.780   0.001  0.00  0.00    +0.047 A 
ATOM     33  S   UNL     1       0.555   3.464   0.015  0.00  0.00    -0.077 S 
ENDBRANCH  26  29
ENDBRANCH  24  26
ENDBRANCH  17  20
ENDBRANCH   6  16
BRANCH   9  34
ATOM     34  C   UNL     1       0.203  13.966   8.534  0.00  0.00    -0.079 C 
BRANCH  34  36
ATOM     35  C   UNL     1       1.536  13.963  10.647  0.00  0.00    +0.002 C 
ATOM     36  C   UNL     1       0.508  13.191   9.817  0.00  0.00    -0.022 C 
ENDBRANCH  34  36
ENDBRANCH   9  34
TORSDOF 7
