REMARK  Name = ZINC20069545
REMARK  5 active torsions:
REMARK  status: ('A' for Active; 'I' for Inactive)
REMARK    1  A    between atoms: C_4  and  N_7
REMARK    2  A    between atoms: C_8  and  N_9
REMARK    3  A    between atoms: C_12  and  C_22
REMARK    4  A    between atoms: C_12  and  C_26
REMARK    5  A    between atoms: C_14  and  C_16
REMARK                            x       y       z     vdW  Elec       q    Type
REMARK                         _______ _______ _______ _____ _____    ______ ____
ROOT
ATOM      1  N   UNL     1       4.908  -2.694  -0.176  0.00  0.00    -0.165 NA
ATOM      2  C   UNL     1       4.966  -3.995  -0.369  0.00  0.00    +0.294 C 
ATOM      3  N   UNL     1       3.845  -4.747  -0.658  0.00  0.00    -0.260 N 
ATOM      4  C   UNL     1       3.958  -5.652  -1.815  0.00  0.00    +0.322 C 
ATOM      5  N   UNL     1       5.309  -6.213  -1.845  0.00  0.00    -0.206 NA
ATOM      6  C   UNL     1       6.278  -5.733  -1.141  0.00  0.00    +0.231 C 
ATOM      7  O   UNL     1       6.133  -4.687  -0.303  0.00  0.00    -0.408 OA
ATOM      8  H   UNL     1       3.032  -4.684  -0.132  0.00  0.00    +0.153 HD
ENDROOT
BRANCH   1  10
ATOM      9  N   UNL     1       3.518  -1.097   0.878  0.00  0.00    -0.326 N 
ATOM     10  C   UNL     1       3.711  -2.079  -0.073  0.00  0.00    +0.204 C 
ATOM     11  N   UNL     1       2.732  -2.414  -0.876  0.00  0.00    -0.369 N 
ATOM     12  H   UNL     1       2.885  -3.059  -1.584  0.00  0.00    +0.159 HD
ATOM     13  H   UNL     1       1.855  -2.017  -0.763  0.00  0.00    +0.159 HD
ATOM     14  H   UNL     1       2.641  -0.699   0.994  0.00  0.00    +0.169 HD
BRANCH   9  18
ATOM     15  C   UNL     1       6.702   0.157   3.253  0.00  0.00    +0.000 A 
ATOM     16  C   UNL     1       6.926  -0.217   1.941  0.00  0.00    +0.002 A 
ATOM     17  C   UNL     1       5.872  -0.633   1.151  0.00  0.00    +0.026 A 
ATOM     18  C   UNL     1       4.587  -0.676   1.676  0.00  0.00    +0.042 A 
ATOM     19  C   UNL     1       4.366  -0.301   2.995  0.00  0.00    +0.026 A 
ATOM     20  C   UNL     1       5.424   0.115   3.779  0.00  0.00    +0.002 A 
ENDBRANCH   9  18
ENDBRANCH   1  10
BRANCH   6  21
ATOM     21  C   UNL     1       7.614  -6.359  -1.263  0.00  0.00    +0.055 A 
ATOM     22  C   UNL     1       8.695  -5.878  -0.516  0.00  0.00    +0.016 A 
ATOM     23  C   UNL     1       9.923  -6.498  -0.666  0.00  0.00    +0.020 A 
ATOM     24  C   UNL     1      10.042  -7.562  -1.541  0.00  0.00    +0.111 A 
ATOM     25  N   UNL     1       9.005  -7.994  -2.233  0.00  0.00    -0.263 NA
ATOM     26  C   UNL     1       7.815  -7.440  -2.120  0.00  0.00    +0.123 A 
ENDBRANCH   6  21
BRANCH   4  27
ATOM     27  C   UNL     1       2.936  -6.783  -1.683  0.00  0.00    +0.440 C 
ATOM     28  F   UNL     1       1.646  -6.243  -1.639  0.00  0.00    -0.166 F 
ATOM     29  F   UNL     1       3.045  -7.641  -2.783  0.00  0.00    -0.166 F 
ATOM     30  F   UNL     1       3.182  -7.499  -0.507  0.00  0.00    -0.166 F 
ENDBRANCH   4  27
BRANCH   4  31
ATOM     31  C   UNL     1       3.698  -4.870  -3.105  0.00  0.00    +0.440 C 
ATOM     32  F   UNL     1       4.639  -3.843  -3.225  0.00  0.00    -0.166 F 
ATOM     33  F   UNL     1       3.806  -5.732  -4.202  0.00  0.00    -0.166 F 
ATOM     34  F   UNL     1       2.411  -4.322  -3.067  0.00  0.00    -0.166 F 
ENDBRANCH   4  31
TORSDOF 5
