REMARK  Name = ZINC64352041
REMARK  8 active torsions:
REMARK  status: ('A' for Active; 'I' for Inactive)
REMARK    1  A    between atoms: C_1  and  C_2
REMARK    2  A    between atoms: C_2  and  C_3
REMARK    3  A    between atoms: C_2  and  N_14
REMARK    4  A    between atoms: N_5  and  C_6
REMARK    5  A    between atoms: C_7  and  C_11
REMARK    6  A    between atoms: N_17  and  C_20
REMARK    7  A    between atoms: C_20  and  C_21
REMARK    8  A    between atoms: C_21  and  C_22
REMARK                            x       y       z     vdW  Elec       q    Type
REMARK                         _______ _______ _______ _____ _____    ______ ____
ROOT
ATOM      1  C   UNL     1      -0.019   1.526   0.010  0.00  0.00    +0.034 C 
ATOM      2  C   UNL     1       0.002  -0.004   0.002  0.00  0.00    +0.140 C 
ENDROOT
BRANCH   2   3
ATOM      3  N   UNL     1      -1.376  -0.512   0.012  0.00  0.00    -0.295 NA
ATOM      4  C   UNL     1      -2.128  -0.020  -1.150  0.00  0.00    +0.066 C 
ATOM      5  C   UNL     1      -3.536  -0.618  -1.134  0.00  0.00    -0.063 C 
ATOM      6  N   UNL     1      -4.217  -0.235   0.110  0.00  0.00    +0.382 N 
ATOM      7  C   UNL     1      -3.468  -0.755   1.261  0.00  0.00    -0.063 C 
ATOM      8  C   UNL     1      -2.059  -0.158   1.264  0.00  0.00    +0.066 C 
ATOM      9  H   UNL     1      -4.268   0.771   0.168  0.00  0.00    -0.082 HD
BRANCH   6  10
ATOM     10  C   UNL     1      -5.575  -0.795   0.117  0.00  0.00    -0.074 C 
BRANCH  10  11
ATOM     11  C   UNL     1      -6.327  -0.293   1.351  0.00  0.00    +0.024 C 
BRANCH  11  12
ATOM     12  C   UNL     1      -7.721  -0.868   1.358  0.00  0.00    -0.012 A 
ATOM     13  C   UNL     1      -8.166  -2.021   1.914  0.00  0.00    +0.011 A 
ATOM     14  C   UNL     1      -9.503  -2.350   1.795  0.00  0.00    +0.008 A 
ATOM     15  C   UNL     1     -10.330  -1.510   1.126  0.00  0.00    +0.045 A 
ATOM     16  S   UNL     1      -9.215  -0.202   0.643  0.00  0.00    -0.102 S 
ENDBRANCH  11  12
ENDBRANCH  10  11
ENDBRANCH   6  10
ENDBRANCH   2   3
BRANCH   2  17
ATOM     17  C   UNL     1       0.707  -0.490  -1.238  0.00  0.00    +0.235 C 
ATOM     18  O   UNL     1       0.120  -1.191  -2.034  0.00  0.00    -0.274 OA
ATOM     19  N   UNL     1       1.991  -0.146  -1.462  0.00  0.00    -0.278 N 
ATOM     20  H   UNL     1       2.461   0.415  -0.825  0.00  0.00    +0.155 HD
BRANCH  19  21
ATOM     21  C   UNL     1       2.640  -0.593  -2.602  0.00  0.00    +0.084 A 
ATOM     22  C   UNL     1       3.949  -0.346  -2.991  0.00  0.00    +0.065 A 
ATOM     23  C   UNL     1       4.375  -0.939  -4.238  0.00  0.00    +0.022 A 
ATOM     24  C   UNL     1       3.449  -1.669  -4.888  0.00  0.00    +0.048 A 
ATOM     25  S   UNL     1       2.025  -1.563  -3.826  0.00  0.00    -0.081 S 
BRANCH  22  26
ATOM     26  C   UNL     1       4.853   0.474  -2.179  0.00  0.00    +0.244 C 
ATOM     27  O   UNL     1       4.460   0.959  -1.134  0.00  0.00    -0.270 OA
ATOM     28  N   UNL     1       6.118   0.692  -2.590  0.00  0.00    -0.325 N 
ATOM     29  H   UNL     1       6.430   0.306  -3.423  0.00  0.00    +0.145 HD
ATOM     30  H   UNL     1       6.715   1.235  -2.053  0.00  0.00    +0.145 HD
ENDBRANCH  22  26
ENDBRANCH  19  21
ENDBRANCH   2  17
TORSDOF 7
