REMARK  Name = ZINC43186582
REMARK  17 active torsions:
REMARK  status: ('A' for Active; 'I' for Inactive)
REMARK    1  A    between atoms: C_1  and  C_2
REMARK    2  A    between atoms: C_2  and  N_3
REMARK    3  A    between atoms: N_3  and  C_4
REMARK    4  A    between atoms: N_3  and  C_6
REMARK    5  A    between atoms: C_4  and  C_5
REMARK    6  A    between atoms: C_6  and  C_8
REMARK    7  A    between atoms: C_6  and  C_12
REMARK    8  A    between atoms: C_8  and  C_9
REMARK    9  A    between atoms: C_9  and  C_10
REMARK   10  A    between atoms: C_9  and  C_11
REMARK   11  A    between atoms: C_12  and  N_13
REMARK   12  A    between atoms: N_16  and  C_17
REMARK   13  A    between atoms: C_17  and  C_18
REMARK   14  A    between atoms: N_20  and  C_21
REMARK   15  A    between atoms: C_22  and  C_29
REMARK   16  A    between atoms: C_24  and  C_28
REMARK   17  A    between atoms: C_26  and  C_27
REMARK                            x       y       z     vdW  Elec       q    Type
REMARK                         _______ _______ _______ _____ _____    ______ ____
ROOT
ATOM      1  N   UNL     1      -0.990   2.193  -0.753  0.00  0.00    -0.301 N 
ATOM      2  C   UNL     1      -0.480   3.166   0.028  0.00  0.00    +0.300 C 
ATOM      3  O   UNL     1      -1.218   3.836   0.724  0.00  0.00    -0.253 OA
ATOM      4  N   UNL     1       0.848   3.395   0.039  0.00  0.00    -0.291 N 
ATOM      5  H   UNL     1      -0.401   1.658  -1.308  0.00  0.00    +0.150 HD
ATOM      6  H   UNL     1       1.437   2.861  -0.516  0.00  0.00    +0.151 HD
ENDROOT
BRANCH   1   7
ATOM      7  C   UNL     1      -2.433   1.943  -0.764  0.00  0.00    +0.090 C 
BRANCH   7   8
ATOM      8  C   UNL     1      -2.768   0.934  -1.865  0.00  0.00    -0.051 C 
BRANCH   8   9
ATOM      9  N   UNL     1      -2.677   1.591  -3.175  0.00  0.00    +0.382 N 
ATOM     10  H   UNL     1      -2.931   0.935  -3.899  0.00  0.00    -0.081 HD
BRANCH   9  12
ATOM     11  C   UNL     1      -4.514   2.617  -4.428  0.00  0.00    -0.017 C 
ATOM     12  C   UNL     1      -3.593   2.739  -3.212  0.00  0.00    -0.082 C 
ENDBRANCH   9  12
BRANCH   9  13
ATOM     13  C   UNL     1      -1.301   2.055  -3.397  0.00  0.00    -0.082 C 
ATOM     14  C   UNL     1      -0.372   0.848  -3.538  0.00  0.00    -0.017 C 
ENDBRANCH   9  13
ENDBRANCH   8   9
BRANCH   8  15
ATOM     15  C   UNL     1      -4.188   0.405  -1.656  0.00  0.00    -0.011 C 
BRANCH  15  16
ATOM     16  C   UNL     1      -4.241  -0.422  -0.370  0.00  0.00    -0.019 C 
ATOM     17  C   UNL     1      -5.694  -0.777  -0.051  0.00  0.00    +0.007 C 
ATOM     18  C   UNL     1      -3.431  -1.707  -0.557  0.00  0.00    +0.007 C 
ENDBRANCH  15  16
ENDBRANCH   8  15
ENDBRANCH   7   8
ENDBRANCH   1   7
BRANCH   4  19
ATOM     19  C   UNL     1       1.402   4.453   0.888  0.00  0.00    +0.202 C 
BRANCH  19  20
ATOM     20  C   UNL     1       2.898   4.503   0.716  0.00  0.00    +0.234 C 
ATOM     21  O   UNL     1       3.448   3.731  -0.041  0.00  0.00    -0.274 OA
ATOM     22  N   UNL     1       3.626   5.405   1.404  0.00  0.00    -0.284 N 
ATOM     23  H   UNL     1       3.194   5.981   2.055  0.00  0.00    +0.155 HD
BRANCH  22  24
ATOM     24  C   UNL     1       5.003   5.511   1.180  0.00  0.00    +0.039 A 
ATOM     25  C   UNL     1       5.562   6.740   0.855  0.00  0.00    -0.029 A 
ATOM     26  C   UNL     1       6.922   6.841   0.634  0.00  0.00    +0.008 A 
ATOM     27  C   UNL     1       7.726   5.720   0.736  0.00  0.00    -0.050 A 
ATOM     28  C   UNL     1       7.171   4.495   1.060  0.00  0.00    +0.008 A 
ATOM     29  C   UNL     1       5.814   4.389   1.288  0.00  0.00    -0.029 A 
ATOM     30  C   UNL     1       5.211   3.055   1.647  0.00  0.00    +0.045 C 
ATOM     31  C   UNL     1       9.209   5.834   0.495  0.00  0.00    +0.044 C 
ATOM     32  C   UNL     1       4.687   7.961   0.742  0.00  0.00    +0.045 C 
ENDBRANCH  22  24
ENDBRANCH  19  20
ENDBRANCH   4  19
TORSDOF 10
