REMARK  Name = ZINC48255981
REMARK  13 active torsions:
REMARK  status: ('A' for Active; 'I' for Inactive)
REMARK    1  A    between atoms: C_1  and  C_2
REMARK    2  A    between atoms: C_5  and  N_24
REMARK    3  A    between atoms: C_7  and  N_8
REMARK    4  A    between atoms: N_11  and  C_12
REMARK    5  A    between atoms: C_12  and  C_13
REMARK    6  A    between atoms: C_13  and  C_14
REMARK    7  A    between atoms: C_14  and  N_15
REMARK    8  A    between atoms: N_15  and  C_16
REMARK    9  A    between atoms: N_15  and  C_17
REMARK   10  A    between atoms: C_17  and  C_18
REMARK   11  A    between atoms: C_25  and  C_27
REMARK   12  A    between atoms: C_27  and  C_28
REMARK   13  A    between atoms: C_27  and  C_29
REMARK                            x       y       z     vdW  Elec       q    Type
REMARK                         _______ _______ _______ _____ _____    ______ ____
ROOT
ATOM      1  N   UNL     1       0.435  -0.232   2.353  0.00  0.00    -0.269 N 
ATOM      2  C   UNL     1       0.823  -0.934   3.436  0.00  0.00    +0.304 C 
ATOM      3  O   UNL     1       1.081  -2.118   3.334  0.00  0.00    -0.253 OA
ATOM      4  N   UNL     1       0.926  -0.323   4.633  0.00  0.00    -0.299 N 
ATOM      5  H   UNL     1       0.290   0.724   2.421  0.00  0.00    +0.156 HD
ATOM      6  H   UNL     1       0.720   0.621   4.715  0.00  0.00    +0.150 HD
ENDROOT
BRANCH   1  13
ATOM      7  C   UNL     1      -1.445   0.872   0.528  0.00  0.00    +0.045 C 
ATOM      8  C   UNL     1      -0.667  -0.378   0.209  0.00  0.00    -0.029 A 
ATOM      9  C   UNL     1      -0.854  -1.018  -1.002  0.00  0.00    +0.007 A 
ATOM     10  C   UNL     1      -0.143  -2.164  -1.298  0.00  0.00    +0.024 A 
ATOM     11  C   UNL     1       0.763  -2.679  -0.378  0.00  0.00    +0.035 A 
ATOM     12  C   UNL     1       0.953  -2.039   0.838  0.00  0.00    +0.047 A 
ATOM     13  C   UNL     1       0.242  -0.884   1.130  0.00  0.00    +0.039 A 
BRANCH  11  14
ATOM     14  N   UNL     1       1.482  -3.841  -0.679  0.00  0.00    -0.285 N 
ATOM     15  C   UNL     1       1.895  -4.071  -1.941  0.00  0.00    +0.220 C 
ATOM     16  O   UNL     1       1.573  -3.313  -2.832  0.00  0.00    -0.275 OA
ATOM     17  H   UNL     1       1.684  -4.481   0.022  0.00  0.00    +0.155 HD
BRANCH  15  18
ATOM     18  C   UNL     1       2.756  -5.269  -2.246  0.00  0.00    +0.069 C 
ATOM     19  C   UNL     1       3.081  -5.297  -3.740  0.00  0.00    +0.017 C 
ATOM     20  C   UNL     1       4.055  -5.181  -1.443  0.00  0.00    +0.017 C 
ENDBRANCH  15  18
ENDBRANCH  11  14
ENDBRANCH   1  13
BRANCH   4  21
ATOM     21  C   UNL     1       1.347  -1.086   5.811  0.00  0.00    +0.104 C 
BRANCH  21  22
ATOM     22  C   UNL     1       1.381  -0.164   7.031  0.00  0.00    +0.000 C 
BRANCH  22  23
ATOM     23  C   UNL     1       1.821  -0.960   8.261  0.00  0.00    -0.077 C 
BRANCH  23  24
ATOM     24  N   UNL     1       1.854  -0.074   9.432  0.00  0.00    +0.381 N 
ATOM     25  C   UNL     1       0.492   0.387   9.735  0.00  0.00    -0.096 C 
ATOM     26  H   UNL     1       2.443   0.721   9.236  0.00  0.00    -0.082 HD
BRANCH  24  27
ATOM     27  C   UNL     1       2.390  -0.808  10.586  0.00  0.00    -0.043 C 
BRANCH  27  28
ATOM     28  C   UNL     1       2.539   0.133  11.755  0.00  0.00    -0.064 A 
ATOM     29  C   UNL     1       3.719   0.829  11.935  0.00  0.00    +0.002 A 
ATOM     30  C   UNL     1       3.855   1.692  13.007  0.00  0.00    +0.000 A 
ATOM     31  C   UNL     1       2.811   1.858  13.898  0.00  0.00    +0.000 A 
ATOM     32  C   UNL     1       1.630   1.162  13.716  0.00  0.00    +0.000 A 
ATOM     33  C   UNL     1       1.493   0.303  12.642  0.00  0.00    +0.002 A 
ENDBRANCH  27  28
ENDBRANCH  24  27
ENDBRANCH  23  24
ENDBRANCH  22  23
ENDBRANCH  21  22
ENDBRANCH   4  21
TORSDOF 9
