REMARK  Name = ZINC32071217
REMARK  12 active torsions:
REMARK  status: ('A' for Active; 'I' for Inactive)
REMARK    1  A    between atoms: C_1  and  C_2
REMARK    2  A    between atoms: C_2  and  C_3
REMARK    3  A    between atoms: C_6  and  O_9
REMARK    4  A    between atoms: O_9  and  C_10
REMARK    5  A    between atoms: C_13  and  C_16
REMARK    6  A    between atoms: C_16  and  C_18
REMARK    7  A    between atoms: C_16  and  N_20
REMARK    8  A    between atoms: C_18  and  N_19
REMARK    9  A    between atoms: N_20  and  C_21
REMARK   10  A    between atoms: N_20  and  C_22
REMARK   11  A    between atoms: C_22  and  C_23
REMARK   12  A    between atoms: C_23  and  O_24
REMARK                            x       y       z     vdW  Elec       q    Type
REMARK                         _______ _______ _______ _____ _____    ______ ____
ROOT
ATOM      1  C   UNL     1       2.654   0.737   3.755  0.00  0.00    +0.128 A 
ATOM      2  C   UNL     1       1.479   0.007   3.866  0.00  0.00    +0.046 A 
ATOM      3  C   UNL     1       0.411   0.289   3.037  0.00  0.00    +0.009 A 
ATOM      4  C   UNL     1       0.512   1.298   2.096  0.00  0.00    -0.032 A 
ATOM      5  C   UNL     1       1.684   2.022   1.979  0.00  0.00    +0.009 A 
ATOM      6  C   UNL     1       2.753   1.748   2.810  0.00  0.00    +0.046 A 
ENDROOT
BRANCH   1   7
ATOM      7  O   UNL     1       3.706   0.462   4.570  0.00  0.00    -0.456 OA
BRANCH   7  11
ATOM      8  C   UNL     1       5.922  -2.930   3.795  0.00  0.00    -0.047 A 
ATOM      9  C   UNL     1       6.194  -2.170   4.917  0.00  0.00    +0.007 A 
ATOM     10  C   UNL     1       5.454  -1.033   5.179  0.00  0.00    +0.046 A 
ATOM     11  C   UNL     1       4.436  -0.655   4.315  0.00  0.00    +0.128 A 
ATOM     12  C   UNL     1       4.161  -1.424   3.192  0.00  0.00    +0.046 A 
ATOM     13  C   UNL     1       4.908  -2.556   2.932  0.00  0.00    +0.007 A 
BRANCH   8  15
ATOM     14  C   UNL     1       6.068  -5.376   4.177  0.00  0.00    +0.009 C 
ATOM     15  C   UNL     1       6.732  -4.169   3.511  0.00  0.00    +0.032 C 
ENDBRANCH   8  15
ENDBRANCH   7  11
ENDBRANCH   1   7
BRANCH   4  16
ATOM     16  C   UNL     1      -0.655   1.603   1.192  0.00  0.00    +0.069 C 
BRANCH  16  17
ATOM     17  N   UNL     1      -0.530   2.973   0.678  0.00  0.00    -0.298 NA
ATOM     18  C   UNL     1      -1.849   3.542   0.370  0.00  0.00    +0.105 C 
BRANCH  17  19
ATOM     19  C   UNL     1       0.349   3.015  -0.499  0.00  0.00    +0.112 C 
BRANCH  19  20
ATOM     20  C   UNL     1       0.779   4.460  -0.762  0.00  0.00    +0.171 C 
BRANCH  20  21
ATOM     21  O   UNL     1       1.581   4.924   0.326  0.00  0.00    -0.394 OA
ATOM     22  H   UNL     1       1.984   5.948   0.314  0.00  0.00    +0.209 HD
ENDBRANCH  20  21
ENDBRANCH  19  20
ENDBRANCH  17  19
ENDBRANCH  16  17
BRANCH  16  23
ATOM     23  C   UNL     1      -0.665   0.617   0.022  0.00  0.00    -0.063 C 
BRANCH  23  24
ATOM     24  N   UNL     1      -1.776   0.942  -0.882  0.00  0.00    +0.379 N 
ATOM     25  H   UNL     1      -1.783   0.234  -1.724  0.00  0.00    -0.090 HD
ATOM     26  H   UNL     1      -1.649   1.966  -1.266  0.00  0.00    -0.090 HD
ATOM     27  H   UNL     1      -2.727   0.871  -0.334  0.00  0.00    -0.090 HD
ENDBRANCH  23  24
ENDBRANCH  16  23
ENDBRANCH   4  16
TORSDOF 10
