REMARK  Name = ZINC05773513
REMARK  6 active torsions:
REMARK  status: ('A' for Active; 'I' for Inactive)
REMARK    1  A    between atoms: C_4  and  C_7
REMARK    2  A    between atoms: C_7  and  N_48
REMARK    3  A    between atoms: C_8  and  N_48
REMARK    4  A    between atoms: C_15  and  N_17
REMARK    5  A    between atoms: N_17  and  C_18
REMARK    6  A    between atoms: C_18  and  C_19
REMARK                            x       y       z     vdW  Elec       q    Type
REMARK                         _______ _______ _______ _____ _____    ______ ____
ROOT
ATOM      1  C   UNL     1      -0.783   1.513  -1.117  0.00  0.00    -0.028 C 
ATOM      2  C   UNL     1      -1.419   2.866  -0.719  0.00  0.00    +0.152 C 
ATOM      3  S   UNL     1      -2.987   2.874  -1.681  0.00  0.00    -0.031 S 
ATOM      4  O   UNL     1      -4.084   2.888  -0.777  0.00  0.00    -0.174 OA
ATOM      5  O   UNL     1      -2.903   3.868  -2.693  0.00  0.00    -0.174 OA
ATOM      6  C   UNL     1      -2.874   1.210  -2.462  0.00  0.00    +0.186 C 
ATOM      7  C   UNL     1      -1.883   0.506  -1.491  0.00  0.00    +0.086 C 
ENDROOT
BRANCH   7   8
ATOM      8  N   UNL     1      -2.594   0.078  -0.283  0.00  0.00    -0.278 N 
ATOM      9  C   UNL     1      -2.238   0.573   0.919  0.00  0.00    +0.300 C 
ATOM     10  O   UNL     1      -2.761   0.148   1.930  0.00  0.00    -0.253 OA
ATOM     11  N   UNL     1      -1.302   1.539   0.999  0.00  0.00    -0.313 N 
ATOM     12  H   UNL     1      -0.938   1.931   0.190  0.00  0.00    +0.146 HD
ATOM     13  H   UNL     1      -0.992   1.843   1.867  0.00  0.00    +0.146 HD
BRANCH   8  14
ATOM     14  C   UNL     1      -3.691  -0.887  -0.382  0.00  0.00    +0.144 C 
BRANCH  14  15
ATOM     15  C   UNL     1      -3.143  -2.285  -0.250  0.00  0.00    -0.030 A 
ATOM     16  C   UNL     1      -2.745  -2.980  -1.377  0.00  0.00    +0.005 A 
ATOM     17  C   UNL     1      -2.238  -4.261  -1.255  0.00  0.00    +0.000 A 
ATOM     18  C   UNL     1      -2.139  -4.850  -0.009  0.00  0.00    +0.000 A 
ATOM     19  C   UNL     1      -2.543  -4.156   1.117  0.00  0.00    +0.000 A 
ATOM     20  C   UNL     1      -3.045  -2.874   0.996  0.00  0.00    +0.005 A 
ENDBRANCH  14  15
ENDBRANCH   8  14
ENDBRANCH   7   8
BRANCH   1  21
ATOM     21  N   UNL     1      -0.009   0.981   0.020  0.00  0.00    +0.386 N 
ATOM     22  H   UNL     1      -0.470   1.248   0.898  0.00  0.00    -0.085 HD
ATOM     23  H   UNL     1       0.032  -0.043  -0.047  0.00  0.00    -0.085 HD
BRANCH  21  24
ATOM     24  C   UNL     1       1.362   1.525   0.005  0.00  0.00    -0.046 C 
BRANCH  24  28
ATOM     25  C   UNL     1       3.534  -0.061   3.325  0.00  0.00    +0.000 A 
ATOM     26  C   UNL     1       3.540  -0.726   2.114  0.00  0.00    +0.000 A 
ATOM     27  C   UNL     1       2.837  -0.213   1.039  0.00  0.00    +0.002 A 
ATOM     28  C   UNL     1       2.128   0.965   1.177  0.00  0.00    -0.064 A 
ATOM     29  C   UNL     1       2.126   1.633   2.387  0.00  0.00    +0.002 A 
ATOM     30  C   UNL     1       2.825   1.118   3.462  0.00  0.00    +0.000 A 
ENDBRANCH  24  28
ENDBRANCH  21  24
ENDBRANCH   1  21
TORSDOF 6
