REMARK  Name = ZINC66177183
REMARK  9 active torsions:
REMARK  status: ('A' for Active; 'I' for Inactive)
REMARK    1  A    between atoms: C_1  and  C_2
REMARK    2  A    between atoms: C_2  and  C_3
REMARK    3  A    between atoms: C_3  and  C_5
REMARK    4  A    between atoms: C_3  and  N_6
REMARK    5  A    between atoms: N_6  and  C_7
REMARK    6  A    between atoms: N_6  and  C_8
REMARK    7  A    between atoms: C_8  and  C_9
REMARK    8  A    between atoms: C_9  and  N_10
REMARK    9  A    between atoms: N_13  and  C_14
REMARK                            x       y       z     vdW  Elec       q    Type
REMARK                         _______ _______ _______ _____ _____    ______ ____
ROOT
ATOM      1  N   UNL     1       4.629  -0.116  -3.857  0.00  0.00    -0.301 N 
ATOM      2  C   UNL     1       5.924   0.177  -4.090  0.00  0.00    +0.300 C 
ATOM      3  O   UNL     1       6.602   0.673  -3.211  0.00  0.00    -0.253 OA
ATOM      4  N   UNL     1       6.466  -0.079  -5.297  0.00  0.00    -0.293 N 
ATOM      5  H   UNL     1       4.087  -0.511  -4.558  0.00  0.00    +0.150 HD
ATOM      6  H   UNL     1       5.925  -0.474  -5.998  0.00  0.00    +0.151 HD
ENDROOT
BRANCH   4   7
ATOM      7  C   UNL     1       7.873   0.240  -5.550  0.00  0.00    +0.106 C 
ATOM      8  C   UNL     1       8.076   0.470  -7.046  0.00  0.00    +0.027 C 
ATOM      9  C   UNL     1       9.582   0.575  -7.315  0.00  0.00    +0.008 C 
ATOM     10  C   UNL     1      10.204  -0.802  -7.093  0.00  0.00    +0.054 C 
ATOM     11  C   UNL     1       9.791  -1.365  -5.757  0.00  0.00    +0.024 A 
ATOM     12  C   UNL     1       8.734  -0.897  -5.064  0.00  0.00    -0.008 A 
ATOM     13  C   UNL     1       8.399  -1.480  -3.826  0.00  0.00    +0.012 A 
ATOM     14  C   UNL     1       9.145  -2.507  -3.336  0.00  0.00    +0.070 A 
ATOM     15  C   UNL     1      10.245  -2.967  -4.080  0.00  0.00    +0.249 A 
ATOM     16  O   UNL     1      10.929  -3.885  -3.658  0.00  0.00    -0.268 OA
ATOM     17  N   UNL     1      10.540  -2.392  -5.255  0.00  0.00    -0.326 N 
ATOM     18  H   UNL     1      11.301  -2.714  -5.762  0.00  0.00    +0.169 HD
ENDBRANCH   4   7
BRANCH   1  19
ATOM     19  C   UNL     1       4.039   0.163  -2.545  0.00  0.00    +0.087 C 
BRANCH  19  20
ATOM     20  C   UNL     1       2.569  -0.261  -2.546  0.00  0.00    -0.060 C 
BRANCH  20  21
ATOM     21  N   UNL     1       1.978   0.018  -1.231  0.00  0.00    +0.381 N 
ATOM     22  C   UNL     1       1.964   1.468  -0.998  0.00  0.00    -0.096 C 
ATOM     23  H   UNL     1       2.526  -0.433  -0.513  0.00  0.00    -0.082 HD
BRANCH  21  24
ATOM     24  C   UNL     1       0.603  -0.497  -1.193  0.00  0.00    -0.072 C 
ATOM     25  C   UNL     1      -0.188   0.072  -2.373  0.00  0.00    -0.013 C 
BRANCH  24  27
ATOM     26  C   UNL     1       1.307  -2.599  -0.040  0.00  0.00    +0.002 C 
ATOM     27  C   UNL     1       0.627  -2.024  -1.284  0.00  0.00    -0.019 C 
ENDBRANCH  24  27
ENDBRANCH  21  24
ENDBRANCH  20  21
ENDBRANCH  19  20
ENDBRANCH   1  19
TORSDOF 6
