REMARK  Name = ZINC39560728
REMARK  6 active torsions:
REMARK  status: ('A' for Active; 'I' for Inactive)
REMARK    1  A    between atoms: C_1  and  O_2
REMARK    2  A    between atoms: O_2  and  C_3
REMARK    3  A    between atoms: C_3  and  C_5
REMARK    4  A    between atoms: C_20  and  C_33
REMARK    5  A    between atoms: C_23  and  N_26
REMARK    6  A    between atoms: C_29  and  O_32
REMARK                            x       y       z     vdW  Elec       q    Type
REMARK                         _______ _______ _______ _____ _____    ______ ____
ROOT
ATOM      1  C   UNL     1       0.679  -2.115   1.088  0.00  0.00    +0.172 C 
ATOM      2  C   UNL     1      -0.742  -2.677   1.245  0.00  0.00    +0.067 C 
ATOM      3  C   UNL     1      -1.218  -2.350   2.639  0.00  0.00    -0.017 C 
ATOM      4  C   UNL     1      -2.456  -2.375   3.154  0.00  0.00    -0.013 C 
ATOM      5  C   UNL     1      -3.775  -2.735   2.530  0.00  0.00    +0.064 C 
ATOM      6  C   UNL     1      -4.872  -2.599   3.547  0.00  0.00    -0.022 C 
ATOM      7  C   UNL     1      -4.697  -2.216   4.808  0.00  0.00    -0.002 C 
ATOM      8  C   UNL     1      -3.440  -1.885   5.356  0.00  0.00    +0.028 C 
ATOM      9  C   UNL     1      -2.329  -1.970   4.518  0.00  0.00    +0.068 C 
ATOM     10  N   UNL     1      -1.034  -1.723   4.758  0.00  0.00    -0.250 NA
ATOM     11  C   UNL     1      -0.342  -1.939   3.669  0.00  0.00    +0.063 C 
ATOM     12  C   UNL     1       1.145  -1.802   3.458  0.00  0.00    +0.106 C 
ATOM     13  N   UNL     1       1.503  -2.525   2.229  0.00  0.00    -0.274 NA
ATOM     14  C   UNL     1       2.936  -2.386   1.941  0.00  0.00    +0.087 C 
ATOM     15  C   UNL     1       3.745  -3.012   3.080  0.00  0.00    +0.008 C 
ATOM     16  C   UNL     1       3.396  -2.313   4.397  0.00  0.00    -0.065 C 
ATOM     17  C   UNL     1       1.893  -2.404   4.650  0.00  0.00    +0.010 C 
ENDROOT
BRANCH  16  18
ATOM     18  N   UNL     1       4.121  -2.955   5.501  0.00  0.00    +0.383 N 
ATOM     19  C   UNL     1       5.586  -2.787   5.319  0.00  0.00    -0.076 C 
ATOM     20  C   UNL     1       6.146  -2.982   6.750  0.00  0.00    +0.011 C 
ATOM     21  C   UNL     1       5.076  -2.302   7.635  0.00  0.00    +0.096 C 
ATOM     22  C   UNL     1       3.795  -2.291   6.781  0.00  0.00    -0.047 C 
ATOM     23  H   UNL     1       3.886  -3.936   5.548  0.00  0.00    -0.081 HD
BRANCH  21  24
ATOM     24  O   UNL     1       5.472  -0.967   7.956  0.00  0.00    -0.394 OA
ATOM     25  H   UNL     1       6.297  -0.911   8.457  0.00  0.00    +0.210 HD
ENDBRANCH  21  24
ENDBRANCH  16  18
BRANCH  14  26
ATOM     26  C   UNL     1       3.259  -3.090   0.648  0.00  0.00    -0.030 A 
ATOM     27  C   UNL     1       2.664  -4.303   0.354  0.00  0.00    +0.005 A 
ATOM     28  C   UNL     1       2.961  -4.949  -0.831  0.00  0.00    +0.000 A 
ATOM     29  C   UNL     1       3.852  -4.382  -1.723  0.00  0.00    +0.000 A 
ATOM     30  C   UNL     1       4.446  -3.168  -1.429  0.00  0.00    +0.000 A 
ATOM     31  C   UNL     1       4.146  -2.521  -0.246  0.00  0.00    +0.005 A 
ENDBRANCH  14  26
BRANCH   1  32
ATOM     32  C   UNL     1       0.618  -0.611   1.029  0.00  0.00    +0.325 C 
ATOM     33  O   UNL     1       0.350   0.023   2.022  0.00  0.00    -0.249 OA
BRANCH  32  35
ATOM     34  C   UNL     1       0.787   1.452  -0.112  0.00  0.00    +0.280 C 
ATOM     35  O   UNL     1       0.862   0.025  -0.128  0.00  0.00    -0.467 OA
ENDBRANCH  32  35
ENDBRANCH   1  32
TORSDOF 5
