REMARK  Name = ZINC63547300
REMARK  9 active torsions:
REMARK  status: ('A' for Active; 'I' for Inactive)
REMARK    1  A    between atoms: C_1  and  C_2
REMARK    2  A    between atoms: C_5  and  C_7
REMARK    3  A    between atoms: C_7  and  S_8
REMARK    4  A    between atoms: S_8  and  C_9
REMARK    5  A    between atoms: C_15  and  C_17
REMARK    6  A    between atoms: C_17  and  S_18
REMARK    7  A    between atoms: S_18  and  C_19
REMARK    8  A    between atoms: C_25  and  O_29
REMARK    9  A    between atoms: O_29  and  C_30
REMARK                            x       y       z     vdW  Elec       q    Type
REMARK                         _______ _______ _______ _____ _____    ______ ____
ROOT
ATOM      1  C   UNL     1       0.038  -5.274  -3.771  0.00  0.00    +0.160 A 
ATOM      2  N   UNL     1       0.025  -4.697  -4.964  0.00  0.00    -0.133 NA
ATOM      3  N   UNL     1       0.023  -5.372  -6.030  0.00  0.00    -0.125 NA
ATOM      4  C   UNL     1       0.034  -6.694  -6.023  0.00  0.00    +0.189 A 
ATOM      5  S   UNL     1       0.057  -6.996  -4.258  0.00  0.00    -0.024 S 
ATOM      6  N   UNL     1       0.034  -7.595  -7.085  0.00  0.00    -0.263 N 
ATOM      7  C   UNL     1       0.021  -7.141  -8.354  0.00  0.00    +0.229 C 
ATOM      8  O   UNL     1       0.010  -5.947  -8.571  0.00  0.00    -0.275 OA
ATOM      9  H   UNL     1       0.042  -8.550  -6.912  0.00  0.00    +0.157 HD
ENDROOT
BRANCH   1  10
ATOM     10  S   UNL     1       0.043  -4.551  -2.164  0.00  0.00    -0.088 S 
BRANCH  10  11
ATOM     11  C   UNL     1       0.016  -2.766  -2.485  0.00  0.00    +0.172 C 
BRANCH  11  16
ATOM     12  C   UNL     1      -0.018   1.503   0.010  0.00  0.00    +0.109 C 
ATOM     13  C   UNL     1       0.002  -0.004   0.002  0.00  0.00    +0.216 C 
ATOM     14  O   UNL     1       0.020  -0.616   1.048  0.00  0.00    -0.276 OA
ATOM     15  N   UNL     1       0.000  -0.672  -1.169  0.00  0.00    -0.256 N 
ATOM     16  C   UNL     1       0.018  -2.019  -1.176  0.00  0.00    +0.229 C 
ATOM     17  O   UNL     1       0.037  -2.631  -0.130  0.00  0.00    -0.274 OA
ATOM     18  H   UNL     1      -0.015  -0.182  -2.006  0.00  0.00    +0.157 HD
ENDBRANCH  11  16
ENDBRANCH  10  11
ENDBRANCH   1  10
BRANCH   7  19
ATOM     19  C   UNL     1       0.020  -8.116  -9.503  0.00  0.00    +0.169 C 
BRANCH  19  20
ATOM     20  S   UNL     1       0.002  -7.202 -11.070  0.00  0.00    -0.106 S 
BRANCH  20  21
ATOM     21  C   UNL     1       0.003  -8.502 -12.336  0.00  0.00    +0.236 C 
ATOM     22  N   UNL     1      -1.155  -9.384 -12.153  0.00  0.00    -0.355 N 
ATOM     23  C   UNL     1      -0.703 -10.585 -11.929  0.00  0.00    +0.061 A 
ATOM     24  C   UNL     1      -1.380 -11.866 -11.675  0.00  0.00    +0.031 A 
ATOM     25  C   UNL     1      -0.650 -12.978 -11.471  0.00  0.00    +0.048 A 
ATOM     26  C   UNL     1       0.807 -12.959 -11.493  0.00  0.00    +0.122 A 
ATOM     27  C   UNL     1       1.503 -11.818 -11.720  0.00  0.00    +0.073 A 
ATOM     28  C   UNL     1       0.785 -10.563 -11.952  0.00  0.00    +0.064 A 
ATOM     29  N   UNL     1       1.196  -9.346 -12.190  0.00  0.00    -0.355 N 
ATOM     30  H   UNL     1      -2.088  -9.121 -12.191  0.00  0.00    +0.162 HD
ATOM     31  H   UNL     1       2.118  -9.053 -12.259  0.00  0.00    +0.162 HD
BRANCH  26  32
ATOM     32  O   UNL     1       1.485 -14.113 -11.279  0.00  0.00    -0.495 OA
ATOM     33  C   UNL     1       0.707 -15.289 -11.044  0.00  0.00    +0.277 C 
ENDBRANCH  26  32
ENDBRANCH  20  21
ENDBRANCH  19  20
ENDBRANCH   7  19
TORSDOF 7
