REMARK  Name = ZINC02422581
REMARK  6 active torsions:
REMARK  status: ('A' for Active; 'I' for Inactive)
REMARK    1  A    between atoms: C_1  and  C_2
REMARK    2  A    between atoms: C_8  and  C_26
REMARK    3  A    between atoms: N_14  and  C_15
REMARK    4  A    between atoms: C_15  and  N_17
REMARK    5  A    between atoms: N_17  and  C_18
REMARK    6  A    between atoms: C_23  and  C_24
REMARK                            x       y       z     vdW  Elec       q    Type
REMARK                         _______ _______ _______ _____ _____    ______ ____
ROOT
ATOM      1  C   UNL     1      -9.513   7.254   1.543  0.00  0.00    +0.044 C 
ATOM      2  C   UNL     1      -8.040   7.005   1.341  0.00  0.00    -0.050 A 
ATOM      3  C   UNL     1      -7.575   5.697   1.226  0.00  0.00    +0.005 A 
ATOM      4  C   UNL     1      -6.251   5.435   1.042  0.00  0.00    +0.029 A 
ATOM      5  C   UNL     1      -5.338   6.498   0.967  0.00  0.00    +0.077 A 
ATOM      6  C   UNL     1      -5.814   7.830   1.085  0.00  0.00    +0.022 A 
ATOM      7  C   UNL     1      -7.184   8.062   1.273  0.00  0.00    +0.015 A 
ATOM      8  C   UNL     1      -4.882   8.882   1.007  0.00  0.00    +0.051 A 
ATOM      9  N   UNL     1      -3.611   8.583   0.835  0.00  0.00    -0.217 NA
ATOM     10  C   UNL     1      -3.201   7.321   0.723  0.00  0.00    +0.231 A 
ATOM     11  N   UNL     1      -4.027   6.296   0.788  0.00  0.00    -0.212 NA
ATOM     12  N   UNL     1      -1.849   7.075   0.536  0.00  0.00    -0.298 N 
ATOM     13  C   UNL     1      -1.409   5.791   0.298  0.00  0.00    +0.172 C 
ATOM     14  N   UNL     1      -2.321   4.772   0.115  0.00  0.00    -0.269 N 
ATOM     15  C   UNL     1      -5.327  10.317   1.125  0.00  0.00    +0.066 C 
ATOM     16  H   UNL     1      -1.213   7.807   0.574  0.00  0.00    +0.171 HD
ATOM     17  H   UNL     1       0.585   6.199   0.293  0.00  0.00    +0.158 HD
ATOM     18  H   UNL     1      -3.268   4.973   0.062  0.00  0.00    +0.157 HD
ATOM     19  N   UNL     1      -0.126   5.470   0.239  0.00  0.00    -0.373 N 
ATOM     20  H   UNL     1       0.152   4.487   0.137  0.00  0.00    +0.158 HD
ENDROOT
BRANCH  14  21
ATOM     21  C   UNL     1      -1.895   3.498   0.010  0.00  0.00    +0.141 C 
ATOM     22  S   UNL     1      -0.223   3.143   0.103  0.00  0.00    -0.018 S 
BRANCH  21  23
ATOM     23  N   UNL     1      -2.786   2.502  -0.169  0.00  0.00    -0.296 N 
ATOM     24  H   UNL     1      -3.726   2.708  -0.292  0.00  0.00    +0.154 HD
BRANCH  23  25
ATOM     25  C   UNL     1      -2.355   1.171  -0.178  0.00  0.00    +0.037 A 
ATOM     26  C   UNL     1      -1.317   0.771   0.654  0.00  0.00    +0.023 A 
ATOM     27  C   UNL     1      -0.894  -0.544   0.644  0.00  0.00    +0.003 A 
ATOM     28  C   UNL     1      -1.502  -1.462  -0.193  0.00  0.00    +0.020 A 
ATOM     29  C   UNL     1      -2.537  -1.066  -1.022  0.00  0.00    +0.046 A 
ATOM     30  C   UNL     1      -2.964   0.248  -1.017  0.00  0.00    -0.011 A 
ATOM     31  C   UNL     1      -4.091   0.679  -1.921  0.00  0.00    +0.047 C 
ATOM     32 CL   UNL     1      -3.298  -2.222  -2.071  0.00  0.00    -0.083 Cl
ENDBRANCH  23  25
ENDBRANCH  21  23
ENDBRANCH  14  21
TORSDOF 3
