REMARK  Name = ZINC45416021
REMARK  10 active torsions:
REMARK  status: ('A' for Active; 'I' for Inactive)
REMARK    1  A    between atoms: C_1  and  C_2
REMARK    2  A    between atoms: C_2  and  C_4
REMARK    3  A    between atoms: C_2  and  N_14
REMARK    4  A    between atoms: C_7  and  S_10
REMARK    5  A    between atoms: S_10  and  N_13
REMARK    6  A    between atoms: N_14  and  C_15
REMARK    7  A    between atoms: N_14  and  C_16
REMARK    8  A    between atoms: C_16  and  C_17
REMARK    9  A    between atoms: C_17  and  C_19
REMARK   10  A    between atoms: C_28  and  C_29
REMARK                            x       y       z     vdW  Elec       q    Type
REMARK                         _______ _______ _______ _____ _____    ______ ____
ROOT
ATOM      1  C   UNL     1      -1.356  -1.981   0.004  0.00  0.00    +0.003 C 
ENDROOT
BRANCH   1   2
ATOM      2  N   UNL     1      -1.376  -0.512   0.012  0.00  0.00    +0.387 N 
ATOM      3  C   UNL     1      -2.064  -0.039   1.221  0.00  0.00    -0.095 C 
ATOM      4  H   UNL     1      -1.864  -0.178  -0.805  0.00  0.00    -0.081 HD
BRANCH   2   6
ATOM      5  C   UNL     1      -0.019   1.526   0.010  0.00  0.00    -0.008 C 
ATOM      6  C   UNL     1       0.002  -0.004   0.002  0.00  0.00    -0.041 C 
BRANCH   6   7
ATOM      7  C   UNL     1       0.707  -0.490  -1.238  0.00  0.00    -0.061 A 
ATOM      8  C   UNL     1       0.038  -0.522  -2.447  0.00  0.00    +0.004 A 
ATOM      9  C   UNL     1       0.685  -0.967  -3.584  0.00  0.00    +0.029 A 
ATOM     10  C   UNL     1       2.002  -1.381  -3.513  0.00  0.00    +0.105 A 
ATOM     11  C   UNL     1       2.672  -1.349  -2.304  0.00  0.00    +0.029 A 
ATOM     12  C   UNL     1       2.026  -0.899  -1.167  0.00  0.00    +0.004 A 
BRANCH  10  13
ATOM     13  S   UNL     1       2.826  -1.951  -4.962  0.00  0.00    +0.056 S 
ATOM     14  O   UNL     1       3.882  -2.794  -4.524  0.00  0.00    -0.153 OA
ATOM     15  O   UNL     1       1.815  -2.397  -5.855  0.00  0.00    -0.153 OA
BRANCH  13  16
ATOM     16  N   UNL     1       3.535  -0.633  -5.671  0.00  0.00    -0.204 NA
ATOM     17  H   UNL     1       4.352  -0.739  -6.184  0.00  0.00    +0.144 HD
ATOM     18  H   UNL     1       3.135   0.245  -5.574  0.00  0.00    +0.144 HD
ENDBRANCH  13  16
ENDBRANCH  10  13
ENDBRANCH   6   7
ENDBRANCH   2   6
ENDBRANCH   1   2
BRANCH   1  19
ATOM     19  C   UNL     1      -2.766  -2.502  -0.109  0.00  0.00    +0.150 C 
ATOM     20  O   UNL     1      -3.697  -1.725  -0.176  0.00  0.00    -0.294 OA
BRANCH  19  21
ATOM     21  C   UNL     1      -3.004  -3.895  -0.137  0.00  0.00    +0.048 A 
ATOM     22  C   UNL     1      -1.996  -4.968  -0.059  0.00  0.00    +0.011 A 
ATOM     23  C   UNL     1      -0.608  -4.977   0.056  0.00  0.00    +0.011 A 
ATOM     24  C   UNL     1       0.065  -6.179   0.105  0.00  0.00    +0.001 A 
ATOM     25  C   UNL     1      -0.634  -7.375   0.041  0.00  0.00    +0.002 A 
ATOM     26  C   UNL     1      -2.007  -7.380  -0.073  0.00  0.00    +0.026 A 
ATOM     27  C   UNL     1      -2.706  -6.178  -0.124  0.00  0.00    +0.048 A 
ATOM     28  N   UNL     1      -4.049  -5.879  -0.233  0.00  0.00    -0.354 N 
ATOM     29  H   UNL     1      -4.759  -6.537  -0.296  0.00  0.00    +0.166 HD
ATOM     30  C   UNL     1      -4.240  -4.530  -0.237  0.00  0.00    +0.058 A 
BRANCH  30  31
ATOM     31  C   UNL     1      -5.546  -3.851  -0.334  0.00  0.00    -0.001 A 
ATOM     32  C   UNL     1      -5.840  -2.771   0.502  0.00  0.00    +0.010 A 
ATOM     33  C   UNL     1      -7.063  -2.141   0.406  0.00  0.00    +0.001 A 
ATOM     34  C   UNL     1      -7.998  -2.576  -0.517  0.00  0.00    +0.000 A 
ATOM     35  C   UNL     1      -7.714  -3.645  -1.349  0.00  0.00    +0.001 A 
ATOM     36  C   UNL     1      -6.493  -4.281  -1.268  0.00  0.00    +0.010 A 
ENDBRANCH  30  31
ENDBRANCH  19  21
ENDBRANCH   1  19
TORSDOF 8
