REMARK  Name = ZINC45165996
REMARK  6 active torsions:
REMARK  status: ('A' for Active; 'I' for Inactive)
REMARK    1  A    between atoms: C_1  and  C_2
REMARK    2  A    between atoms: C_4  and  N_8
REMARK    3  A    between atoms: N_5  and  C_7
REMARK    4  A    between atoms: N_8  and  S_9
REMARK    5  A    between atoms: S_9  and  C_12
REMARK    6  A    between atoms: C_13  and  N_19
REMARK                            x       y       z     vdW  Elec       q    Type
REMARK                         _______ _______ _______ _____ _____    ______ ____
ROOT
ATOM      1  S   UNL     1       0.013  -2.826  -3.341  0.00  0.00    +0.077 S 
ATOM      2  O   UNL     1      -0.155  -3.867  -4.293  0.00  0.00    -0.150 OA
ATOM      3  O   UNL     1      -0.867  -1.713  -3.265  0.00  0.00    -0.150 OA
ENDROOT
BRANCH   1   4
ATOM      4  C   UNL     1       1.631  -2.173  -3.589  0.00  0.00    +0.147 A 
ATOM      5  C   UNL     1       2.063  -1.084  -2.843  0.00  0.00    +0.053 A 
ATOM      6  C   UNL     1       3.339  -0.572  -3.042  0.00  0.00    +0.025 A 
ATOM      7  C   UNL     1       4.174  -1.146  -3.981  0.00  0.00    +0.003 A 
ATOM      8  C   UNL     1       3.741  -2.229  -4.723  0.00  0.00    +0.022 A 
ATOM      9  C   UNL     1       2.473  -2.746  -4.523  0.00  0.00    +0.069 A 
ATOM     10 CL   UNL     1       1.937  -4.112  -5.451  0.00  0.00    -0.081 Cl
BRANCH   5  11
ATOM     11  N   UNL     1       1.217  -0.505  -1.894  0.00  0.00    -0.356 N 
ATOM     12  H   UNL     1       0.326  -0.863  -1.757  0.00  0.00    +0.142 HD
ATOM     13  H   UNL     1       1.520   0.255  -1.373  0.00  0.00    +0.142 HD
ENDBRANCH   5  11
ENDBRANCH   1   4
BRANCH   1  14
ATOM     14  N   UNL     1      -0.001  -3.543  -1.848  0.00  0.00    -0.200 N 
ATOM     15  H   UNL     1      -0.586  -3.204  -1.153  0.00  0.00    +0.175 HD
BRANCH  14  19
ATOM     16  C   UNL     1       3.017  -7.464  -2.485  0.00  0.00    +0.067 C 
ATOM     17  C   UNL     1       2.178  -6.389  -1.845  0.00  0.00    +0.062 A 
ATOM     18  C   UNL     1       1.444  -5.411  -2.523  0.00  0.00    +0.069 A 
ATOM     19  C   UNL     1       0.827  -4.633  -1.592  0.00  0.00    +0.136 A 
ATOM     20  N   UNL     1       1.164  -5.111  -0.372  0.00  0.00    -0.252 N 
ATOM     21  N   UNL     1       2.006  -6.214  -0.560  0.00  0.00    -0.175 NA
ATOM     22  C   UNL     1       0.722  -4.573   0.917  0.00  0.00    +0.174 C 
ENDBRANCH  14  19
ENDBRANCH   1  14
TORSDOF 4
