REMARK  Name = ZINC20407403
REMARK  13 active torsions:
REMARK  status: ('A' for Active; 'I' for Inactive)
REMARK    1  A    between atoms: C_1  and  C_2
REMARK    2  A    between atoms: C_5  and  C_7
REMARK    3  A    between atoms: C_7  and  N_8
REMARK    4  A    between atoms: N_8  and  C_9
REMARK    5  A    between atoms: N_8  and  C_19
REMARK    6  A    between atoms: C_11  and  C_17
REMARK    7  A    between atoms: C_11  and  C_18
REMARK    8  A    between atoms: C_13  and  C_15
REMARK    9  A    between atoms: C_13  and  C_16
REMARK   10  A    between atoms: C_19  and  N_21
REMARK   11  A    between atoms: N_21  and  C_22
REMARK   12  A    between atoms: C_25  and  O_28
REMARK   13  A    between atoms: O_28  and  C_29
REMARK                            x       y       z     vdW  Elec       q    Type
REMARK                         _______ _______ _______ _____ _____    ______ ____
ROOT
ATOM      1  N   UNL     1       1.068   3.069  -3.434  0.00  0.00    -0.302 N 
ENDROOT
BRANCH   1   2
ATOM      2  C   UNL     1       0.518   2.677  -2.130  0.00  0.00    +0.073 C 
ATOM      3  C   UNL     1      -0.933   3.149  -2.034  0.00  0.00    +0.009 C 
ATOM      4  C   UNL     1      -1.525   2.773  -0.677  0.00  0.00    -0.072 C 
ATOM      5  N   UNL     1      -0.677   3.153   0.434  0.00  0.00    +0.386 N 
ATOM      6  C   UNL     1       0.758   2.982   0.349  0.00  0.00    -0.072 C 
ATOM      7  C   UNL     1       1.323   3.353  -1.020  0.00  0.00    +0.009 C 
ATOM      8  C   UNL     1       1.417   3.911   1.392  0.00  0.00    -0.010 C 
ATOM      9  C   UNL     1       1.166   1.546   0.699  0.00  0.00    -0.010 C 
ATOM     10  C   UNL     1      -1.833   1.271  -0.651  0.00  0.00    -0.010 C 
ATOM     11  C   UNL     1      -2.871   3.518  -0.534  0.00  0.00    -0.010 C 
ATOM     12  H   UNL     1      -0.803   4.226   0.640  0.00  0.00    -0.084 HD
ATOM     13  H   UNL     1      -0.959   2.573   1.325  0.00  0.00    -0.084 HD
ENDBRANCH   1   2
BRANCH   1  14
ATOM     14  C   UNL     1       1.558   2.130  -4.268  0.00  0.00    +0.138 C 
ATOM     15  S   UNL     1       2.292   2.595  -5.742  0.00  0.00    -0.018 S 
BRANCH  14  16
ATOM     16  N   UNL     1       1.469   0.825  -3.941  0.00  0.00    -0.297 N 
ATOM     17  H   UNL     1       0.763   0.172  -4.474  0.00  0.00    +0.154 HD
BRANCH  16  18
ATOM     18  C   UNL     1       2.275   0.302  -2.921  0.00  0.00    +0.033 A 
ATOM     19  C   UNL     1       3.283   1.078  -2.366  0.00  0.00    +0.027 A 
ATOM     20  C   UNL     1       4.074   0.564  -1.357  0.00  0.00    +0.047 A 
ATOM     21  C   UNL     1       3.867  -0.732  -0.906  0.00  0.00    +0.120 A 
ATOM     22  C   UNL     1       2.863  -1.509  -1.464  0.00  0.00    +0.047 A 
ATOM     23  C   UNL     1       2.068  -0.994  -2.469  0.00  0.00    +0.027 A 
BRANCH  21  24
ATOM     24  O   UNL     1       4.649  -1.239   0.084  0.00  0.00    -0.495 OA
ATOM     25  C   UNL     1       5.664  -0.383   0.612  0.00  0.00    +0.277 C 
ENDBRANCH  21  24
ENDBRANCH  16  18
ENDBRANCH  14  16
ENDBRANCH   1  14
BRANCH   1  26
ATOM     26  C   UNL     1       1.085   4.479  -3.828  0.00  0.00    +0.181 C 
BRANCH  26  31
ATOM     27  C   UNL     1       4.473   6.889  -0.973  0.00  0.00    +0.086 C 
ATOM     28  C   UNL     1       3.849   6.159  -2.134  0.00  0.00    +0.102 A 
ATOM     29  C   UNL     1       4.465   5.846  -3.289  0.00  0.00    +0.045 A 
ATOM     30  C   UNL     1       3.514   5.171  -4.089  0.00  0.00    +0.046 A 
ATOM     31  C   UNL     1       2.376   5.112  -3.376  0.00  0.00    +0.122 A 
ATOM     32  O   UNL     1       2.583   5.717  -2.195  0.00  0.00    -0.463 OA
ENDBRANCH  26  31
ENDBRANCH   1  26
TORSDOF 7
