REMARK  Name = ZINC09705837
REMARK  10 active torsions:
REMARK  status: ('A' for Active; 'I' for Inactive)
REMARK    1  A    between atoms: C_1  and  C_2
REMARK    2  A    between atoms: C_7  and  N_8
REMARK    3  A    between atoms: C_9  and  C_11
REMARK    4  A    between atoms: C_12  and  N_20
REMARK    5  A    between atoms: C_21  and  C_23
REMARK    6  A    between atoms: N_25  and  C_26
REMARK    7  A    between atoms: C_26  and  C_27
REMARK    8  A    between atoms: C_27  and  N_54
REMARK    9  A    between atoms: C_28  and  N_54
REMARK   10  A    between atoms: C_29  and  N_54
REMARK                            x       y       z     vdW  Elec       q    Type
REMARK                         _______ _______ _______ _____ _____    ______ ____
ROOT
ATOM      1  C   UNL     1      -2.525  -0.155   0.486  0.00  0.00    +0.212 A 
ATOM      2  C   UNL     1      -2.376   1.146   0.087  0.00  0.00    +0.093 A 
ATOM      3  C   UNL     1      -3.731   1.640  -0.186  0.00  0.00    +0.042 A 
ATOM      4  C   UNL     1      -4.249   2.859  -0.626  0.00  0.00    +0.013 A 
ATOM      5  C   UNL     1      -5.598   3.000  -0.795  0.00  0.00    +0.001 A 
ATOM      6  C   UNL     1      -6.454   1.938  -0.537  0.00  0.00    +0.004 A 
ATOM      7  C   UNL     1      -5.960   0.725  -0.107  0.00  0.00    +0.047 A 
ATOM      8  C   UNL     1      -4.591   0.559   0.071  0.00  0.00    +0.138 A 
ATOM      9  O   UNL     1      -3.836  -0.484   0.470  0.00  0.00    -0.448 OA
ENDROOT
BRANCH   1  11
ATOM     10  N   UNL     1      -1.692  -2.344   1.147  0.00  0.00    -0.279 N 
ATOM     11  C   UNL     1      -1.435  -1.050   0.869  0.00  0.00    +0.285 C 
ATOM     12  O   UNL     1      -0.295  -0.627   0.938  0.00  0.00    -0.266 OA
ATOM     13  H   UNL     1      -2.608  -2.663   1.169  0.00  0.00    +0.155 HD
BRANCH  10  20
ATOM     14  C   UNL     1      -2.233  -4.671   2.691  0.00  0.00    +0.045 C 
ATOM     15  C   UNL     1      -0.858  -4.375   2.152  0.00  0.00    -0.029 A 
ATOM     16  C   UNL     1       0.185  -5.245   2.402  0.00  0.00    +0.005 A 
ATOM     17  C   UNL     1       1.448  -4.974   1.906  0.00  0.00    +0.000 A 
ATOM     18  C   UNL     1       1.670  -3.831   1.159  0.00  0.00    +0.002 A 
ATOM     19  C   UNL     1       0.630  -2.960   0.901  0.00  0.00    +0.023 A 
ATOM     20  C   UNL     1      -0.638  -3.227   1.402  0.00  0.00    +0.037 A 
ENDBRANCH  10  20
ENDBRANCH   1  11
BRANCH   2  21
ATOM     21  N   UNL     1      -1.188   1.854  -0.029  0.00  0.00    -0.274 N 
ATOM     22  C   UNL     1      -1.157   3.170   0.262  0.00  0.00    +0.303 C 
ATOM     23  O   UNL     1      -2.184   3.757   0.530  0.00  0.00    -0.265 OA
ATOM     24  H   UNL     1      -0.380   1.402  -0.319  0.00  0.00    +0.155 HD
BRANCH  22  25
ATOM     25  C   UNL     1       0.144   3.904   0.261  0.00  0.00    +0.299 C 
ATOM     26  O   UNL     1       1.172   3.317  -0.006  0.00  0.00    -0.265 OA
ATOM     27  N   UNL     1       0.176   5.219   0.557  0.00  0.00    -0.309 N 
ATOM     28  H   UNL     1      -0.646   5.688   0.771  0.00  0.00    +0.149 HD
BRANCH  27  29
ATOM     29  C   UNL     1       1.452   5.939   0.556  0.00  0.00    +0.086 C 
BRANCH  29  30
ATOM     30  C   UNL     1       1.210   7.405   0.922  0.00  0.00    -0.061 C 
BRANCH  30  33
ATOM     31  C   UNL     1       2.276   9.576   1.034  0.00  0.00    -0.097 C 
ATOM     32  C   UNL     1       3.370   7.640   1.992  0.00  0.00    -0.097 C 
ATOM     33  N   UNL     1       2.502   8.122   0.896  0.00  0.00    +0.377 N 
ATOM     34  H   UNL     1       2.966   7.940  -0.002  0.00  0.00    -0.083 HD
ENDBRANCH  30  33
ENDBRANCH  29  30
ENDBRANCH  27  29
ENDBRANCH  22  25
ENDBRANCH   2  21
TORSDOF 7
