REMARK  Name = ZINC39228128
REMARK  7 active torsions:
REMARK  status: ('A' for Active; 'I' for Inactive)
REMARK    1  A    between atoms: C_4  and  C_7
REMARK    2  A    between atoms: C_7  and  C_8
REMARK    3  A    between atoms: C_8  and  C_9
REMARK    4  A    between atoms: C_9  and  C_10
REMARK    5  A    between atoms: C_10  and  N_11
REMARK    6  A    between atoms: C_12  and  C_14
REMARK    7  A    between atoms: C_16  and  O_41
REMARK                            x       y       z     vdW  Elec       q    Type
REMARK                         _______ _______ _______ _____ _____    ______ ____
ROOT
ATOM      1  C   UNL     1       9.161  -3.752   3.943  0.00  0.00    +0.107 C 
ATOM      2  C   UNL     1      10.211  -2.906   3.217  0.00  0.00    +0.127 C 
ATOM      3  C   UNL     1      11.550  -3.644   3.205  0.00  0.00    +0.032 C 
ATOM      4  C   UNL     1      12.006  -3.912   4.642  0.00  0.00    +0.004 C 
ATOM      5  C   UNL     1      10.953  -4.764   5.351  0.00  0.00    -0.024 C 
ATOM      6  C   UNL     1       9.623  -4.006   5.377  0.00  0.00    +0.004 C 
ATOM      7  C   UNL     1       8.581  -4.837   6.130  0.00  0.00    -0.005 C 
ATOM      8  C   UNL     1       9.111  -5.130   7.535  0.00  0.00    -0.020 C 
ATOM      9  C   UNL     1       8.107  -5.949   8.305  0.00  0.00    +0.006 A 
ATOM     10  H   UNL     1       6.254  -5.115   7.848  0.00  0.00    +0.166 HD
ATOM     11  C   UNL     1       8.465  -6.989   9.096  0.00  0.00    -0.022 A 
ATOM     12  C   UNL     1       7.252  -7.529   9.666  0.00  0.00    +0.003 A 
ATOM     13  C   UNL     1       7.003  -8.589  10.543  0.00  0.00    +0.010 A 
ATOM     14  C   UNL     1       5.692  -8.823  10.880  0.00  0.00    +0.001 A 
ATOM     15  C   UNL     1       4.655  -8.052  10.382  0.00  0.00    +0.002 A 
ATOM     16  C   UNL     1       4.872  -6.996   9.512  0.00  0.00    +0.026 A 
ATOM     17  C   UNL     1       6.192  -6.735   9.153  0.00  0.00    +0.047 A 
ATOM     18  N   UNL     1       6.748  -5.793   8.335  0.00  0.00    -0.359 N 
ATOM     19  C   UNL     1       9.894  -7.429   9.288  0.00  0.00    +0.019 C 
ATOM     20  C   UNL     1      10.811  -6.312   8.769  0.00  0.00    -0.073 C 
ATOM     21  N   UNL     1      10.365  -5.889   7.437  0.00  0.00    +0.386 N 
ATOM     22  C   UNL     1      11.391  -5.061   6.787  0.00  0.00    -0.074 C 
ATOM     23  H   UNL     1      10.207  -6.710   6.872  0.00  0.00    -0.081 HD
ENDROOT
BRANCH   1  25
ATOM     24  N   UNL     1       7.245  -2.682   2.801  0.00  0.00    -0.315 N 
ATOM     25  C   UNL     1       7.846  -3.016   3.960  0.00  0.00    +0.219 C 
ATOM     26  O   UNL     1       7.327  -2.725   5.017  0.00  0.00    -0.275 OA
ATOM     27  H   UNL     1       7.660  -2.914   1.955  0.00  0.00    +0.149 HD
BRANCH  24  28
ATOM     28  C   UNL     1       5.967  -1.966   2.818  0.00  0.00    +0.104 C 
BRANCH  28  29
ATOM     29  C   UNL     1       5.507  -1.710   1.381  0.00  0.00    +0.019 C 
BRANCH  29  30
ATOM     30  C   UNL     1       4.171  -0.963   1.399  0.00  0.00    +0.006 C 
BRANCH  30  31
ATOM     31  C   UNL     1       3.711  -0.707  -0.038  0.00  0.00    +0.035 C 
BRANCH  31  35
ATOM     32  C   UNL     1      -0.017   1.378   0.010  0.00  0.00    +0.000 A 
ATOM     33  C   UNL     1       1.171   2.086   0.002  0.00  0.00    +0.000 A 
ATOM     34  C   UNL     1       2.377   1.411  -0.013  0.00  0.00    +0.003 A 
ATOM     35  C   UNL     1       2.396   0.029  -0.020  0.00  0.00    -0.047 A 
ATOM     36  C   UNL     1       1.208  -0.679  -0.012  0.00  0.00    +0.003 A 
ATOM     37  C   UNL     1       0.002  -0.004   0.002  0.00  0.00    +0.000 A 
ENDBRANCH  31  35
ENDBRANCH  30  31
ENDBRANCH  29  30
ENDBRANCH  28  29
ENDBRANCH  24  28
ENDBRANCH   1  25
BRANCH   2  38
ATOM     38  O   UNL     1      10.363  -1.656   3.893  0.00  0.00    -0.391 OA
ATOM     39  H   UNL     1      11.014  -1.067   3.487  0.00  0.00    +0.210 HD
ENDBRANCH   2  38
TORSDOF 7
