REMARK  Name = ZINC05822497
REMARK  17 active torsions:
REMARK  status: ('A' for Active; 'I' for Inactive)
REMARK    1  A    between atoms: C_1  and  O_2
REMARK    2  A    between atoms: O_2  and  C_3
REMARK    3  A    between atoms: C_6  and  C_9
REMARK    4  A    between atoms: C_9  and  C_11
REMARK    5  A    between atoms: C_9  and  N_57
REMARK    6  A    between atoms: C_13  and  C_14
REMARK    7  A    between atoms: C_13  and  N_57
REMARK    8  A    between atoms: C_14  and  C_15
REMARK    9  A    between atoms: C_15  and  C_16
REMARK   10  A    between atoms: C_16  and  C_17
REMARK   11  A    between atoms: C_17  and  C_18
REMARK   12  A    between atoms: C_18  and  N_60
REMARK   13  A    between atoms: C_19  and  C_21
REMARK   14  A    between atoms: C_19  and  C_23
REMARK   15  A    between atoms: C_19  and  N_60
REMARK   16  A    between atoms: C_26  and  O_29
REMARK   17  A    between atoms: O_29  and  C_30
REMARK                            x       y       z     vdW  Elec       q    Type
REMARK                         _______ _______ _______ _____ _____    ______ ____
ROOT
ATOM      1  C   UNL     1      -0.593   5.228  -3.151  0.00  0.00    -0.002 C 
ENDROOT
BRANCH   1   2
ATOM      2  C   UNL     1      -1.050   3.816  -2.779  0.00  0.00    -0.019 C 
BRANCH   2   3
ATOM      3  C   UNL     1      -0.290   3.345  -1.538  0.00  0.00    -0.080 C 
BRANCH   3   4
ATOM      4  N   UNL     1      -0.736   1.984  -1.185  0.00  0.00    +0.392 N 
ATOM      5  H   UNL     1      -1.745   1.998  -0.992  0.00  0.00    -0.084 HD
ATOM      6  H   UNL     1      -0.547   1.351  -1.971  0.00  0.00    -0.084 HD
BRANCH   4   7
ATOM      7  C   UNL     1      -0.018   1.503   0.010  0.00  0.00    +0.064 C 
BRANCH   7  11
ATOM      8  C   UNL     1       0.039  -2.770  -0.013  0.00  0.00    +0.120 A 
ATOM      9  C   UNL     1       1.162  -2.062   0.391  0.00  0.00    +0.046 A 
ATOM     10  C   UNL     1       1.141  -0.681   0.397  0.00  0.00    +0.006 A 
ATOM     11  C   UNL     1       0.002  -0.004   0.002  0.00  0.00    -0.048 A 
ATOM     12  C   UNL     1      -1.120  -0.707  -0.396  0.00  0.00    +0.006 A 
ATOM     13  C   UNL     1      -1.102  -2.089  -0.409  0.00  0.00    +0.046 A 
BRANCH   8  15
ATOM     14  C   UNL     1      -1.134  -4.792  -0.447  0.00  0.00    +0.277 C 
ATOM     15  O   UNL     1       0.058  -4.129  -0.019  0.00  0.00    -0.495 OA
ENDBRANCH   8  15
ENDBRANCH   7  11
BRANCH   7  16
ATOM     16  C   UNL     1      -0.707   1.978   1.221  0.00  0.00    +0.051 C 
ATOM     17  N   UNL     1      -1.239   2.344   2.156  0.00  0.00    -0.198 NA
ENDBRANCH   7  16
ENDBRANCH   4   7
ENDBRANCH   3   4
ENDBRANCH   2   3
ENDBRANCH   1   2
BRANCH   1  18
ATOM     18  C   UNL     1      -1.353   5.699  -4.393  0.00  0.00    -0.002 C 
BRANCH  18  19
ATOM     19  C   UNL     1      -0.896   7.111  -4.765  0.00  0.00    -0.019 C 
BRANCH  19  20
ATOM     20  C   UNL     1      -1.656   7.583  -6.006  0.00  0.00    -0.080 C 
BRANCH  20  21
ATOM     21  N   UNL     1      -1.210   8.944  -6.359  0.00  0.00    +0.392 N 
ATOM     22  H   UNL     1      -0.201   8.930  -6.552  0.00  0.00    -0.084 HD
ATOM     23  H   UNL     1      -1.399   9.576  -5.572  0.00  0.00    -0.084 HD
BRANCH  21  24
ATOM     24  C   UNL     1      -1.927   9.425  -7.554  0.00  0.00    +0.064 C 
BRANCH  24  25
ATOM     25  C   UNL     1      -1.090  10.469  -8.247  0.00  0.00    -0.048 A 
ATOM     26  C   UNL     1      -0.394  11.402  -7.501  0.00  0.00    +0.006 A 
ATOM     27  C   UNL     1       0.379  12.356  -8.134  0.00  0.00    +0.046 A 
ATOM     28  C   UNL     1       0.447  12.385  -9.520  0.00  0.00    +0.120 A 
ATOM     29  C   UNL     1      -0.257  11.451 -10.266  0.00  0.00    +0.046 A 
ATOM     30  C   UNL     1      -1.024  10.495  -9.628  0.00  0.00    +0.006 A 
BRANCH  28  31
ATOM     31  O   UNL     1       1.201  13.327 -10.145  0.00  0.00    -0.495 OA
ATOM     32  C   UNL     1       1.899  14.256  -9.313  0.00  0.00    +0.277 C 
ENDBRANCH  28  31
ENDBRANCH  24  25
BRANCH  24  33
ATOM     33  C   UNL     1      -3.213  10.016  -7.150  0.00  0.00    +0.051 C 
ATOM     34  N   UNL     1      -4.206  10.473  -6.838  0.00  0.00    -0.198 NA
ENDBRANCH  24  33
ENDBRANCH  21  24
ENDBRANCH  20  21
ENDBRANCH  19  20
ENDBRANCH  18  19
ENDBRANCH   1  18
TORSDOF 15
