REMARK  Name = ZINC39984371
REMARK  8 active torsions:
REMARK  status: ('A' for Active; 'I' for Inactive)
REMARK    1  A    between atoms: C_1  and  C_2
REMARK    2  A    between atoms: N_4  and  C_5
REMARK    3  A    between atoms: C_8  and  S_11
REMARK    4  A    between atoms: S_11  and  N_14
REMARK    5  A    between atoms: C_16  and  N_26
REMARK    6  A    between atoms: N_26  and  C_27
REMARK    7  A    between atoms: C_30  and  C_33
REMARK    8  A    between atoms: C_33  and  O_35
REMARK                            x       y       z     vdW  Elec       q    Type
REMARK                         _______ _______ _______ _____ _____    ______ ____
ROOT
ATOM      1  N   UNL     1      -1.079  -7.164   1.807  0.00  0.00    -0.110 NA
ATOM      2  C   UNL     1      -0.920  -8.365   2.280  0.00  0.00    +0.192 C 
ATOM      3  C   UNL     1      -0.860  -8.600   3.772  0.00  0.00    +0.237 C 
ATOM      4  N   UNL     1      -0.679  -9.982   4.244  0.00  0.00    -0.359 N 
ATOM      5  C   UNL     1      -0.579 -10.933   3.358  0.00  0.00    +0.063 A 
ATOM      6  C   UNL     1      -0.396 -12.331   3.777  0.00  0.00    +0.027 A 
ATOM      7  C   UNL     1      -0.297 -13.289   2.830  0.00  0.00    +0.002 A 
ATOM      8  C   UNL     1      -0.363 -12.984   1.460  0.00  0.00    +0.002 A 
ATOM      9  C   UNL     1      -0.529 -11.725   0.999  0.00  0.00    +0.030 A 
ATOM     10  C   UNL     1      -0.645 -10.639   1.905  0.00  0.00    +0.089 A 
ATOM     11  N   UNL     1      -0.811  -9.415   1.450  0.00  0.00    -0.226 NA
ATOM     12  H   UNL     1      -0.634 -10.180   5.192  0.00  0.00    +0.162 HD
ENDROOT
BRANCH   1  13
ATOM     13  S   UNL     1      -1.150  -6.922   0.170  0.00  0.00    +0.100 S 
ATOM     14  O   UNL     1      -2.338  -7.555  -0.283  0.00  0.00    -0.146 OA
ATOM     15  O   UNL     1       0.133  -7.251  -0.345  0.00  0.00    -0.146 OA
BRANCH  13  19
ATOM     16  C   UNL     1      -1.713  -2.478  -0.503  0.00  0.00    +0.033 A 
ATOM     17  C   UNL     1      -0.434  -3.015  -0.429  0.00  0.00    +0.025 A 
ATOM     18  C   UNL     1      -0.265  -4.370  -0.224  0.00  0.00    +0.031 A 
ATOM     19  C   UNL     1      -1.369  -5.193  -0.092  0.00  0.00    +0.113 A 
ATOM     20  C   UNL     1      -2.644  -4.662  -0.165  0.00  0.00    +0.031 A 
ATOM     21  C   UNL     1      -2.819  -3.307  -0.364  0.00  0.00    +0.025 A 
BRANCH  16  25
ATOM     22  C   UNL     1      -3.032   1.038  -0.249  0.00  0.00    +0.109 C 
ATOM     23  C   UNL     1      -2.909  -0.458  -0.117  0.00  0.00    +0.214 C 
ATOM     24  O   UNL     1      -3.729  -1.080   0.525  0.00  0.00    -0.276 OA
ATOM     25  N   UNL     1      -1.887  -1.106  -0.710  0.00  0.00    -0.286 N 
ATOM     26  H   UNL     1      -1.271  -0.620  -1.282  0.00  0.00    +0.155 HD
ENDBRANCH  16  25
ENDBRANCH  13  19
ENDBRANCH   1  13
BRANCH   3  27
ATOM     27  N   UNL     1      -2.103  -8.089   4.355  0.00  0.00    -0.318 N 
ATOM     28  H   UNL     1      -2.952  -8.270   3.923  0.00  0.00    +0.148 HD
BRANCH  27  29
ATOM     29  C   UNL     1      -2.066  -7.344   5.528  0.00  0.00    +0.029 A 
ATOM     30  C   UNL     1      -3.229  -6.751   6.012  0.00  0.00    +0.024 A 
ATOM     31  C   UNL     1      -3.196  -6.016   7.169  0.00  0.00    +0.017 A 
ATOM     32  C   UNL     1      -1.992  -5.862   7.864  0.00  0.00    +0.059 A 
ATOM     33  C   UNL     1      -0.825  -6.460   7.375  0.00  0.00    +0.017 A 
ATOM     34  C   UNL     1      -0.867  -7.198   6.221  0.00  0.00    +0.024 A 
BRANCH  32  35
ATOM     35  C   UNL     1      -1.952  -5.073   9.107  0.00  0.00    +0.337 C 
ATOM     36  O   UNL     1      -2.967  -4.554   9.530  0.00  0.00    -0.245 OA
BRANCH  35  37
ATOM     37  O   UNL     1      -0.791  -4.926   9.776  0.00  0.00    -0.477 OA
ATOM     38  H   UNL     1      -0.865  -4.392  10.579  0.00  0.00    +0.295 HD
ENDBRANCH  35  37
ENDBRANCH  32  35
ENDBRANCH  27  29
ENDBRANCH   3  27
TORSDOF 7
