REMARK  Name = ZINC49590441
REMARK  12 active torsions:
REMARK  status: ('A' for Active; 'I' for Inactive)
REMARK    1  A    between atoms: C_1  and  C_2
REMARK    2  A    between atoms: C_3  and  S_8
REMARK    3  A    between atoms: C_4  and  C_7
REMARK    4  A    between atoms: S_8  and  N_11
REMARK    5  A    between atoms: C_14  and  C_34
REMARK    6  A    between atoms: C_16  and  C_19
REMARK    7  A    between atoms: C_19  and  C_20
REMARK    8  A    between atoms: C_27  and  O_32
REMARK    9  A    between atoms: C_28  and  O_30
REMARK   10  A    between atoms: O_30  and  C_31
REMARK   11  A    between atoms: O_32  and  C_33
REMARK   12  A    between atoms: C_34  and  C_35
REMARK                            x       y       z     vdW  Elec       q    Type
REMARK                         _______ _______ _______ _____ _____    ______ ____
ROOT
ATOM      1  N   UNL     1       1.249   0.268  -3.453  0.00  0.00    -0.176 NA
ATOM      2  C   UNL     1       2.196   1.371  -3.241  0.00  0.00    +0.110 C 
ATOM      3  C   UNL     1       3.482   0.807  -2.629  0.00  0.00    +0.021 C 
ATOM      4  C   UNL     1       4.016  -0.317  -3.520  0.00  0.00    +0.006 C 
ATOM      5  C   UNL     1       2.983  -1.443  -3.597  0.00  0.00    +0.014 C 
ATOM      6  C   UNL     1       1.693  -0.907  -4.215  0.00  0.00    +0.113 C 
ENDROOT
BRANCH   1   7
ATOM      7  S   UNL     1      -0.287   0.345  -2.839  0.00  0.00    +0.066 S 
ATOM      8  O   UNL     1      -0.267   1.332  -1.817  0.00  0.00    -0.153 OA
ATOM      9  O   UNL     1      -0.694  -0.995  -2.596  0.00  0.00    -0.153 OA
BRANCH   7  12
ATOM     10  C   UNL     1      -1.828  -1.294  -5.296  0.00  0.00    +0.071 C 
ATOM     11  C   UNL     1      -1.945   0.198  -5.124  0.00  0.00    +0.107 A 
ATOM     12  C   UNL     1      -1.329   0.964  -4.118  0.00  0.00    +0.170 A 
ATOM     13  C   UNL     1      -1.674   2.253  -4.301  0.00  0.00    +0.161 A 
ATOM     14  O   UNL     1      -2.476   2.318  -5.375  0.00  0.00    -0.358 OA
ATOM     15  N   UNL     1      -2.629   1.005  -5.884  0.00  0.00    -0.081 NA
ATOM     16  C   UNL     1      -1.237   3.417  -3.450  0.00  0.00    +0.091 C 
ENDBRANCH   7  12
ENDBRANCH   1   7
BRANCH   5  17
ATOM     17  C   UNL     1       2.692  -1.967  -2.189  0.00  0.00    +0.060 C 
BRANCH  17  18
ATOM     18  C   UNL     1       1.804  -3.182  -2.279  0.00  0.00    +0.044 C 
ATOM     19  N   UNL     1       1.496  -3.676  -3.432  0.00  0.00    -0.287 NA
ATOM     20  C   UNL     1       0.628  -4.840  -3.572  0.00  0.00    +0.146 C 
ATOM     21  C   UNL     1       0.862  -5.843  -2.443  0.00  0.00    +0.059 C 
ATOM     22  C   UNL     1       0.817  -5.127  -1.119  0.00  0.00    -0.033 A 
ATOM     23  C   UNL     1       1.290  -3.813  -1.050  0.00  0.00    +0.003 A 
ATOM     24  C   UNL     1       1.264  -3.127   0.162  0.00  0.00    +0.059 A 
ATOM     25  C   UNL     1       0.775  -3.756   1.293  0.00  0.00    +0.162 A 
ATOM     26  C   UNL     1       0.310  -5.067   1.217  0.00  0.00    +0.162 A 
ATOM     27  C   UNL     1       0.326  -5.744   0.008  0.00  0.00    +0.053 A 
BRANCH  26  28
ATOM     28  O   UNL     1      -0.170  -5.681   2.330  0.00  0.00    -0.491 OA
ATOM     29  C   UNL     1      -0.630  -7.026   2.182  0.00  0.00    +0.277 C 
ENDBRANCH  26  28
BRANCH  25  30
ATOM     30  O   UNL     1       0.747  -3.093   2.480  0.00  0.00    -0.491 OA
ATOM     31  C   UNL     1       1.135  -1.718   2.465  0.00  0.00    +0.277 C 
ENDBRANCH  25  30
ENDBRANCH  17  18
ENDBRANCH   5  17
BRANCH   4  32
ATOM     32  C   UNL     1       5.319  -0.860  -2.929  0.00  0.00    +0.129 C 
BRANCH  32  33
ATOM     33  C   UNL     1       6.374   0.214  -2.968  0.00  0.00    +0.356 C 
ATOM     34  O   UNL     1       6.109   1.313  -3.425  0.00  0.00    -0.246 OA
ATOM     35  O   UNL     1       7.493  -0.015  -2.542  0.00  0.00    -0.246 OA
ENDBRANCH  32  33
ENDBRANCH   4  32
TORSDOF 8
