REMARK  Name = ZINC63376333
REMARK  10 active torsions:
REMARK  status: ('A' for Active; 'I' for Inactive)
REMARK    1  A    between atoms: C_1  and  O_2
REMARK    2  A    between atoms: O_2  and  C_3
REMARK    3  A    between atoms: C_6  and  C_9
REMARK    4  A    between atoms: C_9  and  N_10
REMARK    5  A    between atoms: C_11  and  C_13
REMARK    6  A    between atoms: C_13  and  C_15
REMARK    7  A    between atoms: C_13  and  N_21
REMARK    8  A    between atoms: C_22  and  C_24
REMARK    9  A    between atoms: C_30  and  O_34
REMARK   10  A    between atoms: O_34  and  C_35
REMARK                            x       y       z     vdW  Elec       q    Type
REMARK                         _______ _______ _______ _____ _____    ______ ____
ROOT
ATOM      1  C   UNL     1      -7.052  -3.705  -2.999  0.00  0.00    +0.190 C 
ENDROOT
BRANCH   1   2
ATOM      2  C   UNL     1      -7.186  -2.381  -3.708  0.00  0.00    -0.018 A 
ATOM      3  C   UNL     1      -8.309  -1.601  -3.506  0.00  0.00    +0.006 A 
ATOM      4  C   UNL     1      -8.432  -0.387  -4.156  0.00  0.00    +0.000 A 
ATOM      5  C   UNL     1      -7.432   0.047  -5.006  0.00  0.00    +0.000 A 
ATOM      6  C   UNL     1      -6.309  -0.733  -5.207  0.00  0.00    +0.000 A 
ATOM      7  C   UNL     1      -6.184  -1.946  -4.554  0.00  0.00    +0.006 A 
ENDBRANCH   1   2
BRANCH   1   9
ATOM      8  N   UNL     1      -5.423  -2.855  -1.343  0.00  0.00    -0.309 N 
ATOM      9  C   UNL     1      -6.597  -3.473  -1.582  0.00  0.00    +0.238 C 
ATOM     10  O   UNL     1      -7.288  -3.841  -0.655  0.00  0.00    -0.273 OA
ATOM     11  H   UNL     1      -4.871  -2.561  -2.084  0.00  0.00    +0.149 HD
BRANCH   8  12
ATOM     12  C   UNL     1      -4.981  -2.629   0.035  0.00  0.00    +0.139 C 
BRANCH  12  16
ATOM     13  C   UNL     1      -1.200  -0.637   0.010  0.00  0.00    +0.120 A 
ATOM     14  C   UNL     1      -2.375   0.101   0.019  0.00  0.00    +0.046 A 
ATOM     15  C   UNL     1      -3.596  -0.545   0.027  0.00  0.00    +0.009 A 
ATOM     16  C   UNL     1      -3.648  -1.927   0.026  0.00  0.00    -0.030 A 
ATOM     17  C   UNL     1      -2.479  -2.665   0.017  0.00  0.00    +0.009 A 
ATOM     18  C   UNL     1      -1.255  -2.024   0.003  0.00  0.00    +0.046 A 
BRANCH  13  20
ATOM     19  C   UNL     1      -0.017   1.425   0.010  0.00  0.00    +0.277 C 
ATOM     20  O   UNL     1       0.002  -0.004   0.002  0.00  0.00    -0.495 OA
ENDBRANCH  13  20
ENDBRANCH  12  16
ENDBRANCH   8  12
ENDBRANCH   1   9
BRANCH   1  21
ATOM     21  N   UNL     1      -8.348  -4.388  -2.991  0.00  0.00    -0.298 N 
ATOM     22  C   UNL     1      -8.722  -5.137  -4.047  0.00  0.00    +0.240 C 
ATOM     23  O   UNL     1      -7.986  -5.246  -5.004  0.00  0.00    -0.273 OA
ATOM     24  H   UNL     1      -8.937  -4.301  -2.225  0.00  0.00    +0.150 HD
BRANCH  22  25
ATOM     25  C   UNL     1     -10.056  -5.840  -4.038  0.00  0.00    +0.190 C 
ATOM     26  C   UNL     1     -11.177  -4.828  -3.964  0.00  0.00    +0.016 C 
ATOM     27  C   UNL     1     -11.911  -4.998  -5.086  0.00  0.00    -0.003 A 
ATOM     28  C   UNL     1     -13.117  -4.330  -5.594  0.00  0.00    +0.013 A 
ATOM     29  C   UNL     1     -13.638  -4.726  -6.775  0.00  0.00    +0.046 A 
ATOM     30  C   UNL     1     -13.055  -5.763  -7.529  0.00  0.00    +0.122 A 
ATOM     31  C   UNL     1     -11.941  -6.424  -7.122  0.00  0.00    +0.071 A 
ATOM     32  C   UNL     1     -11.316  -6.085  -5.896  0.00  0.00    +0.047 A 
ATOM     33  N   UNL     1     -10.251  -6.569  -5.296  0.00  0.00    -0.370 N 
ATOM     34  H   UNL     1      -9.689  -7.287  -5.627  0.00  0.00    +0.161 HD
BRANCH  30  35
ATOM     35  O   UNL     1     -13.627  -6.113  -8.708  0.00  0.00    -0.495 OA
ATOM     36  C   UNL     1     -14.797  -5.393  -9.101  0.00  0.00    +0.277 C 
ENDBRANCH  30  35
ENDBRANCH  22  25
ENDBRANCH   1  21
TORSDOF 8
