REMARK  Name = ZINC63314924
REMARK  6 active torsions:
REMARK  status: ('A' for Active; 'I' for Inactive)
REMARK    1  A    between atoms: N_17  and  C_18
REMARK    2  A    between atoms: C_18  and  C_19
REMARK    3  A    between atoms: C_19  and  C_20
REMARK    4  A    between atoms: C_20  and  C_21
REMARK    5  A    between atoms: N_23  and  C_24
REMARK    6  A    between atoms: C_27  and  O_30
REMARK                            x       y       z     vdW  Elec       q    Type
REMARK                         _______ _______ _______ _____ _____    ______ ____
ROOT
ATOM      1  C   UNL     1       0.021   1.429   1.657  0.00  0.00    +0.001 A 
ATOM      2  C   UNL     1       1.205   2.176   1.601  0.00  0.00    +0.002 A 
ATOM      3  C   UNL     1       2.414   1.611   1.399  0.00  0.00    +0.026 A 
ATOM      4  C   UNL     1       2.533   0.204   1.232  0.00  0.00    +0.043 A 
ATOM      5  N   UNL     1       3.579  -0.567   1.047  0.00  0.00    -0.376 N 
ATOM      6  C   UNL     1       3.117  -1.941   0.862  0.00  0.00    +0.124 C 
ATOM      7  C   UNL     1       3.744  -2.897   1.883  0.00  0.00    +0.138 C 
ATOM      8  N   UNL     1       2.943  -4.131   1.896  0.00  0.00    -0.283 N 
ATOM      9  C   UNL     1       1.518  -4.094   2.240  0.00  0.00    +0.114 C 
ATOM     10  C   UNL     1       0.784  -3.151   1.269  0.00  0.00    +0.052 C 
ATOM     11  C   UNL     1       1.621  -1.901   1.127  0.00  0.00    -0.036 C 
ATOM     12  C   UNL     1       1.295  -0.612   1.294  0.00  0.00    -0.001 A 
ATOM     13  C   UNL     1       0.021   0.085   1.514  0.00  0.00    +0.010 A 
ATOM     14  C   UNL     1       3.525  -5.308   1.588  0.00  0.00    +0.302 C 
ATOM     15  O   UNL     1       4.680  -5.334   1.209  0.00  0.00    -0.253 OA
ATOM     16  N   UNL     1       2.827  -6.455   1.700  0.00  0.00    -0.299 N 
ATOM     17  H   UNL     1       1.885  -6.429   1.932  0.00  0.00    +0.150 HD
ATOM     18  H   UNL     1       4.504  -0.275   1.035  0.00  0.00    +0.160 HD
ENDROOT
BRANCH  16  19
ATOM     19  C   UNL     1       3.489  -7.741   1.471  0.00  0.00    +0.106 C 
BRANCH  19  20
ATOM     20  C   UNL     1       2.480  -8.876   1.660  0.00  0.00    +0.028 C 
BRANCH  20  21
ATOM     21  C   UNL     1       3.172 -10.219   1.421  0.00  0.00    +0.097 C 
BRANCH  21  22
ATOM     22  C   UNL     1       2.178 -11.336   1.607  0.00  0.00    +0.217 C 
ATOM     23  O   UNL     1       1.029 -11.083   1.902  0.00  0.00    -0.275 OA
ATOM     24  N   UNL     1       2.566 -12.617   1.446  0.00  0.00    -0.285 N 
ATOM     25  H   UNL     1       3.499 -12.824   1.283  0.00  0.00    +0.155 HD
BRANCH  24  26
ATOM     26  C   UNL     1       1.620 -13.649   1.513  0.00  0.00    +0.034 A 
ATOM     27  C   UNL     1       1.977 -14.884   2.036  0.00  0.00    +0.027 A 
ATOM     28  C   UNL     1       1.045 -15.901   2.103  0.00  0.00    +0.047 A 
ATOM     29  C   UNL     1      -0.248 -15.688   1.647  0.00  0.00    +0.117 A 
ATOM     30  C   UNL     1      -0.605 -14.453   1.124  0.00  0.00    +0.047 A 
ATOM     31  C   UNL     1       0.325 -13.434   1.063  0.00  0.00    +0.027 A 
BRANCH  29  32
ATOM     32  O   UNL     1      -1.165 -16.689   1.713  0.00  0.00    -0.507 OA
ATOM     33  H   UNL     1      -1.670 -16.707   2.537  0.00  0.00    +0.292 HD
ENDBRANCH  29  32
ENDBRANCH  24  26
ENDBRANCH  21  22
ENDBRANCH  20  21
ENDBRANCH  19  20
ENDBRANCH  16  19
TORSDOF 6
