REMARK  Name = ZINC67501951
REMARK  6 active torsions:
REMARK  status: ('A' for Active; 'I' for Inactive)
REMARK    1  A    between atoms: C_3  and  C_9
REMARK    2  A    between atoms: C_12  and  C_14
REMARK    3  A    between atoms: C_14  and  N_15
REMARK    4  A    between atoms: N_15  and  C_16
REMARK    5  A    between atoms: N_21  and  C_23
REMARK    6  A    between atoms: C_23  and  C_24
REMARK                            x       y       z     vdW  Elec       q    Type
REMARK                         _______ _______ _______ _____ _____    ______ ____
ROOT
ATOM      1  N   UNL     1       6.677   4.207  -2.412  0.00  0.00    +0.386 N 
ATOM      2  H   UNL     1       7.355   3.539  -2.076  0.00  0.00    -0.085 HD
ATOM      3  H   UNL     1       6.047   3.751  -3.055  0.00  0.00    -0.085 HD
ENDROOT
BRANCH   1   4
ATOM      4  C   UNL     1       7.371   5.303  -3.102  0.00  0.00    -0.057 C 
ATOM      5  C   UNL     1       6.341   6.250  -3.722  0.00  0.00    -0.013 C 
ATOM      6  C   UNL     1       7.072   7.356  -4.488  0.00  0.00    +0.014 C 
ATOM      7  C   UNL     1       7.970   6.723  -5.554  0.00  0.00    +0.085 C 
ATOM      8  N   UNL     1       8.938   5.826  -4.910  0.00  0.00    -0.296 NA
ATOM      9  C   UNL     1       8.261   4.729  -4.207  0.00  0.00    +0.069 C 
BRANCH   8  10
ATOM     10  C   UNL     1       9.905   5.308  -5.887  0.00  0.00    +0.180 C 
BRANCH  10  11
ATOM     11  C   UNL     1      10.754   6.441  -6.403  0.00  0.00    +0.225 C 
ATOM     12  O   UNL     1      10.572   7.569  -5.998  0.00  0.00    -0.275 OA
ATOM     13  N   UNL     1      11.716   6.200  -7.316  0.00  0.00    -0.328 N 
ATOM     14  H   UNL     1      11.863   5.298  -7.640  0.00  0.00    +0.145 HD
ATOM     15  H   UNL     1      12.263   6.929  -7.648  0.00  0.00    +0.145 HD
ENDBRANCH  10  11
ENDBRANCH   8  10
ENDBRANCH   1   4
BRANCH   1  16
ATOM     16  C   UNL     1       5.916   4.746  -1.278  0.00  0.00    -0.006 C 
BRANCH  16  20
ATOM     17  C   UNL     1       3.656   2.164  -0.022  0.00  0.00    +0.137 A 
ATOM     18  C   UNL     1       4.713   1.955   0.807  0.00  0.00    +0.050 A 
ATOM     19  C   UNL     1       5.702   2.894   0.448  0.00  0.00    +0.043 A 
ATOM     20  C   UNL     1       5.204   3.621  -0.571  0.00  0.00    +0.089 A 
ATOM     21  O   UNL     1       3.970   3.174  -0.855  0.00  0.00    -0.462 OA
BRANCH  17  24
ATOM     22  C   UNL     1      -0.017   1.379   0.010  0.00  0.00    +0.002 A 
ATOM     23  C   UNL     1       1.167   2.089   0.002  0.00  0.00    +0.013 A 
ATOM     24  C   UNL     1       2.385   1.409  -0.013  0.00  0.00    +0.037 A 
ATOM     25  C   UNL     1       2.399   0.013  -0.021  0.00  0.00    +0.070 A 
ATOM     26  C   UNL     1       1.207  -0.686  -0.013  0.00  0.00    +0.060 A 
ATOM     27  C   UNL     1       0.002  -0.004   0.002  0.00  0.00    +0.021 A 
ATOM     28 CL   UNL     1       1.220  -2.422  -0.022  0.00  0.00    -0.082 Cl
ATOM     29 CL   UNL     1       3.909  -0.843  -0.040  0.00  0.00    -0.081 Cl
ENDBRANCH  17  24
ENDBRANCH  16  20
ENDBRANCH   1  16
TORSDOF 6
