REMARK  Name = ZINC43091168
REMARK  8 active torsions:
REMARK  status: ('A' for Active; 'I' for Inactive)
REMARK    1  A    between atoms: C_1  and  C_2
REMARK    2  A    between atoms: C_2  and  C_3
REMARK    3  A    between atoms: C_3  and  C_5
REMARK    4  A    between atoms: C_3  and  N_22
REMARK    5  A    between atoms: C_5  and  C_7
REMARK    6  A    between atoms: C_5  and  N_14
REMARK    7  A    between atoms: C_17  and  C_20
REMARK    8  A    between atoms: C_20  and  O_21
REMARK                            x       y       z     vdW  Elec       q    Type
REMARK                         _______ _______ _______ _____ _____    ______ ____
ROOT
ATOM      1  C   UNL     1      -1.283  -1.859   0.127  0.00  0.00    +0.073 C 
ENDROOT
BRANCH   1   2
ATOM      2  C   UNL     1      -0.591  -1.953   1.462  0.00  0.00    -0.018 A 
ATOM      3  C   UNL     1      -1.329  -2.176   2.609  0.00  0.00    +0.006 A 
ATOM      4  C   UNL     1      -0.694  -2.263   3.834  0.00  0.00    +0.000 A 
ATOM      5  C   UNL     1       0.680  -2.127   3.912  0.00  0.00    +0.001 A 
ATOM      6  C   UNL     1       1.419  -1.904   2.766  0.00  0.00    +0.015 A 
ATOM      7  C   UNL     1       0.784  -1.822   1.539  0.00  0.00    +0.022 A 
ATOM      8 BR   UNL     1       1.795  -1.524  -0.031  0.00  0.00    -0.050 Br
ENDBRANCH   1   2
BRANCH   1   9
ATOM      9  N   UNL     1      -2.469  -2.726   0.128  0.00  0.00    -0.297 NA
ATOM     10  C   UNL     1      -3.241  -2.562  -1.110  0.00  0.00    +0.085 C 
ATOM     11  C   UNL     1      -4.539  -3.367  -1.013  0.00  0.00    +0.021 C 
ATOM     12  C   UNL     1      -4.203  -4.844  -0.791  0.00  0.00    +0.017 C 
ATOM     13  C   UNL     1      -3.357  -4.982   0.478  0.00  0.00    +0.021 C 
ATOM     14  C   UNL     1      -2.093  -4.130   0.338  0.00  0.00    +0.085 C 
BRANCH  12  15
ATOM     15  C   UNL     1      -5.497  -5.645  -0.632  0.00  0.00    +0.159 C 
BRANCH  15  16
ATOM     16  O   UNL     1      -5.187  -7.037  -0.542  0.00  0.00    -0.395 OA
ATOM     17  H   UNL     1      -5.962  -7.607  -0.439  0.00  0.00    +0.209 HD
ENDBRANCH  15  16
ENDBRANCH  12  15
ENDBRANCH   1   9
BRANCH   1  18
ATOM     18  C   UNL     1      -1.710  -0.411  -0.125  0.00  0.00    -0.053 C 
BRANCH  18  19
ATOM     19  N   UNL     1      -0.539   0.470  -0.019  0.00  0.00    +0.381 N 
ATOM     20  H   UNL     1      -0.117   0.360   0.891  0.00  0.00    -0.090 HD
ATOM     21  H   UNL     1       0.131   0.226  -0.733  0.00  0.00    -0.090 HD
ATOM     22  H   UNL     1      -0.828   1.429  -0.142  0.00  0.00    -0.090 HD
ENDBRANCH  18  19
BRANCH  18  24
ATOM     23  C   UNL     1      -3.278   1.400   0.584  0.00  0.00    +0.002 C 
ATOM     24  C   UNL     1      -2.755   0.000   0.914  0.00  0.00    -0.018 C 
ENDBRANCH  18  24
ENDBRANCH   1  18
TORSDOF 7
