REMARK  Name = ZINC47968528
REMARK  9 active torsions:
REMARK  status: ('A' for Active; 'I' for Inactive)
REMARK    1  A    between atoms: C_1  and  C_2
REMARK    2  A    between atoms: C_2  and  C_3
REMARK    3  A    between atoms: N_5  and  C_6
REMARK    4  A    between atoms: C_9  and  N_13
REMARK    5  A    between atoms: C_11  and  C_12
REMARK    6  A    between atoms: N_16  and  C_17
REMARK    7  A    between atoms: C_17  and  C_18
REMARK    8  A    between atoms: C_18  and  C_19
REMARK    9  A    between atoms: C_18  and  N_24
REMARK                            x       y       z     vdW  Elec       q    Type
REMARK                         _______ _______ _______ _____ _____    ______ ____
ROOT
ATOM      1  N   UNL     1       3.639  -3.576  -5.966  0.00  0.00    -0.269 N 
ATOM      2  C   UNL     1       4.377  -2.699  -6.675  0.00  0.00    +0.304 C 
ATOM      3  O   UNL     1       4.310  -1.510  -6.431  0.00  0.00    -0.253 OA
ATOM      4  N   UNL     1       5.190  -3.141  -7.656  0.00  0.00    -0.300 N 
ATOM      5  H   UNL     1       3.642  -4.516  -6.204  0.00  0.00    +0.156 HD
ATOM      6  H   UNL     1       5.243  -4.090  -7.851  0.00  0.00    +0.150 HD
ENDROOT
BRANCH   1  10
ATOM      7  C   UNL     1       1.343  -2.245  -2.749  0.00  0.00    +0.036 A 
ATOM      8  C   UNL     1       1.952  -3.492  -2.699  0.00  0.00    +0.025 A 
ATOM      9  C   UNL     1       2.711  -3.933  -3.764  0.00  0.00    +0.025 A 
ATOM     10  C   UNL     1       2.867  -3.129  -4.885  0.00  0.00    +0.035 A 
ATOM     11  C   UNL     1       2.259  -1.881  -4.935  0.00  0.00    +0.028 A 
ATOM     12  C   UNL     1       1.494  -1.444  -3.873  0.00  0.00    -0.027 A 
ATOM     13  C   UNL     1       0.828  -0.093  -3.930  0.00  0.00    +0.046 C 
BRANCH   7  16
ATOM     14  C   UNL     1       0.007  -2.688  -0.830  0.00  0.00    +0.217 C 
ATOM     15  O   UNL     1       0.083  -3.876  -1.065  0.00  0.00    -0.275 OA
ATOM     16  N   UNL     1       0.572  -1.798  -1.668  0.00  0.00    -0.285 N 
ATOM     17  H   UNL     1       0.445  -0.847  -1.524  0.00  0.00    +0.155 HD
BRANCH  14  19
ATOM     18  C   UNL     1      -1.263  -3.412   1.174  0.00  0.00    +0.013 C 
ATOM     19  C   UNL     1      -0.720  -2.209   0.401  0.00  0.00    +0.093 C 
ENDBRANCH  14  19
ENDBRANCH   7  16
ENDBRANCH   1  10
BRANCH   4  20
ATOM     20  C   UNL     1       5.992  -2.188  -8.427  0.00  0.00    +0.098 C 
BRANCH  20  21
ATOM     21  C   UNL     1       6.725  -2.928  -9.547  0.00  0.00    +0.016 C 
BRANCH  21  22
ATOM     22  N   UNL     1       7.496  -4.040  -8.977  0.00  0.00    +0.387 N 
ATOM     23  C   UNL     1       8.388  -3.529  -7.929  0.00  0.00    -0.078 C 
ATOM     24  C   UNL     1       9.134  -4.694  -7.275  0.00  0.00    -0.019 C 
ATOM     25  C   UNL     1       9.960  -5.425  -8.338  0.00  0.00    -0.004 C 
ATOM     26  C   UNL     1       9.030  -5.889  -9.463  0.00  0.00    -0.019 C 
ATOM     27  C   UNL     1       8.287  -4.679 -10.035  0.00  0.00    -0.078 C 
ATOM     28  H   UNL     1       6.863  -4.717  -8.576  0.00  0.00    -0.081 HD
ENDBRANCH  21  22
BRANCH  21  29
ATOM     29  C   UNL     1       5.722  -3.467 -10.534  0.00  0.00    +0.093 A 
ATOM     30  C   UNL     1       5.405  -2.910 -11.717  0.00  0.00    +0.043 A 
ATOM     31  C   UNL     1       4.428  -3.741 -12.312  0.00  0.00    +0.041 A 
ATOM     32  C   UNL     1       4.205  -4.755 -11.457  0.00  0.00    +0.195 A 
ATOM     33  O   UNL     1       4.996  -4.587 -10.384  0.00  0.00    -0.469 OA
ENDBRANCH  21  29
ENDBRANCH  20  21
ENDBRANCH   4  20
TORSDOF 7
