REMARK  Name = ZINC42955629
REMARK  10 active torsions:
REMARK  status: ('A' for Active; 'I' for Inactive)
REMARK    1  A    between atoms: C_1  and  C_2
REMARK    2  A    between atoms: C_2  and  C_3
REMARK    3  A    between atoms: C_3  and  C_5
REMARK    4  A    between atoms: C_3  and  N_22
REMARK    5  A    between atoms: C_5  and  C_7
REMARK    6  A    between atoms: C_5  and  N_14
REMARK    7  A    between atoms: N_14  and  C_15
REMARK    8  A    between atoms: N_14  and  C_17
REMARK    9  A    between atoms: C_15  and  C_16
REMARK   10  A    between atoms: C_17  and  C_18
REMARK                            x       y       z     vdW  Elec       q    Type
REMARK                         _______ _______ _______ _____ _____    ______ ____
ROOT
ATOM      1  C   UNL     1       1.193  -1.924  -1.049  0.00  0.00    +0.073 C 
ENDROOT
BRANCH   1   2
ATOM      2  C   UNL     1       1.997  -2.465  -2.203  0.00  0.00    -0.032 A 
ATOM      3  C   UNL     1       3.362  -2.643  -2.070  0.00  0.00    +0.006 A 
ATOM      4  C   UNL     1       4.100  -3.139  -3.127  0.00  0.00    +0.015 A 
ATOM      5  C   UNL     1       3.474  -3.458  -4.319  0.00  0.00    +0.018 A 
ATOM      6  C   UNL     1       2.108  -3.280  -4.451  0.00  0.00    +0.015 A 
ATOM      7  C   UNL     1       1.370  -2.788  -3.391  0.00  0.00    +0.006 A 
ATOM      8 BR   UNL     1       4.483  -4.137  -5.767  0.00  0.00    -0.050 Br
ENDBRANCH   1   2
BRANCH   1   9
ATOM      9  C   UNL     1       1.572  -0.462  -0.803  0.00  0.00    -0.053 C 
BRANCH   9  10
ATOM     10  N   UNL     1       1.455   0.292  -2.059  0.00  0.00    +0.381 N 
ATOM     11  H   UNL     1       1.705   1.256  -1.897  0.00  0.00    -0.090 HD
ATOM     12  H   UNL     1       2.075  -0.105  -2.749  0.00  0.00    -0.090 HD
ATOM     13  H   UNL     1       0.504   0.242  -2.393  0.00  0.00    -0.090 HD
ENDBRANCH   9  10
BRANCH   9  15
ATOM     14  C   UNL     1       1.019   1.598   0.497  0.00  0.00    +0.002 C 
ATOM     15  C   UNL     1       0.632   0.140   0.243  0.00  0.00    -0.018 C 
ENDBRANCH   9  15
ENDBRANCH   1   9
BRANCH   1  16
ATOM     16  N   UNL     1       1.476  -2.712   0.158  0.00  0.00    -0.289 NA
BRANCH  16  17
ATOM     17  C   UNL     1       2.595  -2.135   0.913  0.00  0.00    +0.082 C 
ATOM     18  C   UNL     1       2.772  -2.900   2.227  0.00  0.00    +0.020 C 
ENDBRANCH  16  17
BRANCH  16  19
ATOM     19  C   UNL     1       1.738  -4.117  -0.181  0.00  0.00    +0.198 C 
BRANCH  19  20
ATOM     20  C   UNL     1       0.416  -4.823  -0.489  0.00  0.00    +0.402 C 
ATOM     21  F   UNL     1      -0.146  -4.277  -1.648  0.00  0.00    -0.169 F 
ATOM     22  F   UNL     1       0.650  -6.189  -0.683  0.00  0.00    -0.169 F 
ATOM     23  F   UNL     1      -0.466  -4.649   0.584  0.00  0.00    -0.169 F 
ENDBRANCH  19  20
ENDBRANCH  16  19
ENDBRANCH   1  16
TORSDOF 8
