REMARK  Name = ZINC66822728
REMARK  7 active torsions:
REMARK  status: ('A' for Active; 'I' for Inactive)
REMARK    1  A    between atoms: C_1  and  C_2
REMARK    2  A    between atoms: C_2  and  C_4
REMARK    3  A    between atoms: C_2  and  N_18
REMARK    4  A    between atoms: C_10  and  N_13
REMARK    5  A    between atoms: N_13  and  S_14
REMARK    6  A    between atoms: S_14  and  C_17
REMARK    7  A    between atoms: C_19  and  C_21
REMARK                            x       y       z     vdW  Elec       q    Type
REMARK                         _______ _______ _______ _____ _____    ______ ____
ROOT
ATOM      1  C   UNL     1      -1.391  -0.566   0.128  0.00  0.00    +0.236 C 
ATOM      2  O   UNL     1      -1.701  -1.203   1.113  0.00  0.00    -0.274 OA
ATOM      3  N   UNL     1      -2.294  -0.354  -0.850  0.00  0.00    -0.298 N 
ATOM      4  C   UNL     1      -1.904   0.321  -2.095  0.00  0.00    +0.108 C 
ATOM      5  C   UNL     1      -2.851   1.502  -2.332  0.00  0.00    +0.021 C 
ATOM      6  C   UNL     1      -4.298   1.002  -2.314  0.00  0.00    +0.023 C 
ATOM      7  C   UNL     1      -4.613   0.397  -0.944  0.00  0.00    +0.093 C 
ATOM      8  C   UNL     1      -3.685  -0.801  -0.694  0.00  0.00    +0.128 C 
ENDROOT
BRANCH   1  10
ATOM      9  C   UNL     1       0.023   1.440   0.482  0.00  0.00    +0.038 C 
ATOM     10  C   UNL     1       0.004  -0.011  -0.002  0.00  0.00    +0.156 C 
BRANCH  10  11
ATOM     11  N   UNL     1       0.925  -0.809   0.812  0.00  0.00    -0.304 N 
ATOM     12  C   UNL     1       2.235  -0.857   0.497  0.00  0.00    +0.217 C 
ATOM     13  O   UNL     1       2.651  -0.239  -0.460  0.00  0.00    -0.275 OA
ATOM     14  H   UNL     1       0.592  -1.303   1.577  0.00  0.00    +0.149 HD
BRANCH  12  15
ATOM     15  C   UNL     1       3.182  -1.678   1.333  0.00  0.00    +0.079 C 
ATOM     16  C   UNL     1       3.176  -1.157   2.774  0.00  0.00    +0.041 C 
ATOM     17  C   UNL     1       4.198  -1.945   3.597  0.00  0.00    +0.160 C 
ATOM     18  O   UNL     1       5.489  -1.820   2.998  0.00  0.00    -0.380 OA
ATOM     19  C   UNL     1       5.567  -2.334   1.667  0.00  0.00    +0.160 C 
ATOM     20  C   UNL     1       4.600  -1.562   0.765  0.00  0.00    +0.041 C 
ENDBRANCH  12  15
ENDBRANCH  10  11
ENDBRANCH   1  10
BRANCH   7  21
ATOM     21  N   UNL     1      -6.007  -0.052  -0.917  0.00  0.00    -0.190 NA
ATOM     22  H   UNL     1      -6.240  -0.931  -1.255  0.00  0.00    +0.148 HD
BRANCH  21  23
ATOM     23  S   UNL     1      -7.186   0.941  -0.310  0.00  0.00    +0.027 S 
ATOM     24  O   UNL     1      -8.385   0.187  -0.417  0.00  0.00    -0.158 OA
ATOM     25  O   UNL     1      -6.697   1.349   0.960  0.00  0.00    -0.158 OA
ATOM     26  C   UNL     1      -7.234   2.355  -1.445  0.00  0.00    +0.214 C 
ENDBRANCH  21  23
ENDBRANCH   7  21
TORSDOF 5
