REMARK  Name = ZINC27323082
REMARK  12 active torsions:
REMARK  status: ('A' for Active; 'I' for Inactive)
REMARK    1  A    between atoms: C_1  and  C_2
REMARK    2  A    between atoms: C_2  and  C_4
REMARK    3  A    between atoms: C_2  and  N_14
REMARK    4  A    between atoms: C_7  and  S_10
REMARK    5  A    between atoms: S_10  and  N_13
REMARK    6  A    between atoms: C_15  and  C_17
REMARK    7  A    between atoms: C_17  and  C_19
REMARK    8  A    between atoms: C_17  and  N_20
REMARK    9  A    between atoms: C_21  and  C_23
REMARK   10  A    between atoms: C_24  and  C_25
REMARK   11  A    between atoms: C_28  and  O_31
REMARK   12  A    between atoms: O_31  and  C_32
REMARK                            x       y       z     vdW  Elec       q    Type
REMARK                         _______ _______ _______ _____ _____    ______ ____
ROOT
ATOM      1  N   UNL     1       1.362   1.593  -0.002  0.00  0.00    -0.307 N 
ATOM      2  C   UNL     1       2.331   0.926   0.654  0.00  0.00    +0.234 C 
ATOM      3  O   UNL     1       2.066  -0.095   1.254  0.00  0.00    -0.274 OA
ATOM      4  H   UNL     1       1.602   2.518  -0.546  0.00  0.00    +0.149 HD
ENDROOT
BRANCH   1   6
ATOM      5  C   UNL     1      -0.729   1.579   1.267  0.00  0.00    +0.033 C 
ATOM      6  C   UNL     1      -0.013   1.086   0.008  0.00  0.00    +0.100 C 
BRANCH   6   7
ATOM      7  C   UNL     1      -0.742   1.585  -1.213  0.00  0.00    -0.027 A 
ATOM      8  C   UNL     1      -0.551   2.883  -1.649  0.00  0.00    +0.007 A 
ATOM      9  C   UNL     1      -1.216   3.339  -2.772  0.00  0.00    +0.029 A 
ATOM     10  C   UNL     1      -2.079   2.501  -3.452  0.00  0.00    +0.105 A 
ATOM     11  C   UNL     1      -2.273   1.205  -3.013  0.00  0.00    +0.029 A 
ATOM     12  C   UNL     1      -1.605   0.747  -1.893  0.00  0.00    +0.007 A 
BRANCH  10  13
ATOM     13  S   UNL     1      -2.932   3.085  -4.879  0.00  0.00    +0.056 S 
ATOM     14  O   UNL     1      -2.163   4.160  -5.401  0.00  0.00    -0.153 OA
ATOM     15  O   UNL     1      -3.263   1.939  -5.652  0.00  0.00    -0.153 OA
BRANCH  13  16
ATOM     16  N   UNL     1      -4.364   3.736  -4.361  0.00  0.00    -0.204 NA
ATOM     17  H   UNL     1      -4.929   4.114  -5.226  0.00  0.00    +0.144 HD
ATOM     18  H   UNL     1      -4.161   4.564  -3.666  0.00  0.00    +0.144 HD
ENDBRANCH  13  16
ENDBRANCH  10  13
ENDBRANCH   6   7
ENDBRANCH   1   6
BRANCH   2  19
ATOM     19  C   UNL     1       3.745   1.447   0.644  0.00  0.00    +0.156 C 
ATOM     20  C   UNL     1       3.777   2.847   1.260  0.00  0.00    +0.038 C 
BRANCH  19  21
ATOM     21  N   UNL     1       4.602   0.550   1.423  0.00  0.00    -0.301 N 
ATOM     22  C   UNL     1       5.924   0.492   1.168  0.00  0.00    +0.237 C 
ATOM     23  O   UNL     1       6.406   1.184   0.290  0.00  0.00    -0.271 OA
ATOM     24  H   UNL     1       4.167  -0.075   2.216  0.00  0.00    +0.150 HD
BRANCH  22  25
ATOM     25  C   UNL     1       6.780  -0.403   1.946  0.00  0.00    +0.068 C 
ATOM     26  C   UNL     1       8.104  -0.462   1.691  0.00  0.00    +0.013 C 
BRANCH  26  27
ATOM     27  C   UNL     1       8.964  -1.361   2.473  0.00  0.00    -0.025 A 
ATOM     28  C   UNL     1       8.414  -2.154   3.486  0.00  0.00    +0.011 A 
ATOM     29  C   UNL     1       9.223  -3.000   4.212  0.00  0.00    +0.046 A 
ATOM     30  C   UNL     1      10.586  -3.058   3.947  0.00  0.00    +0.120 A 
ATOM     31  C   UNL     1      11.139  -2.268   2.945  0.00  0.00    +0.046 A 
ATOM     32  C   UNL     1      10.338  -1.424   2.210  0.00  0.00    +0.011 A 
BRANCH  30  33
ATOM     33  O   UNL     1      11.380  -3.889   4.669  0.00  0.00    -0.495 OA
ATOM     34  C   UNL     1      10.748  -4.673   5.682  0.00  0.00    +0.277 C 
ENDBRANCH  30  33
ENDBRANCH  26  27
ENDBRANCH  22  25
ENDBRANCH  19  21
ENDBRANCH   2  19
TORSDOF 9
