REMARK  Name = ZINC39631218
REMARK  15 active torsions:
REMARK  status: ('A' for Active; 'I' for Inactive)
REMARK    1  A    between atoms: C_1  and  C_2
REMARK    2  A    between atoms: C_2  and  C_3
REMARK    3  A    between atoms: C_3  and  C_4
REMARK    4  A    between atoms: C_4  and  C_6
REMARK    5  A    between atoms: C_4  and  C_7
REMARK    6  A    between atoms: C_11  and  C_20
REMARK    7  A    between atoms: N_22  and  C_23
REMARK    8  A    between atoms: C_23  and  C_25
REMARK    9  A    between atoms: C_23  and  C_26
REMARK   10  A    between atoms: C_26  and  C_27
REMARK   11  A    between atoms: C_27  and  C_28
REMARK   12  A    between atoms: C_28  and  C_29
REMARK   13  A    between atoms: C_29  and  C_30
REMARK   14  A    between atoms: C_29  and  C_31
REMARK   15  A    between atoms: C_29  and  O_32
REMARK                            x       y       z     vdW  Elec       q    Type
REMARK                         _______ _______ _______ _____ _____    ______ ____
ROOT
ATOM      1  C   UNL     1       1.770  -2.723  -2.472  0.00  0.00    +0.218 C 
ATOM      2  O   UNL     1       2.438  -2.002  -3.182  0.00  0.00    -0.275 OA
ATOM      3  N   UNL     1       1.726  -4.049  -2.710  0.00  0.00    -0.300 N 
ATOM      4  C   UNL     1       0.890  -5.067  -2.030  0.00  0.00    +0.121 C 
ATOM      5  C   UNL     1       0.441  -6.021  -3.159  0.00  0.00    +0.100 C 
ATOM      6  C   UNL     1       1.502  -5.855  -4.259  0.00  0.00    -0.004 C 
ATOM      7  C   UNL     1       2.497  -4.818  -3.717  0.00  0.00    +0.115 C 
ATOM      8  C   UNL     1       2.209  -7.182  -4.515  0.00  0.00    -0.010 C 
ATOM      9  C   UNL     1       3.220  -7.006  -5.652  0.00  0.00    -0.082 C 
ATOM     10  N   UNL     1       2.522  -6.559  -6.864  0.00  0.00    +0.379 N 
ATOM     11  C   UNL     1       1.923  -5.238  -6.638  0.00  0.00    -0.082 C 
ATOM     12  C   UNL     1       0.858  -5.339  -5.542  0.00  0.00    -0.010 C 
ATOM     13  H   UNL     1       3.180  -6.502  -7.627  0.00  0.00    -0.086 HD
ATOM     14  H   UNL     1       1.797  -7.220  -7.097  0.00  0.00    -0.086 HD
ENDROOT
BRANCH   5  15
ATOM     15  C   UNL     1       0.413  -7.444  -2.663  0.00  0.00    +0.218 C 
ATOM     16  O   UNL     1       1.179  -7.798  -1.793  0.00  0.00    -0.275 OA
ATOM     17  N   UNL     1      -0.465  -8.323  -3.187  0.00  0.00    -0.312 N 
ATOM     18  H   UNL     1      -1.078  -8.039  -3.883  0.00  0.00    +0.149 HD
BRANCH  17  19
ATOM     19  C   UNL     1      -0.492  -9.706  -2.705  0.00  0.00    +0.070 C 
ATOM     20  C   UNL     1      -1.373  -9.794  -1.458  0.00  0.00    +0.028 C 
BRANCH  19  21
ATOM     21  C   UNL     1      -1.061 -10.615  -3.797  0.00  0.00    +0.022 C 
BRANCH  21  22
ATOM     22  C   UNL     1      -0.114 -10.623  -4.998  0.00  0.00    +0.005 C 
BRANCH  22  23
ATOM     23  C   UNL     1      -0.682 -11.532  -6.090  0.00  0.00    +0.034 C 
BRANCH  23  24
ATOM     24  C   UNL     1       0.265 -11.541  -7.291  0.00  0.00    +0.061 C 
ATOM     25  C   UNL     1      -0.362 -12.349  -8.429  0.00  0.00    +0.041 C 
ATOM     26  C   UNL     1       0.508 -10.104  -7.759  0.00  0.00    +0.041 C 
BRANCH  24  27
ATOM     27  O   UNL     1       1.508 -12.136  -6.914  0.00  0.00    -0.389 OA
ATOM     28  H   UNL     1       1.430 -13.049  -6.606  0.00  0.00    +0.210 HD
ENDBRANCH  24  27
ENDBRANCH  23  24
ENDBRANCH  22  23
ENDBRANCH  21  22
ENDBRANCH  19  21
ENDBRANCH  17  19
ENDBRANCH   5  15
BRANCH   1  29
ATOM     29  C   UNL     1       0.990  -2.138  -1.323  0.00  0.00    +0.072 C 
ATOM     30  C   UNL     1      -0.404  -1.732  -1.807  0.00  0.00    +0.017 C 
BRANCH  29  31
ATOM     31  C   UNL     1       1.721  -0.906  -0.785  0.00  0.00    +0.012 C 
BRANCH  31  33
ATOM     32  C   UNL     1       1.728   0.847   0.995  0.00  0.00    +0.004 C 
ATOM     33  C   UNL     1       0.996  -0.385   0.457  0.00  0.00    -0.003 C 
ENDBRANCH  31  33
ENDBRANCH  29  31
ENDBRANCH   1  29
TORSDOF 10
