REMARK  Name = ZINC05150025
REMARK  1 active torsions:
REMARK  status: ('A' for Active; 'I' for Inactive)
REMARK    1  A    between atoms: C_2  and  N_9
REMARK                            x       y       z     vdW  Elec       q    Type
REMARK                         _______ _______ _______ _____ _____    ______ ____
ROOT
ATOM      1  N   UNL     1      -1.762   2.796  -0.704  0.00  0.00    -0.208 N 
ATOM      2  C   UNL     1      -1.815   2.895   0.632  0.00  0.00    +0.229 C 
ATOM      3  O   UNL     1      -2.611   3.564   1.256  0.00  0.00    -0.275 OA
ATOM      4  C   UNL     1      -0.723   2.037   1.238  0.00  0.00    +0.138 C 
ATOM      5  C   UNL     1      -0.036   1.430   0.011  0.00  0.00    +0.170 C 
ATOM      6  C   UNL     1      -0.790   1.990  -1.162  0.00  0.00    +0.256 C 
ATOM      7  O   UNL     1      -0.558   1.755  -2.328  0.00  0.00    -0.272 OA
ATOM      8  C   UNL     1       1.451   1.819  -0.039  0.00  0.00    +0.087 C 
ATOM      9  C   UNL     1       2.049   0.503  -0.602  0.00  0.00    +0.221 C 
ATOM     10  N   UNL     1       1.038  -0.515  -0.279  0.00  0.00    -0.172 NA
ATOM     11  N   UNL     1      -0.051  -0.027   0.038  0.00  0.00    -0.174 NA
ATOM     12 CL   UNL     1       3.614   0.119   0.207  0.00  0.00    -0.094 Cl
ENDROOT
BRANCH   1  14
ATOM     13  C   UNL     1      -3.994   3.138  -1.567  0.00  0.00    +0.044 A 
ATOM     14  C   UNL     1      -2.647   3.476  -1.552  0.00  0.00    +0.047 A 
ATOM     15  C   UNL     1      -2.180   4.492  -2.374  0.00  0.00    +0.044 A 
ATOM     16  C   UNL     1      -3.054   5.158  -3.213  0.00  0.00    +0.044 A 
ATOM     17  C   UNL     1      -4.396   4.819  -3.226  0.00  0.00    +0.040 A 
ATOM     18  C   UNL     1      -4.865   3.810  -2.404  0.00  0.00    +0.044 A 
ATOM     19 CL   UNL     1      -6.549   3.388  -2.423  0.00  0.00    -0.083 Cl
ATOM     20 CL   UNL     1      -2.470   6.425  -4.246  0.00  0.00    -0.083 Cl
ENDBRANCH   1  14
TORSDOF 1
