REMARK  Name = ZINC64164334
REMARK  9 active torsions:
REMARK  status: ('A' for Active; 'I' for Inactive)
REMARK    1  A    between atoms: C_1  and  C_2
REMARK    2  A    between atoms: C_2  and  C_3
REMARK    3  A    between atoms: C_2  and  C_4
REMARK    4  A    between atoms: C_4  and  C_6
REMARK    5  A    between atoms: C_4  and  N_15
REMARK    6  A    between atoms: C_16  and  C_18
REMARK    7  A    between atoms: C_18  and  S_19
REMARK    8  A    between atoms: S_19  and  C_20
REMARK    9  A    between atoms: N_25  and  C_26
REMARK                            x       y       z     vdW  Elec       q    Type
REMARK                         _______ _______ _______ _____ _____    ______ ____
ROOT
ATOM      1  N   UNL     1      -2.148   0.022   1.023  0.00  0.00    -0.308 N 
ATOM      2  C   UNL     1      -2.107  -0.463   2.279  0.00  0.00    +0.223 C 
ATOM      3  O   UNL     1      -1.442  -1.447   2.528  0.00  0.00    -0.275 OA
ATOM      4  H   UNL     1      -2.680   0.809   0.824  0.00  0.00    +0.149 HD
ENDROOT
BRANCH   1   5
ATOM      5  C   UNL     1      -1.390  -0.638  -0.043  0.00  0.00    +0.118 C 
BRANCH   5   6
ATOM      6  C   UNL     1      -2.043  -0.339  -1.394  0.00  0.00    +0.195 C 
ATOM      7  N   UNL     1      -2.125   1.112  -1.604  0.00  0.00    -0.362 N 
ATOM      8  C   UNL     1      -3.384   1.419  -1.724  0.00  0.00    +0.060 A 
ATOM      9  C   UNL     1      -4.086   2.690  -1.946  0.00  0.00    +0.027 A 
ATOM     10  C   UNL     1      -5.432   2.702  -2.030  0.00  0.00    +0.002 A 
ATOM     11  C   UNL     1      -6.208   1.535  -1.912  0.00  0.00    +0.002 A 
ATOM     12  C   UNL     1      -5.666   0.319  -1.707  0.00  0.00    +0.027 A 
ATOM     13  C   UNL     1      -4.207   0.184  -1.600  0.00  0.00    +0.060 A 
ATOM     14  N   UNL     1      -3.424  -0.838  -1.407  0.00  0.00    -0.362 N 
ATOM     15  H   UNL     1      -1.378   1.729  -1.645  0.00  0.00    +0.162 HD
ATOM     16  H   UNL     1      -3.702  -1.760  -1.294  0.00  0.00    +0.162 HD
ENDBRANCH   5   6
BRANCH   5  18
ATOM     17  C   UNL     1       0.736  -0.510   1.263  0.00  0.00    +0.009 C 
ATOM     18  C   UNL     1       0.048  -0.115  -0.045  0.00  0.00    +0.007 C 
ATOM     19  C   UNL     1       0.810  -0.721  -1.225  0.00  0.00    +0.009 C 
ENDBRANCH   5  18
ENDBRANCH   1   5
BRANCH   2  20
ATOM     20  C   UNL     1      -2.887   0.216   3.376  0.00  0.00    +0.168 C 
BRANCH  20  21
ATOM     21  S   UNL     1      -2.628  -0.668   4.938  0.00  0.00    -0.103 S 
BRANCH  21  22
ATOM     22  C   UNL     1      -3.620   0.262   6.138  0.00  0.00    +0.294 C 
ATOM     23  N   UNL     1      -3.203   1.670   6.165  0.00  0.00    -0.135 NA
ATOM     24  N   UNL     1      -4.147   2.389   5.837  0.00  0.00    -0.066 NA
ATOM     25  N   UNL     1      -5.305   1.667   5.545  0.00  0.00    -0.164 N 
ATOM     26  N   UNL     1      -5.034   0.295   5.720  0.00  0.00    -0.200 N 
ATOM     27  H   UNL     1      -6.154   2.046   5.268  0.00  0.00    +0.195 HD
BRANCH  26  28
ATOM     28  C   UNL     1      -5.902  -0.785   5.539  0.00  0.00    +0.071 A 
ATOM     29  C   UNL     1      -6.112  -1.690   6.571  0.00  0.00    +0.026 A 
ATOM     30  C   UNL     1      -6.970  -2.756   6.388  0.00  0.00    +0.002 A 
ATOM     31  C   UNL     1      -7.620  -2.924   5.179  0.00  0.00    +0.002 A 
ATOM     32  C   UNL     1      -7.414  -2.026   4.149  0.00  0.00    +0.022 A 
ATOM     33  C   UNL     1      -6.561  -0.953   4.327  0.00  0.00    +0.064 A 
ATOM     34 CL   UNL     1      -6.309   0.180   3.035  0.00  0.00    -0.082 Cl
ENDBRANCH  26  28
ENDBRANCH  21  22
ENDBRANCH  20  21
ENDBRANCH   2  20
TORSDOF 7
