REMARK  Name = ZINC50227101
REMARK  8 active torsions:
REMARK  status: ('A' for Active; 'I' for Inactive)
REMARK    1  A    between atoms: C_1  and  C_2
REMARK    2  A    between atoms: C_5  and  C_7
REMARK    3  A    between atoms: C_7  and  N_8
REMARK    4  A    between atoms: N_8  and  S_9
REMARK    5  A    between atoms: S_9  and  C_12
REMARK    6  A    between atoms: C_15  and  C_18
REMARK    7  A    between atoms: C_19  and  C_20
REMARK    8  A    between atoms: C_20  and  O_21
REMARK                            x       y       z     vdW  Elec       q    Type
REMARK                         _______ _______ _______ _____ _____    ______ ____
ROOT
ATOM      1  S   UNL     1       2.118  -5.855  -1.743  0.00  0.00    +0.059 S 
ATOM      2  O   UNL     1       2.067  -6.043  -3.150  0.00  0.00    -0.153 OA
ATOM      3  O   UNL     1       3.343  -5.702  -1.038  0.00  0.00    -0.153 OA
ENDROOT
BRANCH   1   4
ATOM      4  C   UNL     1       1.291  -7.233  -1.020  0.00  0.00    +0.105 A 
ATOM      5  C   UNL     1       1.578  -7.603   0.281  0.00  0.00    +0.030 A 
ATOM      6  C   UNL     1       0.933  -8.681   0.853  0.00  0.00    +0.019 A 
ATOM      7  C   UNL     1      -0.010  -9.397   0.115  0.00  0.00    +0.025 A 
ATOM      8  C   UNL     1      -0.295  -9.018  -1.197  0.00  0.00    +0.019 A 
ATOM      9  C   UNL     1       0.353  -7.936  -1.755  0.00  0.00    +0.030 A 
BRANCH   7  10
ATOM     10  C   UNL     1      -0.683 -10.517   0.702  0.00  0.00    -0.064 C 
ATOM     11  C   UNL     1      -1.234 -11.435   1.184  0.00  0.00    -0.069 C 
BRANCH  11  12
ATOM     12  C   UNL     1      -1.925 -12.586   1.787  0.00  0.00    +0.244 C 
BRANCH  12  13
ATOM     13  O   UNL     1      -2.834 -13.147   0.838  0.00  0.00    -0.383 OA
ATOM     14  H   UNL     1      -3.326 -13.911   1.168  0.00  0.00    +0.211 HD
ENDBRANCH  12  13
ENDBRANCH  11  12
ENDBRANCH   7  10
ENDBRANCH   1   4
BRANCH   1  15
ATOM     15  N   UNL     1       1.210  -4.510  -1.412  0.00  0.00    -0.185 NA
ATOM     16  H   UNL     1       0.789  -4.019  -2.134  0.00  0.00    +0.148 HD
BRANCH  15  17
ATOM     17  C   UNL     1       1.043  -4.062  -0.027  0.00  0.00    +0.148 C 
BRANCH  17  22
ATOM     18  C   UNL     1      -0.018   1.503   0.010  0.00  0.00    +0.051 C 
ATOM     19  C   UNL     1       0.002  -0.004   0.002  0.00  0.00    -0.013 A 
ATOM     20  C   UNL     1      -1.039  -0.872   0.002  0.00  0.00    +0.011 A 
ATOM     21  C   UNL     1      -0.780  -2.230  -0.007  0.00  0.00    +0.013 A 
ATOM     22  C   UNL     1       0.507  -2.653  -0.016  0.00  0.00    +0.005 A 
ATOM     23  S   UNL     1       1.404  -1.109  -0.018  0.00  0.00    -0.097 S 
ENDBRANCH  17  22
ENDBRANCH  15  17
ENDBRANCH   1  15
TORSDOF 7
