REMARK  Name = ZINC05012908
REMARK  3 active torsions:
REMARK  status: ('A' for Active; 'I' for Inactive)
REMARK    1  A    between atoms: C_1  and  C_2
REMARK    2  A    between atoms: C_6  and  N_8
REMARK    3  A    between atoms: N_18  and  C_21
REMARK                            x       y       z     vdW  Elec       q    Type
REMARK                         _______ _______ _______ _____ _____    ______ ____
ROOT
ATOM      1  N   UNL     1       3.829  -0.630  -0.037  0.00  0.00    -0.249 N 
ATOM      2  C   UNL     1       4.704   0.553  -0.039  0.00  0.00    +0.126 C 
ATOM      3  C   UNL     1       5.631   0.496   1.194  0.00  0.00    +0.190 C 
ATOM      4  S   UNL     1       5.594   2.253   1.759  0.00  0.00    -0.027 S 
ATOM      5  O   UNL     1       6.510   3.015   0.985  0.00  0.00    -0.174 OA
ATOM      6  O   UNL     1       5.665   2.293   3.178  0.00  0.00    -0.174 OA
ATOM      7  C   UNL     1       3.871   2.638   1.222  0.00  0.00    +0.190 C 
ATOM      8  C   UNL     1       3.732   1.736  -0.024  0.00  0.00    +0.126 C 
ATOM      9  N   UNL     1       2.402   1.105  -0.015  0.00  0.00    -0.249 N 
ATOM     10  C   UNL     1       2.551  -0.226  -0.017  0.00  0.00    +0.314 C 
ATOM     11  O   UNL     1       1.612  -0.999  -0.006  0.00  0.00    -0.252 OA
ENDROOT
BRANCH   9  12
ATOM     12  C   UNL     1       1.180   1.787   0.000  0.00  0.00    +0.040 A 
ATOM     13  C   UNL     1       1.157   3.176   0.008  0.00  0.00    +0.025 A 
ATOM     14  C   UNL     1      -0.050   3.846   0.023  0.00  0.00    +0.023 A 
ATOM     15  C   UNL     1      -1.237   3.136   0.031  0.00  0.00    +0.059 A 
ATOM     16  C   UNL     1      -1.219   1.751   0.017  0.00  0.00    +0.061 A 
ATOM     17  C   UNL     1      -0.013   1.076   0.008  0.00  0.00    +0.045 A 
ATOM     18 CL   UNL     1      -2.710   0.864   0.019  0.00  0.00    -0.082 Cl
ATOM     19 CL   UNL     1      -2.753   3.982   0.049  0.00  0.00    -0.082 Cl
ENDBRANCH   9  12
BRANCH   1  25
ATOM     20  C   UNL     1       2.755  -5.428  -0.050  0.00  0.00    +0.044 C 
ATOM     21  C   UNL     1       3.761  -4.306  -0.054  0.00  0.00    -0.049 A 
ATOM     22  C   UNL     1       5.114  -4.592  -0.069  0.00  0.00    +0.003 A 
ATOM     23  C   UNL     1       6.041  -3.566  -0.072  0.00  0.00    +0.002 A 
ATOM     24  C   UNL     1       5.618  -2.252  -0.062  0.00  0.00    +0.023 A 
ATOM     25  C   UNL     1       4.261  -1.961  -0.048  0.00  0.00    +0.038 A 
ATOM     26  C   UNL     1       3.332  -2.994  -0.038  0.00  0.00    +0.027 A 
ENDBRANCH   1  25
TORSDOF 2
