REMARK  Name = ZINC40162245
REMARK  7 active torsions:
REMARK  status: ('A' for Active; 'I' for Inactive)
REMARK    1  A    between atoms: C_1  and  C_2
REMARK    2  A    between atoms: C_2  and  C_4
REMARK    3  A    between atoms: C_2  and  N_16
REMARK    4  A    between atoms: N_6  and  C_7
REMARK    5  A    between atoms: C_10  and  C_13
REMARK    6  A    between atoms: N_19  and  C_22
REMARK    7  A    between atoms: C_22  and  C_23
REMARK                            x       y       z     vdW  Elec       q    Type
REMARK                         _______ _______ _______ _____ _____    ______ ____
ROOT
ATOM      1  C   UNL     1       0.088   1.046   0.889  0.00  0.00    -0.004 C 
ATOM      2  C   UNL     1      -0.007  -0.153  -0.056  0.00  0.00    +0.017 C 
ENDROOT
BRANCH   2   3
ATOM      3  N   UNL     1       0.903  -1.212   0.402  0.00  0.00    +0.389 N 
ATOM      4  C   UNL     1       0.879  -2.326  -0.555  0.00  0.00    -0.062 C 
ATOM      5  C   UNL     1       1.812  -3.437  -0.069  0.00  0.00    +0.066 C 
ATOM      6  N   UNL     1       3.177  -2.906   0.057  0.00  0.00    -0.301 NA
ATOM      7  C   UNL     1       3.212  -1.774   0.993  0.00  0.00    +0.066 C 
ATOM      8  C   UNL     1       2.268  -0.677   0.498  0.00  0.00    -0.062 C 
ATOM      9  H   UNL     1       0.607  -1.541   1.308  0.00  0.00    -0.081 HD
BRANCH   6  10
ATOM     10  C   UNL     1       4.115  -3.959   0.468  0.00  0.00    +0.126 C 
BRANCH  10  11
ATOM     11  C   UNL     1       5.528  -3.447   0.349  0.00  0.00    +0.005 A 
ATOM     12  C   UNL     1       6.286  -2.813   1.276  0.00  0.00    +0.014 A 
ATOM     13  C   UNL     1       7.572  -2.429   0.942  0.00  0.00    +0.028 A 
ATOM     14  C   UNL     1       8.035  -2.699  -0.304  0.00  0.00    +0.078 A 
ATOM     15  S   UNL     1       6.638  -3.526  -1.046  0.00  0.00    -0.080 S 
ATOM     16 CL   UNL     1       9.587  -2.339  -0.995  0.00  0.00    -0.076 Cl
ENDBRANCH  10  11
ENDBRANCH   6  10
ENDBRANCH   2   3
BRANCH   2  17
ATOM     17  C   UNL     1      -1.421  -0.675  -0.065  0.00  0.00    +0.203 C 
ATOM     18  O   UNL     1      -1.748  -1.552   0.706  0.00  0.00    -0.277 OA
ATOM     19  N   UNL     1      -2.321  -0.167  -0.929  0.00  0.00    -0.287 N 
ATOM     20  H   UNL     1      -2.043   0.485  -1.592  0.00  0.00    +0.155 HD
BRANCH  19  21
ATOM     21  C   UNL     1      -3.652  -0.578  -0.871  0.00  0.00    +0.033 A 
ATOM     22  C   UNL     1      -4.223  -0.910   0.353  0.00  0.00    +0.024 A 
ATOM     23  C   UNL     1      -5.537  -1.317   0.414  0.00  0.00    +0.015 A 
ATOM     24  C   UNL     1      -6.298  -1.394  -0.756  0.00  0.00    +0.037 A 
ATOM     25  C   UNL     1      -5.721  -1.059  -1.984  0.00  0.00    +0.015 A 
ATOM     26  C   UNL     1      -4.408  -0.649  -2.037  0.00  0.00    +0.024 A 
BRANCH  24  27
ATOM     27  C   UNL     1      -7.707  -1.830  -0.694  0.00  0.00    +0.242 C 
ATOM     28  O   UNL     1      -8.207  -2.122   0.375  0.00  0.00    -0.270 OA
ATOM     29  N   UNL     1      -8.439  -1.904  -1.823  0.00  0.00    -0.325 N 
ATOM     30  H   UNL     1      -8.040  -1.672  -2.676  0.00  0.00    +0.145 HD
ATOM     31  H   UNL     1      -9.365  -2.191  -1.783  0.00  0.00    +0.145 HD
ENDBRANCH  24  27
ENDBRANCH  19  21
ENDBRANCH   2  17
TORSDOF 6
