REMARK  Name = ZINC28292760
REMARK  12 active torsions:
REMARK  status: ('A' for Active; 'I' for Inactive)
REMARK    1  A    between atoms: C_1  and  C_2
REMARK    2  A    between atoms: C_5  and  N_9
REMARK    3  A    between atoms: C_7  and  C_8
REMARK    4  A    between atoms: C_14  and  C_16
REMARK    5  A    between atoms: N_18  and  C_19
REMARK    6  A    between atoms: C_19  and  C_20
REMARK    7  A    between atoms: C_20  and  C_22
REMARK    8  A    between atoms: C_20  and  N_32
REMARK    9  A    between atoms: C_25  and  C_28
REMARK   10  A    between atoms: C_28  and  C_29
REMARK   11  A    between atoms: C_28  and  C_30
REMARK   12  A    between atoms: C_28  and  C_31
REMARK                            x       y       z     vdW  Elec       q    Type
REMARK                         _______ _______ _______ _____ _____    ______ ____
ROOT
ATOM      1  C   UNL     1      -3.202   3.477  -1.375  0.00  0.00    +0.268 C 
ATOM      2  O   UNL     1      -2.319   3.466  -0.539  0.00  0.00    -0.268 OA
ATOM      3  N   UNL     1      -4.367   2.843  -1.134  0.00  0.00    -0.311 N 
ATOM      4  H   UNL     1      -5.165   2.854  -1.890  0.00  0.00    +0.149 HD
ENDROOT
BRANCH   1  10
ATOM      5  N   UNL     1      -3.800   4.815  -4.686  0.00  0.00    -0.239 N 
ATOM      6  C   UNL     1      -2.673   5.488  -5.027  0.00  0.00    +0.117 A 
ATOM      7  C   UNL     1      -1.618   5.548  -4.179  0.00  0.00    +0.073 A 
ATOM      8  C   UNL     1      -1.734   4.886  -2.929  0.00  0.00    +0.212 A 
ATOM      9  O   UNL     1      -0.823   4.899  -2.116  0.00  0.00    -0.285 OA
ATOM     10  C   UNL     1      -2.998   4.185  -2.654  0.00  0.00    +0.192 A 
ATOM     11  N   UNL     1      -3.945   4.205  -3.568  0.00  0.00    -0.158 NA
BRANCH   5  16
ATOM     12  C   UNL     1      -8.091   4.699  -8.395  0.00  0.00    +0.044 C 
ATOM     13  C   UNL     1      -6.951   4.729  -7.410  0.00  0.00    -0.047 A 
ATOM     14  C   UNL     1      -6.940   3.853  -6.340  0.00  0.00    +0.006 A 
ATOM     15  C   UNL     1      -5.897   3.879  -5.435  0.00  0.00    +0.028 A 
ATOM     16  C   UNL     1      -4.858   4.786  -5.601  0.00  0.00    +0.066 A 
ATOM     17  C   UNL     1      -4.874   5.668  -6.674  0.00  0.00    +0.031 A 
ATOM     18  C   UNL     1      -5.918   5.633  -7.578  0.00  0.00    -0.046 A 
ATOM     19  C   UNL     1      -5.934   6.585  -8.746  0.00  0.00    +0.044 C 
ENDBRANCH   5  16
ENDBRANCH   1  10
BRANCH   3  20
ATOM     20  C   UNL     1      -4.569   2.141   0.136  0.00  0.00    +0.094 C 
BRANCH  20  21
ATOM     21  C   UNL     1      -5.925   1.431   0.115  0.00  0.00    -0.020 C 
BRANCH  21  22
ATOM     22  C   UNL     1      -7.027   2.456   0.043  0.00  0.00    -0.059 A 
ATOM     23  C   UNL     1      -7.434   3.115   1.188  0.00  0.00    +0.002 A 
ATOM     24  C   UNL     1      -8.442   4.059   1.122  0.00  0.00    +0.004 A 
ATOM     25  C   UNL     1      -9.050   4.336  -0.088  0.00  0.00    -0.042 A 
ATOM     26  C   UNL     1      -8.647   3.673  -1.232  0.00  0.00    +0.004 A 
ATOM     27  C   UNL     1      -7.636   2.733  -1.167  0.00  0.00    +0.002 A 
BRANCH  25  28
ATOM     28  C   UNL     1     -10.153   5.361  -0.160  0.00  0.00    -0.013 C 
ATOM     29  C   UNL     1     -11.432   4.698  -0.674  0.00  0.00    +0.015 C 
ATOM     30  C   UNL     1     -10.402   5.940   1.234  0.00  0.00    +0.015 C 
ATOM     31  C   UNL     1      -9.743   6.485  -1.114  0.00  0.00    +0.015 C 
ENDBRANCH  25  28
ENDBRANCH  21  22
BRANCH  21  32
ATOM     32  N   UNL     1      -6.078   0.632   1.338  0.00  0.00    +0.385 N 
ATOM     33  C   UNL     1      -7.372  -0.098   1.339  0.00  0.00    -0.078 C 
ATOM     34  C   UNL     1      -7.136  -1.235   2.364  0.00  0.00    -0.020 C 
ATOM     35  C   UNL     1      -5.665  -1.633   2.107  0.00  0.00    -0.020 C 
ATOM     36  C   UNL     1      -5.029  -0.406   1.428  0.00  0.00    -0.078 C 
ATOM     37  H   UNL     1      -6.011   1.346   2.172  0.00  0.00    -0.081 HD
ENDBRANCH  21  32
ENDBRANCH  20  21
ENDBRANCH   3  20
TORSDOF 7
