REMARK  Name = ZINC64502496
REMARK  7 active torsions:
REMARK  status: ('A' for Active; 'I' for Inactive)
REMARK    1  A    between atoms: C_1  and  C_2
REMARK    2  A    between atoms: C_6  and  C_9
REMARK    3  A    between atoms: N_11  and  C_12
REMARK    4  A    between atoms: C_16  and  C_18
REMARK    5  A    between atoms: N_20  and  C_21
REMARK    6  A    between atoms: C_21  and  C_22
REMARK    7  A    between atoms: C_22  and  C_23
REMARK                            x       y       z     vdW  Elec       q    Type
REMARK                         _______ _______ _______ _____ _____    ______ ____
ROOT
ATOM      1  C   UNL     1       0.194  -4.895   2.150  0.00  0.00    +0.034 A 
ATOM      2  C   UNL     1       1.280  -5.742   2.339  0.00  0.00    +0.023 A 
ATOM      3  C   UNL     1       1.112  -6.956   2.978  0.00  0.00    +0.003 A 
ATOM      4  C   UNL     1      -0.135  -7.335   3.433  0.00  0.00    +0.013 A 
ATOM      5  C   UNL     1      -1.231  -6.492   3.249  0.00  0.00    +0.038 A 
ATOM      6  C   UNL     1      -1.061  -5.264   2.609  0.00  0.00    +0.036 A 
ENDROOT
BRANCH   1   9
ATOM      7  C   UNL     1      -0.347  -2.593   1.889  0.00  0.00    +0.246 C 
ATOM      8  O   UNL     1      -1.201  -2.709   2.742  0.00  0.00    -0.273 OA
ATOM      9  N   UNL     1       0.369  -3.667   1.502  0.00  0.00    -0.283 N 
ATOM     10  H   UNL     1       1.005  -3.590   0.774  0.00  0.00    +0.155 HD
BRANCH   7  15
ATOM     11  C   UNL     1       1.994   0.266  -1.849  0.00  0.00    +0.037 C 
ATOM     12  C   UNL     1       1.853  -0.671  -0.648  0.00  0.00    +0.125 C 
ATOM     13  N   UNL     1       1.861   0.089   0.642  0.00  0.00    -0.242 NA
ATOM     14  N   UNL     1       1.234  -0.705   1.692  0.00  0.00    -0.234 NA
ATOM     15  C   UNL     1      -0.085  -1.248   1.262  0.00  0.00    +0.214 C 
ATOM     16  S   UNL     1       0.161  -1.402  -0.558  0.00  0.00    -0.112 S 
ATOM     17  H   UNL     1       1.401   0.981   0.539  0.00  0.00    +0.142 HD
ATOM     18  H   UNL     1       1.146  -0.172   2.544  0.00  0.00    +0.142 HD
ENDBRANCH   7  15
ENDBRANCH   1   9
BRANCH   5  19
ATOM     19  C   UNL     1      -2.568  -6.896   3.735  0.00  0.00    +0.244 C 
ATOM     20  O   UNL     1      -3.522  -6.159   3.573  0.00  0.00    -0.270 OA
ATOM     21  N   UNL     1      -2.729  -8.080   4.358  0.00  0.00    -0.311 N 
ATOM     22  H   UNL     1      -1.968  -8.667   4.487  0.00  0.00    +0.149 HD
BRANCH  21  23
ATOM     23  C   UNL     1      -4.053  -8.480   4.840  0.00  0.00    +0.109 C 
BRANCH  23  24
ATOM     24  C   UNL     1      -3.961  -9.855   5.504  0.00  0.00    +0.052 C 
BRANCH  24  25
ATOM     25  C   UNL     1      -5.323 -10.267   6.000  0.00  0.00    -0.040 C 
ATOM     26  C   UNL     1      -6.222 -11.044   5.355  0.00  0.00    +0.000 A 
ATOM     27  C   UNL     1      -6.202 -11.714   4.049  0.00  0.00    +0.030 A 
ATOM     28  C   UNL     1      -7.278 -12.441   3.667  0.00  0.00    +0.042 A 
ATOM     29  C   UNL     1      -8.409 -12.569   4.487  0.00  0.00    +0.022 A 
ATOM     30  C   UNL     1      -8.501 -11.984   5.699  0.00  0.00    +0.027 A 
ATOM     31  C   UNL     1      -7.428 -11.196   6.201  0.00  0.00    +0.043 A 
ATOM     32  N   UNL     1      -7.279 -10.538   7.325  0.00  0.00    -0.380 N 
ATOM     33  C   UNL     1      -5.959  -9.899   7.322  0.00  0.00    +0.144 C 
ATOM     34 CL   UNL     1      -7.258 -13.234   2.123  0.00  0.00    -0.084 Cl
ATOM     35  H   UNL     1      -7.932 -10.486   8.040  0.00  0.00    +0.160 HD
ENDBRANCH  24  25
ENDBRANCH  23  24
ENDBRANCH  21  23
ENDBRANCH   5  19
TORSDOF 6
