REMARK  Name = ZINC20506631
REMARK  8 active torsions:
REMARK  status: ('A' for Active; 'I' for Inactive)
REMARK    1  A    between atoms: C_1  and  C_2
REMARK    2  A    between atoms: C_2  and  O_3
REMARK    3  A    between atoms: O_3  and  C_4
REMARK    4  A    between atoms: C_8  and  C_11
REMARK    5  A    between atoms: C_9  and  O_10
REMARK    6  A    between atoms: C_11  and  N_12
REMARK    7  A    between atoms: N_12  and  C_13
REMARK    8  A    between atoms: C_13  and  C_14
REMARK                            x       y       z     vdW  Elec       q    Type
REMARK                         _______ _______ _______ _____ _____    ______ ____
ROOT
ATOM      1  N   UNL     1       1.370  -4.295   4.912  0.00  0.00    +0.383 N 
ATOM      2  H   UNL     1       1.093  -3.345   5.112  0.00  0.00    -0.085 HD
ATOM      3  H   UNL     1       0.552  -4.848   4.706  0.00  0.00    -0.085 HD
ENDROOT
BRANCH   1   4
ATOM      4  C   UNL     1       2.274  -4.308   3.755  0.00  0.00    -0.043 C 
BRANCH   4   9
ATOM      5  C   UNL     1       0.802  -1.825   1.306  0.00  0.00    +0.162 A 
ATOM      6  C   UNL     1       0.261  -2.673   0.353  0.00  0.00    +0.049 A 
ATOM      7  C   UNL     1       0.372  -4.043   0.502  0.00  0.00    +0.004 A 
ATOM      8  C   UNL     1       1.024  -4.570   1.602  0.00  0.00    +0.005 A 
ATOM      9  C   UNL     1       1.566  -3.730   2.557  0.00  0.00    -0.019 A 
ATOM     10  C   UNL     1       1.462  -2.356   2.410  0.00  0.00    +0.160 A 
BRANCH  10  11
ATOM     11  O   UNL     1       2.000  -1.528   3.345  0.00  0.00    -0.503 OA
ATOM     12  H   UNL     1       1.395  -1.301   4.064  0.00  0.00    +0.292 HD
ENDBRANCH  10  11
BRANCH   5  13
ATOM     13  O   UNL     1       0.693  -0.477   1.160  0.00  0.00    -0.489 OA
BRANCH  13  15
ATOM     14  C   UNL     1      -0.019   1.526   0.010  0.00  0.00    +0.048 C 
ATOM     15  C   UNL     1       0.002  -0.004   0.002  0.00  0.00    +0.226 C 
ENDBRANCH  13  15
ENDBRANCH   5  13
ENDBRANCH   4   9
ENDBRANCH   1   4
BRANCH   1  16
ATOM     16  C   UNL     1       2.061  -4.859   6.080  0.00  0.00    -0.058 C 
BRANCH  16  17
ATOM     17  C   UNL     1       1.119  -4.845   7.285  0.00  0.00    +0.067 C 
ATOM     18  C   UNL     1       1.790  -5.525   8.449  0.00  0.00    -0.029 A 
ATOM     19  C   UNL     1       3.131  -5.259   8.686  0.00  0.00    +0.005 A 
ATOM     20  C   UNL     1       3.785  -5.857   9.744  0.00  0.00    +0.000 A 
ATOM     21  C   UNL     1       3.101  -6.726  10.574  0.00  0.00    +0.000 A 
ATOM     22  C   UNL     1       1.767  -6.993  10.339  0.00  0.00    +0.004 A 
ATOM     23  C   UNL     1       1.110  -6.394   9.275  0.00  0.00    -0.042 A 
ATOM     24  C   UNL     1      -0.344  -6.724   9.051  0.00  0.00    +0.050 C 
ATOM     25  C   UNL     1      -0.978  -5.684   8.127  0.00  0.00    +0.086 C 
ATOM     26  N   UNL     1      -0.124  -5.540   6.937  0.00  0.00    -0.311 NA
ATOM     27  H   UNL     1      -0.615  -5.056   6.200  0.00  0.00    +0.122 HD
ENDBRANCH  16  17
ENDBRANCH   1  16
TORSDOF 7
