REMARK  Name = ZINC32604467
REMARK  8 active torsions:
REMARK  status: ('A' for Active; 'I' for Inactive)
REMARK    1  A    between atoms: C_1  and  C_2
REMARK    2  A    between atoms: C_13  and  S_18
REMARK    3  A    between atoms: C_15  and  N_17
REMARK    4  A    between atoms: S_18  and  C_19
REMARK    5  A    between atoms: C_19  and  C_20
REMARK    6  A    between atoms: C_20  and  C_21
REMARK    7  A    between atoms: C_21  and  C_22
REMARK    8  A    between atoms: C_21  and  C_23
REMARK                            x       y       z     vdW  Elec       q    Type
REMARK                         _______ _______ _______ _____ _____    ______ ____
ROOT
ATOM      1  C   UNL     1      -2.271   6.137  -1.733  0.00  0.00    +0.012 C 
ATOM      2  C   UNL     1      -1.494   6.791  -0.589  0.00  0.00    +0.017 C 
ATOM      3  C   UNL     1      -1.270   8.271  -0.902  0.00  0.00    +0.008 C 
ATOM      4  C   UNL     1      -0.342   8.894   0.145  0.00  0.00    +0.006 C 
ATOM      5  C   UNL     1       1.075   8.336  -0.060  0.00  0.00    +0.043 C 
ATOM      6  C   UNL     1       0.980   6.851  -0.200  0.00  0.00    -0.004 A 
ATOM      7  C   UNL     1      -0.137   6.109  -0.436  0.00  0.00    -0.029 A 
ATOM      8  C   UNL     1       0.022   4.723  -0.531  0.00  0.00    -0.009 A 
ATOM      9  C   UNL     1       1.292   4.210  -0.366  0.00  0.00    +0.107 A 
ATOM     10  S   UNL     1       2.283   5.651  -0.097  0.00  0.00    -0.074 S 
ATOM     11  N   UNL     1       1.617   2.902  -0.412  0.00  0.00    -0.219 NA
ATOM     12  C   UNL     1       0.630   2.021  -0.408  0.00  0.00    +0.154 C 
ATOM     13  N   UNL     1      -0.676   2.434  -0.288  0.00  0.00    -0.334 N 
ATOM     14  C   UNL     1      -1.112   3.736  -0.808  0.00  0.00    +0.045 C 
ATOM     15  H   UNL     1      -1.399   1.770   0.208  0.00  0.00    +0.146 HD
ENDROOT
BRANCH  14  16
ATOM     16  N   UNL     1      -1.352   3.640  -2.254  0.00  0.00    +0.393 N 
ATOM     17  H   UNL     1      -2.169   2.929  -2.444  0.00  0.00    -0.087 HD
ATOM     18  H   UNL     1      -0.437   3.290  -2.755  0.00  0.00    -0.087 HD
ATOM     19  H   UNL     1      -1.629   4.630  -2.647  0.00  0.00    -0.087 HD
ENDBRANCH  14  16
BRANCH  12  20
ATOM     20  S   UNL     1       0.992   0.304  -0.566  0.00  0.00    -0.091 S 
BRANCH  20  21
ATOM     21  C   UNL     1       2.796   0.373  -0.691  0.00  0.00    +0.077 C 
BRANCH  21  22
ATOM     22  C   UNL     1       3.352  -1.045  -0.840  0.00  0.00    +0.014 C 
BRANCH  22  23
ATOM     23  C   UNL     1       4.877  -0.987  -0.946  0.00  0.00    -0.016 C 
ATOM     24  C   UNL     1       5.442  -2.409  -0.969  0.00  0.00    +0.007 C 
ATOM     25  C   UNL     1       5.271  -0.260  -2.234  0.00  0.00    +0.007 C 
ENDBRANCH  22  23
ENDBRANCH  21  22
ENDBRANCH  20  21
ENDBRANCH  12  20
TORSDOF 5
