REMARK  Name = ZINC07588902
REMARK  9 active torsions:
REMARK  status: ('A' for Active; 'I' for Inactive)
REMARK    1  A    between atoms: C_1  and  C_2
REMARK    2  A    between atoms: C_5  and  N_8
REMARK    3  A    between atoms: C_9  and  N_14
REMARK    4  A    between atoms: C_11  and  C_13
REMARK    5  A    between atoms: C_15  and  C_17
REMARK    6  A    between atoms: C_17  and  N_49
REMARK    7  A    between atoms: C_18  and  C_20
REMARK    8  A    between atoms: C_18  and  C_21
REMARK    9  A    between atoms: C_18  and  N_49
REMARK                            x       y       z     vdW  Elec       q    Type
REMARK                         _______ _______ _______ _____ _____    ______ ____
ROOT
ATOM      1  N   UNL     1       4.651   0.628   1.384  0.00  0.00    -0.272 N 
ATOM      2  C   UNL     1       3.657   1.271   0.738  0.00  0.00    +0.201 C 
ATOM      3  O   UNL     1       3.892   2.294   0.129  0.00  0.00    -0.278 OA
ATOM      4  H   UNL     1       4.463  -0.190   1.870  0.00  0.00    +0.156 HD
ENDROOT
BRANCH   1   6
ATOM      5  N   UNL     1       7.040   0.602   1.961  0.00  0.00    -0.218 N 
ATOM      6  C   UNL     1       5.947   1.139   1.353  0.00  0.00    +0.129 A 
ATOM      7  C   UNL     1       6.352   2.271   0.714  0.00  0.00    +0.068 A 
ATOM      8  C   UNL     1       7.724   2.421   0.934  0.00  0.00    +0.062 A 
ATOM      9  N   UNL     1       8.137   1.424   1.675  0.00  0.00    -0.170 NA
ATOM     10  C   UNL     1       8.583   3.542   0.408  0.00  0.00    +0.067 C 
BRANCH   5  15
ATOM     11  C   UNL     1       7.136  -4.135   5.085  0.00  0.00    +0.044 C 
ATOM     12  C   UNL     1       7.111  -2.877   4.255  0.00  0.00    -0.050 A 
ATOM     13  C   UNL     1       8.194  -2.554   3.460  0.00  0.00    +0.005 A 
ATOM     14  C   UNL     1       8.174  -1.402   2.698  0.00  0.00    +0.028 A 
ATOM     15  C   UNL     1       7.064  -0.568   2.732  0.00  0.00    +0.067 A 
ATOM     16  C   UNL     1       5.979  -0.893   3.536  0.00  0.00    +0.028 A 
ATOM     17  C   UNL     1       6.004  -2.049   4.292  0.00  0.00    +0.005 A 
ENDBRANCH   5  15
ENDBRANCH   1   6
BRANCH   2  18
ATOM     18  C   UNL     1       2.256   0.718   0.771  0.00  0.00    +0.016 C 
BRANCH  18  19
ATOM     19  N   UNL     1       1.369   1.603  -0.007  0.00  0.00    +0.389 N 
ATOM     20  H   UNL     1       1.702   1.649  -0.977  0.00  0.00    -0.084 HD
ATOM     21  H   UNL     1       1.383   2.544   0.404  0.00  0.00    -0.084 HD
BRANCH  19  22
ATOM     22  C   UNL     1      -0.013   1.086   0.008  0.00  0.00    -0.041 C 
ATOM     23  C   UNL     1      -0.729   1.579   1.267  0.00  0.00    -0.009 C 
BRANCH  22  24
ATOM     24  C   UNL     1      -0.742   1.585  -1.213  0.00  0.00    -0.026 A 
ATOM     25  C   UNL     1      -0.269   2.690  -1.896  0.00  0.00    +0.007 A 
ATOM     26  C   UNL     1      -0.937   3.150  -3.015  0.00  0.00    +0.039 A 
ATOM     27  C   UNL     1      -2.080   2.502  -3.454  0.00  0.00    +0.126 A 
ATOM     28  C   UNL     1      -2.554   1.396  -2.772  0.00  0.00    +0.076 A 
ATOM     29  C   UNL     1      -1.881   0.933  -1.654  0.00  0.00    +0.128 A 
ATOM     30  F   UNL     1      -2.339  -0.150  -0.989  0.00  0.00    -0.205 F 
ATOM     31  F   UNL     1      -2.733   2.952  -4.549  0.00  0.00    -0.205 F 
ENDBRANCH  22  24
ENDBRANCH  19  22
ENDBRANCH  18  19
ENDBRANCH   2  18
TORSDOF 6
