REMARK  Name = ZINC34747610
REMARK  7 active torsions:
REMARK  status: ('A' for Active; 'I' for Inactive)
REMARK    1  A    between atoms: C_1  and  C_2
REMARK    2  A    between atoms: C_2  and  C_3
REMARK    3  A    between atoms: C_2  and  C_4
REMARK    4  A    between atoms: C_4  and  N_5
REMARK    5  A    between atoms: N_18  and  C_21
REMARK    6  A    between atoms: C_21  and  C_22
REMARK    7  A    between atoms: N_24  and  C_25
REMARK                            x       y       z     vdW  Elec       q    Type
REMARK                         _______ _______ _______ _____ _____    ______ ____
ROOT
ATOM      1  N   UNL     1       3.010   0.190   0.157  0.00  0.00    -0.280 N 
ATOM      2  C   UNL     1       3.304   1.401  -0.351  0.00  0.00    +0.264 A 
ATOM      3  O   UNL     1       3.221   2.399   0.343  0.00  0.00    -0.267 OA
ATOM      4  C   UNL     1       3.714   1.499  -1.719  0.00  0.00    +0.076 A 
ATOM      5  C   UNL     1       4.077   2.701  -2.473  0.00  0.00    -0.023 A 
ATOM      6  C   UNL     1       4.433   2.530  -3.762  0.00  0.00    -0.004 A 
ATOM      7  S   UNL     1       4.309   0.784  -4.046  0.00  0.00    -0.073 S 
ATOM      8  C   UNL     1       3.776   0.288  -2.428  0.00  0.00    +0.117 A 
ATOM      9  N   UNL     1       3.472  -0.876  -1.865  0.00  0.00    -0.208 NA
ATOM     10  C   UNL     1       3.102  -0.939  -0.603  0.00  0.00    +0.202 A 
ATOM     11  N   UNL     1       2.800  -2.156  -0.045  0.00  0.00    -0.304 N 
ATOM     12  C   UNL     1       1.454  -2.736  -0.178  0.00  0.00    +0.089 C 
ATOM     13  C   UNL     1       1.593  -4.176  -0.681  0.00  0.00    -0.059 C 
ATOM     14  N   UNL     1       2.488  -4.922   0.214  0.00  0.00    +0.387 N 
ATOM     15  C   UNL     1       3.840  -4.351   0.157  0.00  0.00    -0.059 C 
ATOM     16  C   UNL     1       3.814  -2.922   0.696  0.00  0.00    +0.089 C 
ATOM     17  C   UNL     1       4.843   3.589  -4.739  0.00  0.00    +0.043 C 
ATOM     18  C   UNL     1       4.443   4.957  -4.167  0.00  0.00    +0.005 C 
ATOM     19  C   UNL     1       4.904   5.032  -2.709  0.00  0.00    +0.005 C 
ATOM     20  C   UNL     1       4.059   4.093  -1.847  0.00  0.00    +0.037 C 
ATOM     21  H   UNL     1       2.140  -4.865   1.159  0.00  0.00    -0.081 HD
ENDROOT
BRANCH   1  22
ATOM     22  C   UNL     1       2.589   0.082   1.556  0.00  0.00    +0.131 C 
BRANCH  22  24
ATOM     23  C   UNL     1       4.778   0.949   2.393  0.00  0.00    +0.009 C 
ATOM     24  C   UNL     1       3.804  -0.231   2.432  0.00  0.00    +0.003 C 
ATOM     25  C   UNL     1       3.347  -0.467   3.873  0.00  0.00    +0.009 C 
ENDBRANCH  22  24
ENDBRANCH   1  22
BRANCH  14  26
ATOM     26  C   UNL     1       2.534  -6.329  -0.204  0.00  0.00    +0.019 C 
BRANCH  26  27
ATOM     27  C   UNL     1       3.353  -7.120   0.783  0.00  0.00    +0.201 C 
ATOM     28  O   UNL     1       3.849  -6.565   1.741  0.00  0.00    -0.278 OA
ATOM     29  N   UNL     1       3.534  -8.443   0.602  0.00  0.00    -0.287 N 
ATOM     30  H   UNL     1       3.207  -8.871  -0.204  0.00  0.00    +0.155 HD
BRANCH  29  31
ATOM     31  C   UNL     1       4.191  -9.197   1.576  0.00  0.00    +0.041 A 
ATOM     32  C   UNL     1       4.208  -8.776   2.888  0.00  0.00    +0.024 A 
ATOM     33  C   UNL     1       4.860  -9.520   3.866  0.00  0.00    +0.002 A 
ATOM     34  C   UNL     1       5.498 -10.683   3.556  0.00  0.00    +0.008 A 
ATOM     35  C   UNL     1       5.505 -11.147   2.230  0.00  0.00    -0.016 A 
ATOM     36  C   UNL     1       4.840 -10.401   1.227  0.00  0.00    +0.003 A 
ATOM     37  C   UNL     1       4.843 -10.868  -0.097  0.00  0.00    +0.010 A 
ATOM     38  C   UNL     1       5.480 -12.034  -0.398  0.00  0.00    +0.001 A 
ATOM     39  C   UNL     1       6.129 -12.772   0.590  0.00  0.00    +0.001 A 
ATOM     40  C   UNL     1       6.156 -12.343   1.881  0.00  0.00    +0.008 A 
ENDBRANCH  29  31
ENDBRANCH  26  27
ENDBRANCH  14  26
TORSDOF 5
