REMARK  Name = ZINC15452731
REMARK  12 active torsions:
REMARK  status: ('A' for Active; 'I' for Inactive)
REMARK    1  A    between atoms: C_1  and  C_2
REMARK    2  A    between atoms: C_2  and  C_3
REMARK    3  A    between atoms: C_3  and  C_4
REMARK    4  A    between atoms: C_4  and  N_5
REMARK    5  A    between atoms: C_6  and  N_36
REMARK    6  A    between atoms: C_7  and  N_14
REMARK    7  A    between atoms: N_14  and  C_15
REMARK    8  A    between atoms: C_20  and  C_22
REMARK    9  A    between atoms: C_22  and  N_72
REMARK   10  A    between atoms: C_26  and  C_28
REMARK   11  A    between atoms: C_31  and  O_34
REMARK   12  A    between atoms: O_34  and  C_35
REMARK                            x       y       z     vdW  Elec       q    Type
REMARK                         _______ _______ _______ _____ _____    ______ ____
ROOT
ATOM      1  N   UNL     1       3.159   1.838   4.143  0.00  0.00    -0.263 N 
ATOM      2  C   UNL     1       3.271   3.141   3.809  0.00  0.00    +0.204 C 
ATOM      3  O   UNL     1       4.252   3.771   4.146  0.00  0.00    -0.277 OA
ENDROOT
BRANCH   1   6
ATOM      4  N   UNL     1       0.935  -0.005   1.871  0.00  0.00    -0.280 N 
ATOM      5  C   UNL     1       2.003   0.738   2.318  0.00  0.00    +0.127 A 
ATOM      6  C   UNL     1       2.076   1.076   3.654  0.00  0.00    +0.140 A 
ATOM      7  C   UNL     1       1.053   0.648   4.520  0.00  0.00    +0.277 A 
ATOM      8  O   UNL     1       1.093   0.933   5.705  0.00  0.00    -0.266 OA
ATOM      9  N   UNL     1       0.029  -0.078   4.032  0.00  0.00    -0.273 N 
ATOM     10  H   UNL     1      -0.697  -0.386   4.647  0.00  0.00    +0.173 HD
ATOM     11  C   UNL     1      -0.029  -0.394   2.726  0.00  0.00    +0.331 A 
ATOM     12  O   UNL     1      -0.967  -1.047   2.310  0.00  0.00    -0.246 OA
BRANCH   5  13
ATOM     13  N   UNL     1       2.985   1.140   1.444  0.00  0.00    -0.343 N 
ATOM     14  H   UNL     1       2.967   0.837   0.523  0.00  0.00    +0.144 HD
ATOM     15  H   UNL     1       3.695   1.726   1.749  0.00  0.00    +0.144 HD
ENDBRANCH   5  13
BRANCH   4  16
ATOM     16  C   UNL     1       0.844  -0.371   0.456  0.00  0.00    +0.128 C 
BRANCH  16  17
ATOM     17  C   UNL     1       1.546  -1.712   0.229  0.00  0.00    +0.021 C 
BRANCH  17  19
ATOM     18  C   UNL     1       2.153  -3.434  -1.476  0.00  0.00    +0.004 C 
ATOM     19  C   UNL     1       1.451  -2.094  -1.249  0.00  0.00    -0.002 C 
ENDBRANCH  17  19
ENDBRANCH  16  17
ENDBRANCH   4  16
ENDBRANCH   1   6
BRANCH   1  20
ATOM     20  C   UNL     1       4.160   1.215   5.012  0.00  0.00    +0.082 C 
ATOM     21  C   UNL     1       4.167   1.908   6.391  0.00  0.00    +0.023 C 
ATOM     22  C   UNL     1       5.661   1.927   6.799  0.00  0.00    +0.002 C 
ATOM     23  C   UNL     1       6.378   2.208   5.455  0.00  0.00    +0.002 C 
ATOM     24  C   UNL     1       5.566   1.406   4.417  0.00  0.00    +0.023 C 
ENDBRANCH   1  20
BRANCH   2  25
ATOM     25  C   UNL     1       2.179   3.814   3.018  0.00  0.00    +0.020 C 
BRANCH  25  30
ATOM     26  C   UNL     1       3.737   5.525   2.277  0.00  0.00    -0.077 C 
ATOM     27  C   UNL     1       4.344   6.769   2.951  0.00  0.00    -0.020 C 
ATOM     28  C   UNL     1       3.335   7.165   4.053  0.00  0.00    -0.013 C 
ATOM     29  C   UNL     1       2.562   5.846   4.304  0.00  0.00    -0.037 C 
ATOM     30  N   UNL     1       2.458   5.280   2.954  0.00  0.00    +0.390 N 
ATOM     31  H   UNL     1       1.699   5.745   2.441  0.00  0.00    -0.080 HD
BRANCH  29  32
ATOM     32  C   UNL     1       1.198   6.130   4.880  0.00  0.00    -0.061 A 
ATOM     33  C   UNL     1       0.202   6.647   4.072  0.00  0.00    +0.005 A 
ATOM     34  C   UNL     1      -1.050   6.904   4.596  0.00  0.00    +0.046 A 
ATOM     35  C   UNL     1      -1.305   6.652   5.936  0.00  0.00    +0.120 A 
ATOM     36  C   UNL     1      -0.302   6.138   6.746  0.00  0.00    +0.046 A 
ATOM     37  C   UNL     1       0.947   5.878   6.216  0.00  0.00    +0.005 A 
BRANCH  35  38
ATOM     38  O   UNL     1      -2.534   6.907   6.455  0.00  0.00    -0.495 OA
ATOM     39  C   UNL     1      -3.518   7.436   5.564  0.00  0.00    +0.277 C 
ENDBRANCH  35  38
ENDBRANCH  29  32
ENDBRANCH  25  30
ENDBRANCH   2  25
TORSDOF 10
