REMARK  Name = ZINC47405976
REMARK  7 active torsions:
REMARK  status: ('A' for Active; 'I' for Inactive)
REMARK    1  A    between atoms: C_2  and  C_3
REMARK    2  A    between atoms: C_3  and  N_4
REMARK    3  A    between atoms: N_4  and  C_5
REMARK    4  A    between atoms: N_4  and  C_17
REMARK    5  A    between atoms: C_5  and  C_6
REMARK    6  A    between atoms: N_8  and  C_9
REMARK    7  A    between atoms: C_10  and  C_14
REMARK                            x       y       z     vdW  Elec       q    Type
REMARK                         _______ _______ _______ _____ _____    ______ ____
ROOT
ATOM      1  C   UNL     1       1.921   1.527  -1.269  0.00  0.00    +0.021 C 
ENDROOT
BRANCH   1   2
ATOM      2  C   UNL     1       1.157   2.162  -2.403  0.00  0.00    +0.201 C 
ATOM      3  O   UNL     1       0.179   2.840  -2.171  0.00  0.00    -0.278 OA
ATOM      4  N   UNL     1       1.561   1.975  -3.675  0.00  0.00    -0.281 N 
ATOM      5  H   UNL     1       2.343   1.432  -3.861  0.00  0.00    +0.155 HD
BRANCH   4   6
ATOM      6  C   UNL     1       0.858   2.558  -4.718  0.00  0.00    +0.084 A 
ATOM      7  C   UNL     1       1.121   2.472  -6.078  0.00  0.00    +0.065 A 
ATOM      8  C   UNL     1       0.222   3.184  -6.957  0.00  0.00    +0.022 A 
ATOM      9  C   UNL     1      -0.776   3.856  -6.355  0.00  0.00    +0.048 A 
ATOM     10  S   UNL     1      -0.510   3.525  -4.627  0.00  0.00    -0.081 S 
BRANCH   7  11
ATOM     11  C   UNL     1       2.254   1.698  -6.596  0.00  0.00    +0.244 C 
ATOM     12  O   UNL     1       2.992   1.110  -5.827  0.00  0.00    -0.270 OA
ATOM     13  N   UNL     1       2.478   1.638  -7.924  0.00  0.00    -0.325 N 
ATOM     14  H   UNL     1       1.889   2.106  -8.536  0.00  0.00    +0.145 HD
ATOM     15  H   UNL     1       3.227   1.126  -8.267  0.00  0.00    +0.145 HD
ENDBRANCH   7  11
ENDBRANCH   4   6
ENDBRANCH   1   2
BRANCH   1  16
ATOM     16  N   UNL     1       1.374   1.994   0.011  0.00  0.00    +0.397 N 
ATOM     17  H   UNL     1       1.921   1.614   0.769  0.00  0.00    -0.079 HD
BRANCH  16  18
ATOM     18  C   UNL     1       1.425   3.462   0.060  0.00  0.00    -0.035 C 
ATOM     19  C   UNL     1       2.887   3.950  -0.022  0.00  0.00    -0.006 C 
ATOM     20  C   UNL     1       3.282   4.066   1.466  0.00  0.00    +0.034 C 
ATOM     21  C   UNL     1       1.982   4.309   2.202  0.00  0.00    -0.046 A 
ATOM     22  C   UNL     1       0.912   3.962   1.393  0.00  0.00    -0.058 A 
ATOM     23  C   UNL     1      -0.383   4.102   1.861  0.00  0.00    +0.002 A 
ATOM     24  C   UNL     1      -0.614   4.587   3.134  0.00  0.00    +0.000 A 
ATOM     25  C   UNL     1       0.451   4.934   3.943  0.00  0.00    +0.000 A 
ATOM     26  C   UNL     1       1.751   4.795   3.478  0.00  0.00    +0.004 A 
ENDBRANCH  16  18
BRANCH  16  27
ATOM     27  C   UNL     1      -0.020   1.549   0.141  0.00  0.00    +0.013 C 
BRANCH  27  29
ATOM     28  C   UNL     1      -0.097  -1.095   0.211  0.00  0.00    +0.002 C 
ATOM     29  C   UNL     1      -0.063   0.078   0.180  0.00  0.00    -0.124 C 
ENDBRANCH  27  29
ENDBRANCH  16  27
ENDBRANCH   1  16
TORSDOF 7
