REMARK  Name = ZINC44363470
REMARK  11 active torsions:
REMARK  status: ('A' for Active; 'I' for Inactive)
REMARK    1  A    between atoms: C_1  and  C_2
REMARK    2  A    between atoms: C_2  and  O_3
REMARK    3  A    between atoms: O_3  and  C_4
REMARK    4  A    between atoms: C_4  and  C_6
REMARK    5  A    between atoms: C_6  and  C_8
REMARK    6  A    between atoms: C_6  and  N_24
REMARK    7  A    between atoms: C_8  and  C_9
REMARK    8  A    between atoms: C_10  and  C_23
REMARK    9  A    between atoms: C_11  and  O_21
REMARK   10  A    between atoms: C_12  and  N_16
REMARK   11  A    between atoms: O_21  and  C_22
REMARK                            x       y       z     vdW  Elec       q    Type
REMARK                         _______ _______ _______ _____ _____    ______ ____
ROOT
ATOM      1  C   UNL     1      -4.863  -2.886   1.434  0.00  0.00    -0.024 A 
ATOM      2  C   UNL     1      -5.894  -1.980   1.261  0.00  0.00    -0.002 A 
ATOM      3  C   UNL     1      -7.208  -2.419   1.252  0.00  0.00    +0.144 A 
ATOM      4  C   UNL     1      -7.487  -3.774   1.418  0.00  0.00    +0.074 A 
ATOM      5  C   UNL     1      -6.449  -4.677   1.591  0.00  0.00    +0.047 A 
ATOM      6  C   UNL     1      -5.139  -4.232   1.593  0.00  0.00    +0.046 A 
ATOM      7 CL   UNL     1      -3.840  -5.364   1.804  0.00  0.00    -0.083 Cl
ATOM      8  C   UNL     1      -5.589  -0.516   1.082  0.00  0.00    +0.048 C 
ENDROOT
BRANCH   4   9
ATOM      9  N   UNL     1      -8.813  -4.223   1.410  0.00  0.00    -0.327 N 
ATOM     10  C   UNL     1      -9.563  -4.661   0.224  0.00  0.00    +0.105 C 
ATOM     11  C   UNL     1     -10.983  -5.039   0.693  0.00  0.00    +0.020 C 
ATOM     12  C   UNL     1     -11.129  -4.257   2.025  0.00  0.00    +0.020 C 
ATOM     13  C   UNL     1      -9.687  -4.341   2.591  0.00  0.00    +0.105 C 
ENDBRANCH   4   9
BRANCH   3  14
ATOM     14  O   UNL     1      -8.223  -1.530   1.082  0.00  0.00    -0.493 OA
ATOM     15  C   UNL     1      -8.642  -1.272  -0.259  0.00  0.00    +0.277 C 
ENDBRANCH   3  14
BRANCH   1  16
ATOM     16  C   UNL     1      -3.435  -2.405   1.443  0.00  0.00    +0.032 C 
BRANCH  16  17
ATOM     17  C   UNL     1      -2.881  -2.427   0.017  0.00  0.00    +0.040 C 
BRANCH  17  18
ATOM     18  N   UNL     1      -2.822  -3.813  -0.465  0.00  0.00    +0.387 N 
ATOM     19  H   UNL     1      -3.749  -4.211  -0.459  0.00  0.00    -0.089 HD
ATOM     20  H   UNL     1      -2.456  -3.827  -1.406  0.00  0.00    -0.089 HD
ATOM     21  H   UNL     1      -2.219  -4.353   0.138  0.00  0.00    -0.089 HD
ENDBRANCH  17  18
BRANCH  17  22
ATOM     22  C   UNL     1      -1.496  -1.832   0.006  0.00  0.00    +0.293 C 
ATOM     23  O   UNL     1      -0.528  -2.555  -0.007  0.00  0.00    -0.253 OA
BRANCH  22  24
ATOM     24  O   UNL     1      -1.339  -0.499   0.012  0.00  0.00    -0.466 OA
BRANCH  24  26
ATOM     25  C   UNL     1      -0.019   1.526   0.010  0.00  0.00    +0.048 C 
ATOM     26  C   UNL     1       0.002  -0.004   0.002  0.00  0.00    +0.228 C 
ENDBRANCH  24  26
ENDBRANCH  22  24
ENDBRANCH  17  22
ENDBRANCH  16  17
ENDBRANCH   1  16
TORSDOF 8
