REMARK  Name = ZINC67044945
REMARK  7 active torsions:
REMARK  status: ('A' for Active; 'I' for Inactive)
REMARK    1  A    between atoms: C_1  and  C_2
REMARK    2  A    between atoms: C_6  and  C_7
REMARK    3  A    between atoms: N_9  and  N_10
REMARK    4  A    between atoms: N_13  and  C_14
REMARK    5  A    between atoms: C_14  and  C_15
REMARK    6  A    between atoms: C_15  and  C_16
REMARK    7  A    between atoms: C_16  and  N_17
REMARK                            x       y       z     vdW  Elec       q    Type
REMARK                         _______ _______ _______ _____ _____    ______ ____
ROOT
ATOM      1  N   UNL     1       0.058  -0.732   4.900  0.00  0.00    -0.218 N 
ATOM      2  C   UNL     1       0.080  -1.625   5.909  0.00  0.00    +0.316 C 
ATOM      3  O   UNL     1       0.086  -1.239   7.062  0.00  0.00    -0.251 OA
ATOM      4  N   UNL     1       0.096  -2.945   5.640  0.00  0.00    -0.298 N 
ATOM      5  H   UNL     1       0.047   0.219   5.094  0.00  0.00    +0.174 HD
ATOM      6  H   UNL     1       0.091  -3.253   4.720  0.00  0.00    +0.150 HD
ENDROOT
BRANCH   1   9
ATOM      7  C   UNL     1       0.030  -0.283   2.562  0.00  0.00    +0.267 C 
ATOM      8  O   UNL     1       0.016   0.910   2.805  0.00  0.00    -0.268 OA
ATOM      9  N   UNL     1       0.052  -1.176   3.571  0.00  0.00    -0.229 N 
ATOM     10  H   UNL     1       0.063  -2.126   3.378  0.00  0.00    +0.173 HD
BRANCH   7  16
ATOM     11  C   UNL     1      -0.018   1.503   0.010  0.00  0.00    +0.045 C 
ATOM     12  C   UNL     1       0.002  -0.004   0.002  0.00  0.00    -0.031 A 
ATOM     13  C   UNL     1       0.007  -0.729  -1.166  0.00  0.00    +0.011 A 
ATOM     14  C   UNL     1       0.026  -2.083  -1.101  0.00  0.00    +0.046 A 
ATOM     15  S   UNL     1       0.038  -2.416   0.545  0.00  0.00    -0.092 S 
ATOM     16  C   UNL     1       0.023  -0.748   1.172  0.00  0.00    +0.078 A 
ENDBRANCH   7  16
ENDBRANCH   1   9
BRANCH   4  17
ATOM     17  C   UNL     1       0.119  -3.916   6.737  0.00  0.00    +0.104 C 
BRANCH  17  18
ATOM     18  C   UNL     1       0.133  -5.334   6.163  0.00  0.00    +0.000 C 
BRANCH  18  19
ATOM     19  C   UNL     1       0.158  -6.348   7.308  0.00  0.00    -0.077 C 
BRANCH  19  20
ATOM     20  N   UNL     1       0.171  -7.710   6.757  0.00  0.00    +0.383 N 
ATOM     21  C   UNL     1       0.085  -8.686   7.854  0.00  0.00    -0.074 C 
ATOM     22  C   UNL     1      -0.208 -10.064   7.259  0.00  0.00    +0.017 C 
ATOM     23  C   UNL     1       0.772 -10.361   6.153  0.00  0.00    -0.048 A 
ATOM     24  C   UNL     1       0.908 -11.670   5.719  0.00  0.00    +0.004 A 
ATOM     25  C   UNL     1       1.794 -11.980   4.706  0.00  0.00    +0.000 A 
ATOM     26  C   UNL     1       2.548 -10.979   4.122  0.00  0.00    +0.000 A 
ATOM     27  C   UNL     1       2.414  -9.675   4.555  0.00  0.00    +0.002 A 
ATOM     28  C   UNL     1       1.526  -9.363   5.574  0.00  0.00    -0.061 A 
ATOM     29  C   UNL     1       1.419  -7.928   6.020  0.00  0.00    -0.043 C 
ATOM     30  H   UNL     1      -0.614  -7.830   6.135  0.00  0.00    -0.081 HD
ENDBRANCH  19  20
ENDBRANCH  18  19
ENDBRANCH  17  18
ENDBRANCH   4  17
TORSDOF 6
