REMARK  Name = ZINC13147954
REMARK  6 active torsions:
REMARK  status: ('A' for Active; 'I' for Inactive)
REMARK    1  A    between atoms: C_1  and  C_2
REMARK    2  A    between atoms: C_9  and  N_14
REMARK    3  A    between atoms: C_10  and  C_11
REMARK    4  A    between atoms: C_15  and  C_17
REMARK    5  A    between atoms: C_17  and  S_18
REMARK    6  A    between atoms: S_18  and  C_19
REMARK                            x       y       z     vdW  Elec       q    Type
REMARK                         _______ _______ _______ _____ _____    ______ ____
ROOT
ATOM      1  N   UNL     1      -4.120  -7.791   1.114  0.00  0.00    -0.279 N 
ATOM      2  C   UNL     1      -2.823  -7.690   0.759  0.00  0.00    +0.228 C 
ATOM      3  O   UNL     1      -2.165  -8.693   0.577  0.00  0.00    -0.275 OA
ATOM      4  H   UNL     1      -4.646  -6.989   1.260  0.00  0.00    +0.155 HD
ENDROOT
BRANCH   1  12
ATOM      5  C   UNL     1      -7.043 -15.014   1.796  0.00  0.00    +0.008 C 
ATOM      6  C   UNL     1      -6.926 -13.523   1.475  0.00  0.00    -0.009 C 
ATOM      7  C   UNL     1      -7.656 -12.705   2.544  0.00  0.00    +0.008 C 
ATOM      8  C   UNL     1      -7.757 -11.244   2.103  0.00  0.00    +0.037 C 
ATOM      9  C   UNL     1      -6.367 -10.749   1.722  0.00  0.00    -0.023 A 
ATOM     10  C   UNL     1      -5.370 -11.618   1.447  0.00  0.00    -0.004 A 
ATOM     11  S   UNL     1      -3.975 -10.599   1.060  0.00  0.00    -0.077 S 
ATOM     12  C   UNL     1      -4.701  -9.040   1.270  0.00  0.00    +0.084 A 
ATOM     13  C   UNL     1      -6.007  -9.344   1.627  0.00  0.00    +0.068 A 
ATOM     14  C   UNL     1      -5.446 -13.114   1.463  0.00  0.00    +0.046 C 
BRANCH  13  15
ATOM     15  C   UNL     1      -6.987  -8.288   1.897  0.00  0.00    +0.244 C 
ATOM     16  O   UNL     1      -7.672  -7.848   0.993  0.00  0.00    -0.270 OA
ATOM     17  N   UNL     1      -7.130  -7.806   3.148  0.00  0.00    -0.325 N 
ATOM     18  H   UNL     1      -6.585  -8.157   3.869  0.00  0.00    +0.145 HD
ATOM     19  H   UNL     1      -7.779  -7.107   3.326  0.00  0.00    +0.145 HD
ENDBRANCH  13  15
ENDBRANCH   1  12
BRANCH   2  20
ATOM     20  C   UNL     1      -2.192  -6.333   0.590  0.00  0.00    +0.173 C 
BRANCH  20  21
ATOM     21  S   UNL     1      -0.456  -6.530   0.114  0.00  0.00    -0.078 S 
BRANCH  21  22
ATOM     22  C   UNL     1       0.021  -4.838  -0.013  0.00  0.00    +0.170 A 
ATOM     23  N   UNL     1       1.303  -4.546  -0.363  0.00  0.00    -0.301 N 
ATOM     24  H   UNL     1       1.916  -5.280  -0.533  0.00  0.00    +0.171 HD
ATOM     25  C   UNL     1       1.763  -3.279  -0.486  0.00  0.00    +0.261 A 
ATOM     26  O   UNL     1       2.916  -3.037  -0.802  0.00  0.00    -0.267 OA
ATOM     27  C   UNL     1       0.812  -2.240  -0.224  0.00  0.00    +0.075 A 
ATOM     28  C   UNL     1       1.051  -0.807  -0.287  0.00  0.00    -0.023 A 
ATOM     29  C   UNL     1       0.002  -0.004   0.002  0.00  0.00    -0.004 A 
ATOM     30  S   UNL     1      -1.341  -1.105   0.368  0.00  0.00    -0.073 S 
ATOM     31  C   UNL     1      -0.497  -2.637   0.134  0.00  0.00    +0.117 A 
ATOM     32  N   UNL     1      -0.885  -3.902   0.238  0.00  0.00    -0.216 NA
ATOM     33  C   UNL     1      -0.018   1.493   0.010  0.00  0.00    +0.043 C 
ATOM     34  C   UNL     1       1.431   2.000  -0.001  0.00  0.00    +0.005 C 
ATOM     35  C   UNL     1       2.206   1.244  -1.083  0.00  0.00    +0.005 C 
ATOM     36  C   UNL     1       2.406  -0.211  -0.659  0.00  0.00    +0.037 C 
ENDBRANCH  21  22
ENDBRANCH  20  21
ENDBRANCH   2  20
TORSDOF 5
