REMARK  Name = ZINC36534598
REMARK  17 active torsions:
REMARK  status: ('A' for Active; 'I' for Inactive)
REMARK    1  A    between atoms: C_1  and  C_2
REMARK    2  A    between atoms: C_7  and  C_8
REMARK    3  A    between atoms: C_8  and  C_10
REMARK    4  A    between atoms: C_8  and  N_21
REMARK    5  A    between atoms: N_12  and  C_13
REMARK    6  A    between atoms: C_13  and  C_14
REMARK    7  A    between atoms: C_13  and  C_15
REMARK    8  A    between atoms: C_13  and  C_16
REMARK    9  A    between atoms: C_16  and  C_17
REMARK   10  A    between atoms: C_17  and  C_18
REMARK   11  A    between atoms: C_17  and  C_19
REMARK   12  A    between atoms: C_17  and  C_20
REMARK   13  A    between atoms: N_21  and  C_22
REMARK   14  A    between atoms: C_23  and  C_25
REMARK   15  A    between atoms: C_25  and  C_26
REMARK   16  A    between atoms: C_25  and  C_32
REMARK   17  A    between atoms: C_25  and  O_38
REMARK                            x       y       z     vdW  Elec       q    Type
REMARK                         _______ _______ _______ _____ _____    ______ ____
ROOT
ATOM      1  C   UNL     1       1.007   0.451   2.158  0.00  0.00    +0.192 C 
ENDROOT
BRANCH   1   8
ATOM      2  C   UNL     1       0.138  -1.474   0.186  0.00  0.00    +0.044 C 
ATOM      3  C   UNL     1       1.583  -1.431   0.611  0.00  0.00    -0.045 A 
ATOM      4  C   UNL     1       2.494  -2.309   0.053  0.00  0.00    +0.004 A 
ATOM      5  C   UNL     1       3.819  -2.270   0.443  0.00  0.00    +0.000 A 
ATOM      6  C   UNL     1       4.234  -1.352   1.391  0.00  0.00    +0.000 A 
ATOM      7  C   UNL     1       3.324  -0.474   1.948  0.00  0.00    +0.006 A 
ATOM      8  C   UNL     1       1.999  -0.510   1.555  0.00  0.00    -0.015 A 
ENDBRANCH   1   8
BRANCH   1   9
ATOM      9  C   UNL     1       1.727   1.691   2.619  0.00  0.00    +0.238 C 
ATOM     10  O   UNL     1       1.908   1.883   3.803  0.00  0.00    -0.273 OA
ATOM     11  N   UNL     1       2.170   2.589   1.717  0.00  0.00    -0.308 N 
ATOM     12  H   UNL     1       1.964   2.472   0.776  0.00  0.00    +0.149 HD
BRANCH  11  13
ATOM     13  C   UNL     1       2.962   3.740   2.156  0.00  0.00    +0.030 C 
ATOM     14  C   UNL     1       2.096   4.653   3.027  0.00  0.00    +0.031 C 
ATOM     15  C   UNL     1       4.164   3.252   2.967  0.00  0.00    +0.031 C 
BRANCH  13  16
ATOM     16  C   UNL     1       3.453   4.518   0.933  0.00  0.00    +0.031 C 
BRANCH  16  17
ATOM     17  C   UNL     1       3.660   3.552  -0.236  0.00  0.00    -0.036 C 
ATOM     18  C   UNL     1       2.317   3.275  -0.913  0.00  0.00    +0.010 C 
ATOM     19  C   UNL     1       4.622   4.177  -1.248  0.00  0.00    +0.010 C 
ATOM     20  C   UNL     1       4.249   2.240   0.285  0.00  0.00    +0.010 C 
ENDBRANCH  16  17
ENDBRANCH  13  16
ENDBRANCH  11  13
ENDBRANCH   1   9
BRANCH   1  21
ATOM     21  N   UNL     1       0.346  -0.184   3.301  0.00  0.00    -0.286 N 
ATOM     22  C   UNL     1       1.147  -0.758   4.385  0.00  0.00    +0.133 C 
ATOM     23  C   UNL     1      -1.000  -0.240   3.355  0.00  0.00    +0.257 C 
ATOM     24  O   UNL     1      -1.664   0.291   2.490  0.00  0.00    -0.272 OA
BRANCH  23  25
ATOM     25  C   UNL     1      -1.679  -0.962   4.490  0.00  0.00    +0.192 C 
BRANCH  25  26
ATOM     26  C   UNL     1      -3.084  -0.441   4.648  0.00  0.00    -0.003 A 
ATOM     27  C   UNL     1      -4.103  -0.951   3.865  0.00  0.00    +0.007 A 
ATOM     28  C   UNL     1      -5.392  -0.473   4.010  0.00  0.00    +0.000 A 
ATOM     29  C   UNL     1      -5.662   0.515   4.938  0.00  0.00    +0.000 A 
ATOM     30  C   UNL     1      -4.643   1.024   5.722  0.00  0.00    +0.000 A 
ATOM     31  C   UNL     1      -3.355   0.543   5.580  0.00  0.00    +0.007 A 
ENDBRANCH  25  26
BRANCH  25  32
ATOM     32  C   UNL     1      -1.722  -2.439   4.191  0.00  0.00    -0.003 A 
ATOM     33  C   UNL     1      -1.740  -3.353   5.228  0.00  0.00    +0.007 A 
ATOM     34  C   UNL     1      -1.779  -4.708   4.954  0.00  0.00    +0.000 A 
ATOM     35  C   UNL     1      -1.800  -5.147   3.644  0.00  0.00    +0.000 A 
ATOM     36  C   UNL     1      -1.783  -4.233   2.607  0.00  0.00    +0.000 A 
ATOM     37  C   UNL     1      -1.748  -2.879   2.881  0.00  0.00    +0.007 A 
ENDBRANCH  25  32
BRANCH  25  38
ATOM     38  O   UNL     1      -0.950  -0.742   5.699  0.00  0.00    -0.371 OA
ATOM     39  H   UNL     1      -0.882   0.189   5.953  0.00  0.00    +0.212 HD
ENDBRANCH  25  38
ENDBRANCH  23  25
ENDBRANCH   1  21
TORSDOF 10
