REMARK  Name = ZINC05737799
REMARK  5 active torsions:
REMARK  status: ('A' for Active; 'I' for Inactive)
REMARK    1  A    between atoms: C_1  and  C_2
REMARK    2  A    between atoms: C_5  and  N_9
REMARK    3  A    between atoms: C_6  and  C_8
REMARK    4  A    between atoms: C_19  and  N_20
REMARK    5  A    between atoms: N_20  and  C_21
REMARK                            x       y       z     vdW  Elec       q    Type
REMARK                         _______ _______ _______ _____ _____    ______ ____
ROOT
ATOM      1  N   UNL     1      -0.014  -4.202  -0.745  0.00  0.00    -0.189 N 
ATOM      2  C   UNL     1      -1.164  -4.878  -0.545  0.00  0.00    +0.265 C 
ATOM      3  O   UNL     1      -2.240  -4.312  -0.607  0.00  0.00    -0.269 OA
ATOM      4  C   UNL     1      -1.083  -6.320  -0.252  0.00  0.00    +0.113 C 
ATOM      5  C   UNL     1       0.262  -6.919  -0.198  0.00  0.00    +0.258 C 
ATOM      6  O   UNL     1       0.409  -8.104   0.039  0.00  0.00    -0.270 OA
ATOM      7  N   UNL     1       1.326  -6.119  -0.418  0.00  0.00    -0.235 N 
ATOM      8  C   UNL     1       1.177  -4.814  -0.685  0.00  0.00    +0.320 C 
ATOM      9  O   UNL     1       2.176  -4.149  -0.879  0.00  0.00    -0.251 OA
ATOM     10  C   UNL     1      -2.220  -7.077  -0.036  0.00  0.00    +0.086 C 
ATOM     11  H   UNL     1       2.218  -6.498  -0.386  0.00  0.00    +0.159 HD
ENDROOT
BRANCH   1  16
ATOM     12  C   UNL     1      -0.226   1.353  -1.883  0.00  0.00    +0.044 C 
ATOM     13  C   UNL     1      -0.169  -0.122  -1.581  0.00  0.00    -0.050 A 
ATOM     14  C   UNL     1      -0.209  -1.040  -2.614  0.00  0.00    +0.005 A 
ATOM     15  C   UNL     1      -0.158  -2.393  -2.340  0.00  0.00    +0.024 A 
ATOM     16  C   UNL     1      -0.066  -2.830  -1.026  0.00  0.00    +0.049 A 
ATOM     17  C   UNL     1      -0.025  -1.906   0.009  0.00  0.00    -0.028 A 
ATOM     18  C   UNL     1      -0.072  -0.555  -0.271  0.00  0.00    +0.008 A 
ATOM     19  C   UNL     1       0.074  -2.377   1.437  0.00  0.00    +0.046 C 
ENDBRANCH   1  16
BRANCH  10  21
ATOM     20  H   UNL     1      -3.479  -5.506   0.077  0.00  0.00    +0.146 HD
ATOM     21  N   UNL     1      -3.421  -6.475   0.071  0.00  0.00    -0.346 N 
BRANCH  21  22
ATOM     22  C   UNL     1      -4.639  -7.282   0.178  0.00  0.00    +0.070 C 
ATOM     23  C   UNL     1      -4.920  -7.620   1.657  0.00  0.00    +0.022 C 
ATOM     24  C   UNL     1      -5.926  -6.533   2.110  0.00  0.00    +0.002 C 
ATOM     25  C   UNL     1      -6.825  -6.358   0.861  0.00  0.00    +0.002 C 
ATOM     26  C   UNL     1      -5.850  -6.479  -0.328  0.00  0.00    +0.022 C 
ENDBRANCH  21  22
ENDBRANCH  10  21
TORSDOF 3
