REMARK  Name = ZINC36660392
REMARK  12 active torsions:
REMARK  status: ('A' for Active; 'I' for Inactive)
REMARK    1  A    between atoms: C_1  and  C_2
REMARK    2  A    between atoms: C_2  and  N_3
REMARK    3  A    between atoms: N_3  and  C_4
REMARK    4  A    between atoms: N_3  and  C_6
REMARK    5  A    between atoms: C_4  and  C_5
REMARK    6  A    between atoms: C_6  and  C_7
REMARK    7  A    between atoms: C_7  and  N_8
REMARK    8  A    between atoms: C_18  and  C_20
REMARK    9  A    between atoms: N_25  and  S_26
REMARK   10  A    between atoms: S_26  and  C_29
REMARK   11  A    between atoms: C_32  and  O_35
REMARK   12  A    between atoms: O_35  and  C_36
REMARK                            x       y       z     vdW  Elec       q    Type
REMARK                         _______ _______ _______ _____ _____    ______ ____
ROOT
ATOM      1  N   UNL     1       1.602  -4.397   2.766  0.00  0.00    -0.251 N 
ATOM      2  C   UNL     1       2.748  -4.882   2.157  0.00  0.00    +0.168 A 
ATOM      3  N   UNL     1       3.781  -4.216   1.696  0.00  0.00    -0.224 NA
ATOM      4  C   UNL     1       4.840  -4.825   1.121  0.00  0.00    +0.080 A 
ATOM      5  C   UNL     1       6.006  -4.230   0.588  0.00  0.00    +0.029 A 
ATOM      6  C   UNL     1       6.995  -5.000   0.034  0.00  0.00    +0.002 A 
ATOM      7  C   UNL     1       6.891  -6.382  -0.025  0.00  0.00    +0.001 A 
ATOM      8  C   UNL     1       5.763  -6.998   0.487  0.00  0.00    +0.017 A 
ATOM      9  C   UNL     1       4.768  -6.235   1.044  0.00  0.00    +0.041 A 
ATOM     10  S   UNL     1       3.200  -6.576   1.806  0.00  0.00    -0.052 S 
ATOM     11  C   UNL     1       0.694  -5.254   3.272  0.00  0.00    +0.240 C 
ATOM     12  O   UNL     1       0.921  -6.445   3.279  0.00  0.00    -0.273 OA
ENDROOT
BRANCH  11  13
ATOM     13  C   UNL     1      -0.605  -4.732   3.831  0.00  0.00    +0.166 C 
ATOM     14  C   UNL     1      -0.444  -4.425   5.335  0.00  0.00    +0.031 C 
ATOM     15  C   UNL     1      -1.802  -4.881   5.930  0.00  0.00    +0.019 C 
ATOM     16  C   UNL     1      -2.127  -6.116   5.053  0.00  0.00    +0.110 C 
ATOM     17  N   UNL     1      -1.653  -5.755   3.701  0.00  0.00    -0.165 NA
BRANCH  17  18
ATOM     18  S   UNL     1      -2.206  -6.394   2.277  0.00  0.00    +0.062 S 
ATOM     19  O   UNL     1      -3.565  -6.750   2.492  0.00  0.00    -0.153 OA
ATOM     20  O   UNL     1      -1.807  -5.499   1.248  0.00  0.00    -0.153 OA
BRANCH  18  21
ATOM     21  C   UNL     1      -1.329  -7.897   2.004  0.00  0.00    +0.106 A 
ATOM     22  C   UNL     1      -0.213  -7.907   1.188  0.00  0.00    +0.032 A 
ATOM     23  C   UNL     1       0.476  -9.085   0.973  0.00  0.00    +0.047 A 
ATOM     24  C   UNL     1       0.048 -10.258   1.576  0.00  0.00    +0.120 A 
ATOM     25  C   UNL     1      -1.071 -10.245   2.396  0.00  0.00    +0.047 A 
ATOM     26  C   UNL     1      -1.754  -9.064   2.612  0.00  0.00    +0.032 A 
BRANCH  24  27
ATOM     27  O   UNL     1       0.725 -11.418   1.366  0.00  0.00    -0.495 OA
ATOM     28  C   UNL     1       0.227 -12.587   2.020  0.00  0.00    +0.277 C 
ENDBRANCH  24  27
ENDBRANCH  18  21
ENDBRANCH  17  18
ENDBRANCH  11  13
BRANCH   1  29
ATOM     29  C   UNL     1       1.379  -2.952   2.860  0.00  0.00    +0.097 C 
BRANCH  29  30
ATOM     30  C   UNL     1       0.616  -2.473   1.623  0.00  0.00    -0.059 C 
BRANCH  30  31
ATOM     31  N   UNL     1       0.283  -1.050   1.774  0.00  0.00    +0.380 N 
ATOM     32  H   UNL     1      -0.206  -0.910   2.645  0.00  0.00    -0.082 HD
BRANCH  31  34
ATOM     33  C   UNL     1       1.182   1.211   2.053  0.00  0.00    -0.017 C 
ATOM     34  C   UNL     1       1.518  -0.255   1.772  0.00  0.00    -0.082 C 
ENDBRANCH  31  34
BRANCH  31  35
ATOM     35  C   UNL     1      -0.574  -0.627   0.658  0.00  0.00    -0.082 C 
ATOM     36  C   UNL     1      -1.919  -1.351   0.745  0.00  0.00    -0.017 C 
ENDBRANCH  31  35
ENDBRANCH  30  31
ENDBRANCH  29  30
ENDBRANCH   1  29
TORSDOF 9
