REMARK  Name = ZINC19350144
REMARK  6 active torsions:
REMARK  status: ('A' for Active; 'I' for Inactive)
REMARK    1  A    between atoms: C_5  and  O_7
REMARK    2  A    between atoms: O_7  and  C_8
REMARK    3  A    between atoms: N_11  and  C_14
REMARK    4  A    between atoms: C_14  and  C_15
REMARK    5  A    between atoms: N_17  and  C_18
REMARK    6  A    between atoms: C_19  and  C_26
REMARK                            x       y       z     vdW  Elec       q    Type
REMARK                         _______ _______ _______ _____ _____    ______ ____
ROOT
ATOM      1  C   UNL     1       7.893   2.240   2.728  0.00  0.00    +0.201 C 
ATOM      2  O   UNL     1       7.119   2.719   3.529  0.00  0.00    -0.278 OA
ATOM      3  N   UNL     1       9.056   1.705   3.150  0.00  0.00    -0.281 N 
ATOM      4  H   UNL     1       9.758   1.271   2.423  0.00  0.00    +0.155 HD
ENDROOT
BRANCH   3   5
ATOM      5  C   UNL     1       9.367   1.703   4.502  0.00  0.00    +0.084 A 
ATOM      6  C   UNL     1      10.498   1.201   5.123  0.00  0.00    +0.068 A 
ATOM      7  C   UNL     1      10.585   1.329   6.577  0.00  0.00    -0.023 A 
ATOM      8  C   UNL     1       9.530   1.924   7.162  0.00  0.00    -0.004 A 
ATOM      9  S   UNL     1       8.434   2.320   5.822  0.00  0.00    -0.077 S 
ATOM     10  C   UNL     1       9.691   2.017   8.655  0.00  0.00    +0.043 C 
ATOM     11  C   UNL     1      11.197   1.782   8.900  0.00  0.00    +0.010 C 
ATOM     12  C   UNL     1      11.590   0.947   7.665  0.00  0.00    +0.037 C 
BRANCH   6  13
ATOM     13  C   UNL     1      11.571   0.567   4.351  0.00  0.00    +0.244 C 
ATOM     14  O   UNL     1      12.492   1.239   3.923  0.00  0.00    -0.270 OA
ATOM     15  N   UNL     1      11.539  -0.759   4.115  0.00  0.00    -0.325 N 
ATOM     16  H   UNL     1      12.344  -1.235   3.535  0.00  0.00    +0.145 HD
ATOM     17  H   UNL     1      10.707  -1.367   4.501  0.00  0.00    +0.145 HD
ENDBRANCH   6  13
ENDBRANCH   3   5
BRANCH   1  18
ATOM     18  C   UNL     1       7.555   2.243   1.259  0.00  0.00    +0.019 C 
BRANCH  18  22
ATOM     19  C   UNL     1       3.532   3.108   0.097  0.00  0.00    +0.170 C 
ATOM     20  C   UNL     1       3.848   2.833   1.570  0.00  0.00    +0.026 C 
ATOM     21  C   UNL     1       5.175   2.076   1.669  0.00  0.00    -0.075 C 
ATOM     22  N   UNL     1       6.245   2.876   1.060  0.00  0.00    +0.386 N 
ATOM     23  C   UNL     1       5.986   3.112  -0.366  0.00  0.00    -0.075 C 
ATOM     24  C   UNL     1       4.684   3.901  -0.526  0.00  0.00    +0.026 C 
ATOM     25  H   UNL     1       6.260   3.854   1.564  0.00  0.00    -0.081 HD
BRANCH  19  26
ATOM     26  O   UNL     1       2.324   3.865   0.001  0.00  0.00    -0.486 OA
BRANCH  26  31
ATOM     27  C   UNL     1      -0.021   1.092   0.229  0.00  0.00    +0.004 A 
ATOM     28  C   UNL     1      -1.219   1.749   0.020  0.00  0.00    +0.003 A 
ATOM     29  C   UNL     1      -1.234   3.116  -0.187  0.00  0.00    +0.042 A 
ATOM     30  C   UNL     1      -0.049   3.828  -0.196  0.00  0.00    +0.165 A 
ATOM     31  C   UNL     1       1.157   3.168   0.009  0.00  0.00    +0.156 A 
ATOM     32  C   UNL     1       1.167   1.798   0.221  0.00  0.00    +0.048 A 
ATOM     33  F   UNL     1      -0.062   5.163  -0.403  0.00  0.00    -0.202 F 
ENDBRANCH  26  31
ENDBRANCH  19  26
ENDBRANCH  18  22
ENDBRANCH   1  18
TORSDOF 6
