REMARK  Name = ZINC09542428
REMARK  11 active torsions:
REMARK  status: ('A' for Active; 'I' for Inactive)
REMARK    1  A    between atoms: C_1  and  C_2
REMARK    2  A    between atoms: C_2  and  O_3
REMARK    3  A    between atoms: O_3  and  C_4
REMARK    4  A    between atoms: C_8  and  C_11
REMARK    5  A    between atoms: C_9  and  O_10
REMARK    6  A    between atoms: C_14  and  C_27
REMARK    7  A    between atoms: C_16  and  C_18
REMARK    8  A    between atoms: C_21  and  O_25
REMARK    9  A    between atoms: O_25  and  C_26
REMARK   10  A    between atoms: C_30  and  O_33
REMARK   11  A    between atoms: O_33  and  C_34
REMARK                            x       y       z     vdW  Elec       q    Type
REMARK                         _______ _______ _______ _____ _____    ______ ____
ROOT
ATOM      1  C   UNL     1       2.397  -4.323   0.347  0.00  0.00    -0.028 C 
ATOM      2  C   UNL     1       2.581  -2.852  -0.044  0.00  0.00    +0.044 C 
ATOM      3  C   UNL     1       1.248  -2.158  -0.021  0.00  0.00    +0.040 C 
ATOM      4  N   UNL     1       0.132  -2.788  -0.013  0.00  0.00    -0.299 NA
ATOM      5  C   UNL     1       0.013  -4.240  -0.009  0.00  0.00    +0.081 C 
ATOM      6  N   UNL     1       1.272  -4.869  -0.437  0.00  0.00    +0.401 N 
ATOM      7  H   UNL     1       1.213  -5.883  -0.289  0.00  0.00    -0.081 HD
ATOM      8  H   UNL     1       1.427  -4.677  -1.434  0.00  0.00    -0.081 HD
ENDROOT
BRANCH   5   9
ATOM      9  C   UNL     1      -1.088  -4.650  -0.953  0.00  0.00    -0.039 A 
ATOM     10  C   UNL     1      -1.019  -5.866  -1.607  0.00  0.00    +0.007 A 
ATOM     11  C   UNL     1      -2.029  -6.247  -2.470  0.00  0.00    +0.047 A 
ATOM     12  C   UNL     1      -3.109  -5.404  -2.687  0.00  0.00    +0.134 A 
ATOM     13  C   UNL     1      -3.174  -4.182  -2.033  0.00  0.00    +0.060 A 
ATOM     14  C   UNL     1      -2.163  -3.808  -1.167  0.00  0.00    +0.022 A 
ATOM     15 BR   UNL     1      -4.644  -3.029  -2.325  0.00  0.00    -0.047 Br
BRANCH  12  16
ATOM     16  O   UNL     1      -4.101  -5.774  -3.538  0.00  0.00    -0.494 OA
ATOM     17  C   UNL     1      -3.968  -7.046  -4.176  0.00  0.00    +0.277 C 
ENDBRANCH  12  16
ENDBRANCH   5   9
BRANCH   1  22
ATOM     18  C   UNL     1       5.842  -5.861   0.660  0.00  0.00    +0.162 A 
ATOM     19  C   UNL     1       5.959  -6.513  -0.557  0.00  0.00    +0.049 A 
ATOM     20  C   UNL     1       4.927  -6.455  -1.474  0.00  0.00    +0.004 A 
ATOM     21  C   UNL     1       3.776  -5.747  -1.181  0.00  0.00    +0.006 A 
ATOM     22  C   UNL     1       3.652  -5.094   0.031  0.00  0.00    -0.016 A 
ATOM     23  C   UNL     1       4.686  -5.144   0.953  0.00  0.00    +0.160 A 
BRANCH  23  24
ATOM     24  O   UNL     1       4.568  -4.498   2.144  0.00  0.00    -0.503 OA
ATOM     25  H   UNL     1       4.179  -5.036   2.847  0.00  0.00    +0.292 HD
ENDBRANCH  23  24
BRANCH  18  26
ATOM     26  O   UNL     1       6.856  -5.917   1.564  0.00  0.00    -0.489 OA
BRANCH  26  28
ATOM     27  C   UNL     1       9.040  -6.616   2.328  0.00  0.00    +0.048 C 
ATOM     28  C   UNL     1       8.015  -6.667   1.194  0.00  0.00    +0.226 C 
ENDBRANCH  26  28
ENDBRANCH  18  26
ENDBRANCH   1  22
BRANCH   3  29
ATOM     29  C   UNL     1       1.223  -0.684  -0.013  0.00  0.00    -0.004 A 
ATOM     30  C   UNL     1       0.002  -0.004   0.002  0.00  0.00    +0.013 A 
ATOM     31  C   UNL     1      -0.017   1.373   0.010  0.00  0.00    +0.046 A 
ATOM     32  C   UNL     1       1.176   2.086   0.002  0.00  0.00    +0.120 A 
ATOM     33  C   UNL     1       2.392   1.414  -0.013  0.00  0.00    +0.046 A 
ATOM     34  C   UNL     1       2.420   0.037  -0.021  0.00  0.00    +0.013 A 
BRANCH  32  35
ATOM     35  O   UNL     1       1.153   3.444   0.010  0.00  0.00    -0.495 OA
ATOM     36  C   UNL     1       2.415   4.114   0.001  0.00  0.00    +0.277 C 
ENDBRANCH  32  35
ENDBRANCH   3  29
TORSDOF 8
