REMARK  Name = ZINC39552662
REMARK  4 active torsions:
REMARK  status: ('A' for Active; 'I' for Inactive)
REMARK    1  A    between atoms: C_1  and  C_2
REMARK    2  A    between atoms: C_9  and  C_14
REMARK    3  A    between atoms: C_11  and  C_13
REMARK    4  A    between atoms: C_19  and  C_22
REMARK                            x       y       z     vdW  Elec       q    Type
REMARK                         _______ _______ _______ _____ _____    ______ ____
ROOT
ATOM      1  C   UNL     1       0.011  -5.036   2.710  0.00  0.00    +0.257 C 
ATOM      2  O   UNL     1       0.888  -4.754   3.499  0.00  0.00    -0.272 OA
ATOM      3  N   UNL     1      -0.514  -6.277   2.702  0.00  0.00    -0.298 N 
ATOM      4  C   UNL     1      -1.497  -6.667   1.682  0.00  0.00    +0.108 C 
ATOM      5  C   UNL     1      -1.011  -7.945   0.991  0.00  0.00    +0.028 C 
ATOM      6  C   UNL     1      -0.741  -9.019   2.047  0.00  0.00    +0.041 C 
ATOM      7  C   UNL     1       0.356  -8.537   2.999  0.00  0.00    +0.028 C 
ATOM      8  C   UNL     1      -0.110  -7.268   3.708  0.00  0.00    +0.108 C 
ENDROOT
BRANCH   1  17
ATOM      9  C   UNL     1       0.254   1.700  -0.118  0.00  0.00    +0.044 C 
ATOM     10  C   UNL     1       0.303   0.195  -0.054  0.00  0.00    -0.047 A 
ATOM     11  C   UNL     1       0.675  -0.530  -1.171  0.00  0.00    +0.004 A 
ATOM     12  C   UNL     1       0.716  -1.912  -1.111  0.00  0.00    +0.008 A 
ATOM     13  C   UNL     1       0.387  -2.560   0.059  0.00  0.00    +0.001 A 
ATOM     14  C   UNL     1       0.019  -1.842   1.190  0.00  0.00    +0.125 A 
ATOM     15  C   UNL     1      -0.019  -0.452   1.121  0.00  0.00    +0.049 A 
ATOM     16  O   UNL     1      -0.242  -2.672   2.237  0.00  0.00    -0.479 OA
ATOM     17  C   UNL     1      -0.491  -3.998   1.740  0.00  0.00    +0.266 C 
ATOM     18  C   UNL     1       0.326  -4.030   0.426  0.00  0.00    +0.069 C 
ATOM     19  C   UNL     1      -0.404  -4.833  -0.652  0.00  0.00    +0.017 C 
ENDBRANCH   1  17
BRANCH   6  20
ATOM     20  C   UNL     1      -0.295 -10.289   1.368  0.00  0.00    +0.051 A 
ATOM     21  N   UNL     1       0.811 -10.294   0.620  0.00  0.00    -0.242 NA
ATOM     22  C   UNL     1       1.224 -11.378   0.019  0.00  0.00    +0.199 A 
ATOM     23  N   UNL     1       0.553 -12.541   0.127  0.00  0.00    -0.313 N 
ATOM     24  C   UNL     1      -0.573 -12.603   0.870  0.00  0.00    +0.252 A 
ATOM     25  O   UNL     1      -1.191 -13.649   0.978  0.00  0.00    -0.268 OA
ATOM     26  C   UNL     1      -1.016 -11.434   1.522  0.00  0.00    +0.093 A 
ATOM     27  H   UNL     1       0.879 -13.334  -0.328  0.00  0.00    +0.170 HD
ENDBRANCH   6  20
TORSDOF 2
