REMARK  Name = ZINC09236229
REMARK  9 active torsions:
REMARK  status: ('A' for Active; 'I' for Inactive)
REMARK    1  A    between atoms: C_1  and  C_2
REMARK    2  A    between atoms: C_6  and  N_9
REMARK    3  A    between atoms: C_7  and  C_8
REMARK    4  A    between atoms: C_10  and  C_12
REMARK    5  A    between atoms: C_14  and  C_29
REMARK    6  A    between atoms: C_18  and  C_23
REMARK    7  A    between atoms: C_32  and  C_35
REMARK    8  A    between atoms: C_35  and  O_37
REMARK    9  A    between atoms: O_37  and  C_38
REMARK                            x       y       z     vdW  Elec       q    Type
REMARK                         _______ _______ _______ _____ _____    ______ ____
ROOT
ATOM      1  C   UNL     1      -2.664   0.984   0.132  0.00  0.00    +0.166 C 
ATOM      2  C   UNL     1      -2.217  -0.177   1.030  0.00  0.00    +0.140 C 
ATOM      3  N   UNL     1      -1.065  -0.863   0.443  0.00  0.00    -0.272 N 
ATOM      4  N   UNL     1       0.015  -0.060   0.263  0.00  0.00    -0.221 N 
ATOM      5  C   UNL     1       1.329  -0.439   0.136  0.00  0.00    +0.182 A 
ATOM      6  N   UNL     1       2.031   0.658  -0.040  0.00  0.00    -0.127 NA
ATOM      7  N   UNL     1       1.255   1.686  -0.027  0.00  0.00    -0.121 NA
ATOM      8  C   UNL     1       0.021   1.302   0.160  0.00  0.00    +0.210 A 
ATOM      9  S   UNL     1      -1.426   2.308   0.277  0.00  0.00    -0.069 S 
ATOM     10  H   UNL     1      -0.821  -1.683   0.978  0.00  0.00    +0.167 HD
ENDROOT
BRANCH   5  11
ATOM     11  C   UNL     1       1.854  -1.820   0.186  0.00  0.00    +0.021 A 
ATOM     12  C   UNL     1       0.994  -2.904   0.008  0.00  0.00    +0.011 A 
ATOM     13  C   UNL     1       1.491  -4.191   0.052  0.00  0.00    +0.001 A 
ATOM     14  C   UNL     1       2.838  -4.407   0.281  0.00  0.00    +0.000 A 
ATOM     15  C   UNL     1       3.696  -3.337   0.463  0.00  0.00    +0.001 A 
ATOM     16  C   UNL     1       3.212  -2.046   0.417  0.00  0.00    +0.011 A 
ENDBRANCH   5  11
BRANCH   2  17
ATOM     17  C   UNL     1      -3.356  -1.153   1.177  0.00  0.00    -0.024 A 
ATOM     18  C   UNL     1      -3.606  -2.076   0.177  0.00  0.00    +0.006 A 
ATOM     19  C   UNL     1      -4.644  -2.976   0.308  0.00  0.00    +0.015 A 
ATOM     20  C   UNL     1      -5.449  -2.947   1.448  0.00  0.00    +0.059 A 
ATOM     21  C   UNL     1      -5.195  -2.009   2.451  0.00  0.00    +0.015 A 
ATOM     22  C   UNL     1      -4.150  -1.119   2.310  0.00  0.00    +0.006 A 
BRANCH  20  23
ATOM     23  C   UNL     1      -6.566  -3.903   1.593  0.00  0.00    +0.339 C 
ATOM     24  O   UNL     1      -7.265  -3.874   2.586  0.00  0.00    -0.245 OA
BRANCH  23  25
ATOM     25  O   UNL     1      -6.809  -4.806   0.624  0.00  0.00    -0.464 OA
ATOM     26  C   UNL     1      -7.922  -5.714   0.833  0.00  0.00    +0.280 C 
ENDBRANCH  23  25
ENDBRANCH  20  23
ENDBRANCH   2  17
BRANCH   1  28
ATOM     27  N   UNL     1      -3.637   1.087  -2.139  0.00  0.00    -0.284 N 
ATOM     28  C   UNL     1      -2.749   0.520  -1.299  0.00  0.00    +0.233 C 
ATOM     29  O   UNL     1      -2.019  -0.364  -1.694  0.00  0.00    -0.274 OA
ATOM     30  H   UNL     1      -4.174   1.838  -1.843  0.00  0.00    +0.155 HD
BRANCH  27  36
ATOM     31  C   UNL     1      -6.429   0.447  -6.135  0.00  0.00    +0.044 C 
ATOM     32  C   UNL     1      -5.125   0.269  -5.400  0.00  0.00    -0.046 A 
ATOM     33  C   UNL     1      -4.072  -0.385  -6.013  0.00  0.00    +0.004 A 
ATOM     34  C   UNL     1      -2.874  -0.551  -5.342  0.00  0.00    +0.002 A 
ATOM     35  C   UNL     1      -2.725  -0.059  -4.060  0.00  0.00    +0.023 A 
ATOM     36  C   UNL     1      -3.783   0.593  -3.440  0.00  0.00    +0.037 A 
ATOM     37  C   UNL     1      -4.985   0.758  -4.117  0.00  0.00    -0.026 A 
ATOM     38  C   UNL     1      -6.133   1.470  -3.451  0.00  0.00    +0.046 C 
ENDBRANCH  27  36
ENDBRANCH   1  28
TORSDOF 6
