REMARK  Name = ZINC08411002
REMARK  6 active torsions:
REMARK  status: ('A' for Active; 'I' for Inactive)
REMARK    1  A    between atoms: C_1  and  O_2
REMARK    2  A    between atoms: O_2  and  C_3
REMARK    3  A    between atoms: C_8  and  N_9
REMARK    4  A    between atoms: C_15  and  C_20
REMARK    5  A    between atoms: C_20  and  S_21
REMARK    6  A    between atoms: S_21  and  C_22
REMARK                            x       y       z     vdW  Elec       q    Type
REMARK                         _______ _______ _______ _____ _____    ______ ____
ROOT
ATOM      1  N   UNL     1       2.009   3.450  -0.257  0.00  0.00    -0.325 N 
ATOM      2  C   UNL     1       2.224   4.785  -0.510  0.00  0.00    +0.180 C 
ATOM      3  N   UNL     1       3.329   5.418   0.023  0.00  0.00    -0.298 N 
ATOM      4  C   UNL     1       3.456   6.783  -0.083  0.00  0.00    +0.212 A 
ATOM      5  N   UNL     1       2.339   7.551  -0.178  0.00  0.00    -0.328 N 
ATOM      6  H   UNL     1       1.437   7.120  -0.170  0.00  0.00    +0.168 HD
ATOM      7  C   UNL     1       2.442   8.908  -0.284  0.00  0.00    +0.034 A 
ATOM      8  C   UNL     1       3.665   9.480  -0.294  0.00  0.00    +0.094 A 
ATOM      9  C   UNL     1       4.810   8.649  -0.193  0.00  0.00    +0.275 A 
ATOM     10  O   UNL     1       5.928   9.141  -0.199  0.00  0.00    -0.266 OA
ATOM     11  N   UNL     1       4.657   7.322  -0.086  0.00  0.00    -0.175 NA
ATOM     12  H   UNL     1       2.580   2.976   0.367  0.00  0.00    +0.169 HD
ATOM     13  H   UNL     1       1.505   6.363  -1.576  0.00  0.00    +0.159 HD
ATOM     14  H   UNL     1       4.015   4.901   0.472  0.00  0.00    +0.172 HD
ATOM     15  N   UNL     1       1.331   5.407  -1.264  0.00  0.00    -0.371 N 
ATOM     16  H   UNL     1       0.465   4.928  -1.535  0.00  0.00    +0.159 HD
ENDROOT
BRANCH   1  22
ATOM     17  C   UNL     1       0.414   1.630  -0.327  0.00  0.00    +0.143 A 
ATOM     18  C   UNL     1      -0.620   0.966  -0.968  0.00  0.00    +0.049 A 
ATOM     19  C   UNL     1      -1.100   1.436  -2.176  0.00  0.00    +0.024 A 
ATOM     20  C   UNL     1      -0.560   2.576  -2.743  0.00  0.00    +0.043 A 
ATOM     21  C   UNL     1       0.472   3.245  -2.110  0.00  0.00    +0.049 A 
ATOM     22  C   UNL     1       0.963   2.775  -0.900  0.00  0.00    +0.085 A 
ATOM     23 CL   UNL     1      -1.173   3.165  -4.257  0.00  0.00    -0.083 Cl
BRANCH  17  25
ATOM     24  C   UNL     1       0.281  -0.014   1.386  0.00  0.00    +0.277 C 
ATOM     25  O   UNL     1       0.892   1.165   0.858  0.00  0.00    -0.493 OA
ENDBRANCH  17  25
ENDBRANCH   1  22
BRANCH   7  26
ATOM     26  C   UNL     1       1.202   9.759  -0.390  0.00  0.00    +0.127 C 
BRANCH  26  27
ATOM     27  S   UNL     1       0.654  10.238   1.271  0.00  0.00    -0.119 S 
BRANCH  27  28
ATOM     28  C   UNL     1      -0.783  11.215   0.981  0.00  0.00    +0.008 A 
ATOM     29  C   UNL     1      -1.218  11.445  -0.319  0.00  0.00    +0.016 A 
ATOM     30  C   UNL     1      -2.348  12.207  -0.543  0.00  0.00    +0.021 A 
ATOM     31  C   UNL     1      -3.041  12.750   0.524  0.00  0.00    +0.041 A 
ATOM     32  C   UNL     1      -2.607  12.527   1.820  0.00  0.00    +0.021 A 
ATOM     33  C   UNL     1      -1.482  11.762   2.051  0.00  0.00    +0.016 A 
ATOM     34 CL   UNL     1      -4.457  13.712   0.238  0.00  0.00    -0.084 Cl
ENDBRANCH  27  28
ENDBRANCH  26  27
ENDBRANCH   7  26
TORSDOF 5
