REMARK  Name = ZINC05190871
REMARK  9 active torsions:
REMARK  status: ('A' for Active; 'I' for Inactive)
REMARK    1  A    between atoms: C_1  and  C_2
REMARK    2  A    between atoms: C_5  and  S_8
REMARK    3  A    between atoms: S_8  and  C_9
REMARK    4  A    between atoms: C_9  and  C_10
REMARK    5  A    between atoms: N_12  and  C_13
REMARK    6  A    between atoms: C_14  and  C_24
REMARK    7  A    between atoms: C_21  and  C_22
REMARK    8  A    between atoms: C_21  and  C_23
REMARK    9  A    between atoms: C_21  and  N_52
REMARK                            x       y       z     vdW  Elec       q    Type
REMARK                         _______ _______ _______ _____ _____    ______ ____
ROOT
ATOM      1  C   UNL     1       4.379   7.762   0.002  0.00  0.00    +0.084 A 
ATOM      2  C   UNL     1       5.537   8.529   0.001  0.00  0.00    +0.068 A 
ATOM      3  C   UNL     1       5.383   9.972   0.004  0.00  0.00    -0.027 A 
ATOM      4  C   UNL     1       4.106  10.416   0.019  0.00  0.00    -0.021 A 
ATOM      5  S   UNL     1       3.117   8.949   0.021  0.00  0.00    -0.079 S 
ATOM      6  C   UNL     1       3.662  11.846   0.033  0.00  0.00    -0.035 C 
ATOM      7  C   UNL     1       5.991  12.331  -0.430  0.00  0.00    -0.073 C 
ATOM      8  C   UNL     1       6.538  10.966  -0.004  0.00  0.00    +0.018 C 
ATOM      9  N   UNL     1       4.829  12.678   0.414  0.00  0.00    +0.384 N 
ATOM     10  H   UNL     1       5.064  12.495   1.397  0.00  0.00    -0.081 HD
ENDROOT
BRANCH   2  11
ATOM     11  C   UNL     1       6.864   7.905  -0.008  0.00  0.00    +0.244 C 
ATOM     12  O   UNL     1       7.410   7.652  -1.065  0.00  0.00    -0.270 OA
ATOM     13  N   UNL     1       7.478   7.613   1.155  0.00  0.00    -0.325 N 
ATOM     14  H   UNL     1       7.043   7.815   1.998  0.00  0.00    +0.145 HD
ATOM     15  H   UNL     1       8.356   7.200   1.150  0.00  0.00    +0.145 HD
ENDBRANCH   2  11
BRANCH   1  18
ATOM     16  C   UNL     1       3.042   5.807   0.004  0.00  0.00    +0.228 C 
ATOM     17  O   UNL     1       2.047   6.500   0.017  0.00  0.00    -0.275 OA
ATOM     18  N   UNL     1       4.262   6.380  -0.004  0.00  0.00    -0.279 N 
ATOM     19  H   UNL     1       5.058   5.826  -0.015  0.00  0.00    +0.155 HD
BRANCH  16  20
ATOM     20  C   UNL     1       2.915   4.306  -0.003  0.00  0.00    +0.170 C 
BRANCH  20  21
ATOM     21  S   UNL     1       1.159   3.848   0.012  0.00  0.00    -0.116 S 
BRANCH  21  26
ATOM     22  C   UNL     1       1.224  -2.188  -0.022  0.00  0.00    +0.044 C 
ATOM     23  C   UNL     1       1.208  -0.681  -0.014  0.00  0.00    -0.050 A 
ATOM     24  C   UNL     1       0.002  -0.004   0.002  0.00  0.00    +0.004 A 
ATOM     25  C   UNL     1      -0.017   1.377   0.010  0.00  0.00    +0.015 A 
ATOM     26  C   UNL     1       1.178   2.086   0.002  0.00  0.00    +0.008 A 
ATOM     27  C   UNL     1       2.388   1.403  -0.012  0.00  0.00    +0.015 A 
ATOM     28  C   UNL     1       2.399   0.022  -0.021  0.00  0.00    +0.004 A 
ENDBRANCH  21  26
ENDBRANCH  20  21
ENDBRANCH  16  20
ENDBRANCH   1  18
BRANCH   9  29
ATOM     29  C   UNL     1       4.501  14.112   0.257  0.00  0.00    -0.074 C 
ATOM     30  C   UNL     1       4.127  14.419  -1.194  0.00  0.00    -0.014 C 
ATOM     31  C   UNL     1       3.322  14.455   1.171  0.00  0.00    -0.014 C 
ENDBRANCH   9  29
TORSDOF 6
