REMARK  Name = ZINC66246072
REMARK  5 active torsions:
REMARK  status: ('A' for Active; 'I' for Inactive)
REMARK    1  A    between atoms: C_1  and  C_2
REMARK    2  A    between atoms: C_7  and  N_8
REMARK    3  A    between atoms: C_9  and  C_11
REMARK    4  A    between atoms: C_11  and  C_12
REMARK    5  A    between atoms: C_12  and  N_13
REMARK                            x       y       z     vdW  Elec       q    Type
REMARK                         _______ _______ _______ _____ _____    ______ ____
ROOT
ATOM      1  N   UNL     1       0.026  -0.014   2.417  0.00  0.00    -0.285 N 
ATOM      2  C   UNL     1      -0.056  -0.694   3.578  0.00  0.00    +0.219 C 
ATOM      3  O   UNL     1      -0.040  -1.906   3.574  0.00  0.00    -0.275 OA
ATOM      4  H   UNL     1       0.079   0.955   2.425  0.00  0.00    +0.155 HD
ENDROOT
BRANCH   1  11
ATOM      5  C   UNL     1      -1.265   1.183   0.182  0.00  0.00    +0.046 C 
ATOM      6  C   UNL     1      -0.584  -0.158   0.085  0.00  0.00    -0.028 A 
ATOM      7  C   UNL     1      -0.570  -0.840  -1.116  0.00  0.00    +0.020 A 
ATOM      8  C   UNL     1       0.055  -2.071  -1.206  0.00  0.00    +0.018 A 
ATOM      9  C   UNL     1       0.666  -2.623  -0.094  0.00  0.00    +0.017 A 
ATOM     10  C   UNL     1       0.655  -1.945   1.109  0.00  0.00    +0.024 A 
ATOM     11  C   UNL     1       0.034  -0.706   1.201  0.00  0.00    +0.036 A 
ATOM     12 BR   UNL     1       0.072  -3.002  -2.852  0.00  0.00    -0.050 Br
ENDBRANCH   1  11
BRANCH   2  13
ATOM     13  C   UNL     1      -0.167   0.054   4.882  0.00  0.00    +0.115 C 
BRANCH  13  14
ATOM     14  C   UNL     1      -0.244  -0.946   6.038  0.00  0.00    +0.113 C 
BRANCH  14  15
ATOM     15  N   UNL     1      -0.351  -0.220   7.306  0.00  0.00    -0.318 N 
ATOM     16  C   UNL     1      -0.434  -0.909   8.484  0.00  0.00    +0.154 C 
ATOM     17  N   UNL     1      -0.416  -2.231   8.542  0.00  0.00    -0.360 N 
ATOM     18  C   UNL     1      -0.521  -2.656   9.946  0.00  0.00    +0.134 C 
ATOM     19  C   UNL     1      -0.606  -1.325  10.719  0.00  0.00    +0.125 C 
ATOM     20  N   UNL     1      -0.533  -0.308   9.658  0.00  0.00    -0.317 N 
ATOM     21  H   UNL     1      -0.364   0.750   7.309  0.00  0.00    +0.149 HD
ATOM     22  H   UNL     1      -0.556   0.652   9.798  0.00  0.00    +0.149 HD
ATOM     23  H   UNL     1      -0.345  -2.825   7.778  0.00  0.00    +0.162 HD
ENDBRANCH  14  15
ENDBRANCH  13  14
ENDBRANCH   2  13
TORSDOF 4
