REMARK  Name = ZINC20504479
REMARK  11 active torsions:
REMARK  status: ('A' for Active; 'I' for Inactive)
REMARK    1  A    between atoms: C_1  and  C_2
REMARK    2  A    between atoms: N_9  and  C_10
REMARK    3  A    between atoms: C_10  and  C_11
REMARK    4  A    between atoms: C_14  and  C_38
REMARK    5  A    between atoms: C_17  and  O_37
REMARK    6  A    between atoms: C_19  and  C_23
REMARK    7  A    between atoms: C_23  and  C_25
REMARK    8  A    between atoms: C_23  and  C_26
REMARK    9  A    between atoms: N_28  and  C_29
REMARK   10  A    between atoms: C_29  and  C_30
REMARK   11  A    between atoms: C_30  and  N_31
REMARK                            x       y       z     vdW  Elec       q    Type
REMARK                         _______ _______ _______ _____ _____    ______ ____
ROOT
ATOM      1  C   UNL     1       2.374  -0.488   3.610  0.00  0.00    +0.014 C 
ATOM      2  C   UNL     1       2.870  -1.063   2.281  0.00  0.00    +0.039 C 
ATOM      3  C   UNL     1       4.388  -0.995   2.234  0.00  0.00    +0.031 A 
ATOM      4  C   UNL     1       5.018  -0.629   1.089  0.00  0.00    +0.013 A 
ATOM      5  S   UNL     1       6.730  -0.715   1.542  0.00  0.00    -0.059 S 
ATOM      6  C   UNL     1       6.490  -1.219   3.188  0.00  0.00    +0.137 A 
ATOM      7  N   UNL     1       5.177  -1.282   3.269  0.00  0.00    -0.340 N 
ATOM      8  N   UNL     1       7.437  -1.484   4.165  0.00  0.00    -0.321 N 
ATOM      9  C   UNL     1       4.399  -0.254  -0.210  0.00  0.00    +0.051 C 
ATOM     10  C   UNL     1       2.918  -0.679  -0.203  0.00  0.00    -0.022 C 
ATOM     11  C   UNL     1       2.272  -0.260   1.120  0.00  0.00    +0.033 C 
ATOM     12  C   UNL     1       0.770  -0.510   1.095  0.00  0.00    +0.123 C 
ATOM     13  C   UNL     1       0.127   0.236  -0.073  0.00  0.00    +0.029 C 
ATOM     14  C   UNL     1       0.739  -0.270  -1.382  0.00  0.00    +0.007 C 
ATOM     15  C   UNL     1       2.236   0.034  -1.374  0.00  0.00    +0.008 C 
ATOM     16  C   UNL     1       2.808  -2.195  -0.379  0.00  0.00    +0.012 C 
ATOM     17  H   UNL     1       7.118  -1.796   5.170  0.00  0.00    +0.148 HD
ATOM     18  H   UNL     1       4.735  -1.583   4.230  0.00  0.00    +0.167 HD
ENDROOT
BRANCH  13  19
ATOM     19  C   UNL     1       0.388   1.736   0.070  0.00  0.00    +0.077 C 
ATOM     20  C   UNL     1      -0.145   2.221   1.420  0.00  0.00    +0.017 C 
BRANCH  19  21
ATOM     21  C   UNL     1      -0.311   2.477  -1.041  0.00  0.00    +0.216 C 
ATOM     22  O   UNL     1      -0.955   1.864  -1.866  0.00  0.00    -0.276 OA
ATOM     23  N   UNL     1      -0.220   3.819  -1.118  0.00  0.00    -0.314 N 
ATOM     24  H   UNL     1       0.364   4.375  -0.369  0.00  0.00    +0.149 HD
BRANCH  23  25
ATOM     25  C   UNL     1      -0.899   4.538  -2.198  0.00  0.00    +0.119 C 
BRANCH  25  26
ATOM     26  C   UNL     1      -0.638   6.039  -2.055  0.00  0.00    +0.103 C 
BRANCH  26  27
ATOM     27  N   UNL     1      -1.319   6.761  -3.138  0.00  0.00    -0.297 NA
ATOM     28  C   UNL     1      -0.728   6.432  -4.443  0.00  0.00    +0.112 C 
ATOM     29  C   UNL     1      -1.504   7.157  -5.546  0.00  0.00    +0.175 C 
ATOM     30  O   UNL     1      -1.492   8.563  -5.285  0.00  0.00    -0.377 OA
ATOM     31  C   UNL     1      -2.061   8.919  -4.022  0.00  0.00    +0.175 C 
ATOM     32  C   UNL     1      -1.291   8.211  -2.904  0.00  0.00    +0.112 C 
ENDBRANCH  26  27
ENDBRANCH  25  26
ENDBRANCH  23  25
ENDBRANCH  19  21
ENDBRANCH  13  19
BRANCH  12  33
ATOM     33  O   UNL     1       0.187  -0.064   2.320  0.00  0.00    -0.391 OA
ATOM     34  H   UNL     1      -0.897  -0.165   2.482  0.00  0.00    +0.210 HD
ENDBRANCH  12  33
BRANCH   8  35
ATOM     35  C   UNL     1       8.863  -1.349   3.859  0.00  0.00    +0.130 C 
BRANCH  35  36
ATOM     36  C   UNL     1       9.675  -1.693   5.081  0.00  0.00    -0.016 C 
ATOM     37  C   UNL     1      10.602  -2.616   5.014  0.00  0.00    +0.005 C 
ENDBRANCH  35  36
ENDBRANCH   8  35
TORSDOF 8
