REMARK  Name = ZINC20807958
REMARK  9 active torsions:
REMARK  status: ('A' for Active; 'I' for Inactive)
REMARK    1  A    between atoms: C_1  and  C_2
REMARK    2  A    between atoms: C_6  and  N_9
REMARK    3  A    between atoms: C_7  and  C_8
REMARK    4  A    between atoms: C_10  and  C_12
REMARK    5  A    between atoms: C_12  and  N_13
REMARK    6  A    between atoms: N_16  and  C_19
REMARK    7  A    between atoms: C_19  and  C_21
REMARK    8  A    between atoms: C_19  and  C_22
REMARK    9  A    between atoms: N_24  and  C_25
REMARK                            x       y       z     vdW  Elec       q    Type
REMARK                         _______ _______ _______ _____ _____    ______ ____
ROOT
ATOM      1  N   UNL     1       1.359   2.012  -0.017  0.00  0.00    -0.298 NA
ATOM      2  C   UNL     1       2.054   1.678   1.234  0.00  0.00    +0.066 C 
ATOM      3  C   UNL     1       3.507   2.154   1.150  0.00  0.00    -0.062 C 
ATOM      4  N   UNL     1       3.531   3.603   0.908  0.00  0.00    +0.389 N 
ATOM      5  C   UNL     1       2.835   3.937  -0.343  0.00  0.00    -0.062 C 
ATOM      6  C   UNL     1       1.383   3.461  -0.259  0.00  0.00    +0.066 C 
ATOM      7  H   UNL     1       2.997   4.095   1.735  0.00  0.00    -0.081 HD
ENDROOT
BRANCH   4   8
ATOM      8  C   UNL     1       4.909   4.112   0.896  0.00  0.00    +0.016 C 
ATOM      9  C   UNL     1       5.708   3.395  -0.193  0.00  0.00    -0.004 C 
BRANCH   8  10
ATOM     10  C   UNL     1       5.549   3.860   2.237  0.00  0.00    +0.200 C 
ATOM     11  O   UNL     1       4.919   3.311   3.116  0.00  0.00    -0.278 OA
ATOM     12  N   UNL     1       6.821   4.245   2.460  0.00  0.00    -0.311 N 
ATOM     13  H   UNL     1       7.393   4.743   1.663  0.00  0.00    +0.149 HD
BRANCH  12  14
ATOM     14  C   UNL     1       7.444   4.000   3.763  0.00  0.00    +0.035 C 
ATOM     15  C   UNL     1       7.457   2.497   4.047  0.00  0.00    +0.029 C 
ATOM     16  C   UNL     1       8.107   2.240   5.408  0.00  0.00    -0.008 C 
ATOM     17  C   UNL     1       9.543   2.770   5.396  0.00  0.00    +0.007 C 
ATOM     18  C   UNL     1       9.529   4.274   5.112  0.00  0.00    -0.008 C 
ATOM     19  C   UNL     1       8.879   4.530   3.751  0.00  0.00    +0.029 C 
ATOM     20  C   UNL     1       8.729   4.991   6.202  0.00  0.00    +0.007 C 
ATOM     21  C   UNL     1       7.294   4.461   6.214  0.00  0.00    -0.008 C 
ATOM     22  C   UNL     1       7.308   2.958   6.498  0.00  0.00    +0.007 C 
ATOM     23  C   UNL     1       6.644   4.717   4.853  0.00  0.00    +0.029 C 
ENDBRANCH  12  14
ENDBRANCH   8  10
ENDBRANCH   4   8
BRANCH   1  24
ATOM     24  C   UNL     1      -0.019   1.503  -0.005  0.00  0.00    +0.180 C 
BRANCH  24  26
ATOM     25  N   UNL     1      -1.156  -0.694   0.009  0.00  0.00    -0.284 N 
ATOM     26  C   UNL     1       0.002  -0.004  -0.001  0.00  0.00    +0.231 C 
ATOM     27  O   UNL     1       1.060  -0.596  -0.008  0.00  0.00    -0.274 OA
ATOM     28  H   UNL     1      -2.113  -0.161   0.107  0.00  0.00    +0.155 HD
BRANCH  25  34
ATOM     29  C   UNL     1      -3.316  -5.032   0.839  0.00  0.00    +0.044 C 
ATOM     30  C   UNL     1      -2.174  -4.216   0.290  0.00  0.00    -0.046 A 
ATOM     31  C   UNL     1      -1.110  -4.846  -0.328  0.00  0.00    +0.004 A 
ATOM     32  C   UNL     1      -0.060  -4.101  -0.834  0.00  0.00    +0.002 A 
ATOM     33  C   UNL     1      -0.072  -2.724  -0.723  0.00  0.00    +0.023 A 
ATOM     34  C   UNL     1      -1.140  -2.088  -0.104  0.00  0.00    +0.037 A 
ATOM     35  C   UNL     1      -2.190  -2.840   0.408  0.00  0.00    -0.026 A 
ATOM     36  C   UNL     1      -3.348  -2.154   1.087  0.00  0.00    +0.046 C 
ENDBRANCH  25  34
ENDBRANCH  24  26
ENDBRANCH   1  24
TORSDOF 6
