REMARK  Name = ZINC67196534
REMARK  6 active torsions:
REMARK  status: ('A' for Active; 'I' for Inactive)
REMARK    1  A    between atoms: C_2  and  C_3
REMARK    2  A    between atoms: C_7  and  N_9
REMARK    3  A    between atoms: N_9  and  C_10
REMARK    4  A    between atoms: C_10  and  N_12
REMARK    5  A    between atoms: N_12  and  N_13
REMARK    6  A    between atoms: C_14  and  C_16
REMARK                            x       y       z     vdW  Elec       q    Type
REMARK                         _______ _______ _______ _____ _____    ______ ____
ROOT
ATOM      1  N   UNL     1       4.702   5.605  -0.238  0.00  0.00    -0.231 N 
ATOM      2  C   UNL     1       5.854   6.294  -0.353  0.00  0.00    +0.259 C 
ATOM      3  O   UNL     1       5.832   7.508  -0.438  0.00  0.00    -0.269 OA
ATOM      4  H   UNL     1       4.720   4.637  -0.171  0.00  0.00    +0.173 HD
ENDROOT
BRANCH   2   5
ATOM      5  C   UNL     1       7.132   5.583  -0.375  0.00  0.00    +0.053 C 
ATOM      6  C   UNL     1       8.294   6.274  -0.484  0.00  0.00    +0.023 C 
ATOM      7  C   UNL     1       9.549   5.507  -0.521  0.00  0.00    +0.019 A 
ATOM      8  C   UNL     1      10.782   6.119  -0.299  0.00  0.00    +0.031 A 
ATOM      9  C   UNL     1      11.935   5.360  -0.343  0.00  0.00    +0.042 A 
ATOM     10  C   UNL     1      11.868   4.000  -0.607  0.00  0.00    +0.023 A 
ATOM     11  C   UNL     1      10.651   3.385  -0.829  0.00  0.00    +0.048 A 
ATOM     12  C   UNL     1       9.485   4.129  -0.788  0.00  0.00    +0.128 A 
ATOM     13  O   UNL     1       8.275   3.555  -1.002  0.00  0.00    -0.487 OA
ATOM     14  C   UNL     1       7.164   4.081  -0.270  0.00  0.00    +0.269 C 
ATOM     15 CL   UNL     1      13.475   6.112  -0.068  0.00  0.00    -0.084 Cl
ENDBRANCH   2   5
BRANCH   1  16
ATOM     16  N   UNL     1       3.478   6.286  -0.217  0.00  0.00    -0.245 N 
ATOM     17  H   UNL     1       3.460   7.253  -0.285  0.00  0.00    +0.172 HD
BRANCH  16  18
ATOM     18  C   UNL     1       2.325   5.597  -0.103  0.00  0.00    +0.151 C 
ATOM     19  S   UNL     1       0.829   6.429  -0.077  0.00  0.00    -0.017 S 
BRANCH  18  20
ATOM     20  N   UNL     1       2.350   4.253  -0.009  0.00  0.00    -0.296 N 
ATOM     21  H   UNL     1       3.198   3.787   0.058  0.00  0.00    +0.154 HD
BRANCH  20  26
ATOM     22  C   UNL     1      -1.062   3.155  -0.869  0.00  0.00    +0.026 A 
ATOM     23  C   UNL     1      -1.217   2.082   0.011  0.00  0.00    +0.017 A 
ATOM     24  C   UNL     1      -0.193   1.741   0.870  0.00  0.00    +0.003 A 
ATOM     25  C   UNL     1       0.989   2.459   0.865  0.00  0.00    +0.023 A 
ATOM     26  C   UNL     1       1.153   3.529  -0.007  0.00  0.00    +0.034 A 
ATOM     27  C   UNL     1       0.132   3.876  -0.879  0.00  0.00    +0.040 A 
BRANCH  22  29
ATOM     28  C   UNL     1      -2.992   3.802  -2.495  0.00  0.00    +0.009 C 
ATOM     29  C   UNL     1      -2.123   3.511  -1.763  0.00  0.00    -0.070 C 
ENDBRANCH  22  29
ENDBRANCH  20  26
ENDBRANCH  18  20
ENDBRANCH  16  18
ENDBRANCH   1  16
TORSDOF 6
