REMARK  Name = ZINC36573034
REMARK  19 active torsions:
REMARK  status: ('A' for Active; 'I' for Inactive)
REMARK    1  A    between atoms: C_1  and  C_2
REMARK    2  A    between atoms: C_2  and  C_3
REMARK    3  A    between atoms: C_3  and  N_4
REMARK    4  A    between atoms: N_4  and  C_5
REMARK    5  A    between atoms: C_5  and  C_7
REMARK    6  A    between atoms: C_5  and  C_14
REMARK    7  A    between atoms: C_11  and  O_13
REMARK    8  A    between atoms: N_16  and  C_17
REMARK    9  A    between atoms: C_17  and  C_18
REMARK   10  A    between atoms: C_17  and  C_19
REMARK   11  A    between atoms: C_17  and  C_20
REMARK   12  A    between atoms: C_20  and  C_21
REMARK   13  A    between atoms: C_21  and  C_22
REMARK   14  A    between atoms: C_21  and  C_23
REMARK   15  A    between atoms: C_21  and  C_24
REMARK   16  A    between atoms: C_25  and  C_27
REMARK   17  A    between atoms: C_27  and  C_28
REMARK   18  A    between atoms: C_27  and  C_34
REMARK   19  A    between atoms: C_27  and  O_40
REMARK                            x       y       z     vdW  Elec       q    Type
REMARK                         _______ _______ _______ _____ _____    ______ ____
ROOT
ATOM      1  N   UNL     1      -1.656  -2.391   0.442  0.00  0.00    -0.283 N 
ATOM      2  C   UNL     1      -0.900  -2.935  -0.532  0.00  0.00    +0.257 C 
ATOM      3  O   UNL     1       0.015  -3.677  -0.246  0.00  0.00    -0.272 OA
ENDROOT
BRANCH   1   4
ATOM      4  C   UNL     1      -2.668  -1.385   0.108  0.00  0.00    +0.109 C 
BRANCH   4   6
ATOM      5  C   UNL     1      -5.098  -1.030  -0.347  0.00  0.00    +0.005 C 
ATOM      6  C   UNL     1      -3.995  -2.080  -0.203  0.00  0.00    +0.016 C 
ENDBRANCH   4   6
ENDBRANCH   1   4
BRANCH   1   7
ATOM      7  C   UNL     1      -1.468  -2.807   1.834  0.00  0.00    +0.192 C 
BRANCH   7   8
ATOM      8  C   UNL     1      -0.284  -2.080   2.419  0.00  0.00    -0.015 A 
ATOM      9  C   UNL     1      -0.140  -0.719   2.217  0.00  0.00    +0.006 A 
ATOM     10  C   UNL     1       0.945  -0.050   2.753  0.00  0.00    +0.004 A 
ATOM     11  C   UNL     1       1.888  -0.739   3.490  0.00  0.00    +0.045 A 
ATOM     12  C   UNL     1       1.746  -2.103   3.694  0.00  0.00    +0.117 A 
ATOM     13  C   UNL     1       0.653  -2.772   3.160  0.00  0.00    +0.051 A 
BRANCH  12  14
ATOM     14  O   UNL     1       2.673  -2.784   4.419  0.00  0.00    -0.507 OA
ATOM     15  H   UNL     1       2.480  -2.823   5.365  0.00  0.00    +0.292 HD
ENDBRANCH  12  14
ENDBRANCH   7   8
BRANCH   7  16
ATOM     16  C   UNL     1      -2.704  -2.475   2.629  0.00  0.00    +0.238 C 
ATOM     17  O   UNL     1      -3.712  -2.115   2.060  0.00  0.00    -0.273 OA
ATOM     18  N   UNL     1      -2.688  -2.578   3.973  0.00  0.00    -0.308 N 
ATOM     19  H   UNL     1      -1.882  -2.866   4.428  0.00  0.00    +0.149 HD
BRANCH  18  20
ATOM     20  C   UNL     1      -3.890  -2.255   4.746  0.00  0.00    +0.030 C 
ATOM     21  C   UNL     1      -4.178  -0.756   4.640  0.00  0.00    +0.031 C 
ATOM     22  C   UNL     1      -5.079  -3.043   4.193  0.00  0.00    +0.031 C 
BRANCH  20  23
ATOM     23  C   UNL     1      -3.669  -2.629   6.213  0.00  0.00    +0.031 C 
BRANCH  23  24
ATOM     24  C   UNL     1      -2.926  -3.964   6.292  0.00  0.00    -0.036 C 
ATOM     25  C   UNL     1      -1.452  -3.749   5.941  0.00  0.00    +0.010 C 
ATOM     26  C   UNL     1      -3.035  -4.526   7.711  0.00  0.00    +0.010 C 
ATOM     27  C   UNL     1      -3.547  -4.953   5.304  0.00  0.00    +0.010 C 
ENDBRANCH  23  24
ENDBRANCH  20  23
ENDBRANCH  18  20
ENDBRANCH   7  16
ENDBRANCH   1   7
BRANCH   2  28
ATOM     28  C   UNL     1      -1.190  -2.619  -1.977  0.00  0.00    +0.192 C 
BRANCH  28  29
ATOM     29  C   UNL     1      -0.028  -3.056  -2.830  0.00  0.00    -0.003 A 
ATOM     30  C   UNL     1       0.480  -4.335  -2.704  0.00  0.00    +0.007 A 
ATOM     31  C   UNL     1       1.547  -4.735  -3.487  0.00  0.00    +0.000 A 
ATOM     32  C   UNL     1       2.106  -3.856  -4.396  0.00  0.00    +0.000 A 
ATOM     33  C   UNL     1       1.597  -2.577  -4.522  0.00  0.00    +0.000 A 
ATOM     34  C   UNL     1       0.528  -2.178  -3.743  0.00  0.00    +0.007 A 
ENDBRANCH  28  29
BRANCH  28  35
ATOM     35  C   UNL     1      -2.434  -3.352  -2.410  0.00  0.00    -0.003 A 
ATOM     36  C   UNL     1      -2.764  -4.560  -1.825  0.00  0.00    +0.007 A 
ATOM     37  C   UNL     1      -3.905  -5.232  -2.223  0.00  0.00    +0.000 A 
ATOM     38  C   UNL     1      -4.716  -4.695  -3.205  0.00  0.00    +0.000 A 
ATOM     39  C   UNL     1      -4.387  -3.487  -3.789  0.00  0.00    +0.000 A 
ATOM     40  C   UNL     1      -3.248  -2.813  -3.388  0.00  0.00    +0.007 A 
ENDBRANCH  28  35
BRANCH  28  41
ATOM     41  O   UNL     1      -1.390  -1.212  -2.127  0.00  0.00    -0.371 OA
ATOM     42  H   UNL     1      -0.650  -0.675  -1.813  0.00  0.00    +0.212 HD
ENDBRANCH  28  41
ENDBRANCH   2  28
TORSDOF 13
