REMARK  Name = ZINC16625434
REMARK  11 active torsions:
REMARK  status: ('A' for Active; 'I' for Inactive)
REMARK    1  A    between atoms: C_1  and  C_2
REMARK    2  A    between atoms: C_2  and  C_3
REMARK    3  A    between atoms: C_7  and  C_29
REMARK    4  A    between atoms: C_8  and  N_9
REMARK    5  A    between atoms: C_10  and  C_12
REMARK    6  A    between atoms: C_12  and  N_53
REMARK    7  A    between atoms: C_13  and  N_53
REMARK    8  A    between atoms: C_14  and  C_15
REMARK    9  A    between atoms: C_14  and  N_53
REMARK   10  A    between atoms: N_17  and  C_18
REMARK   11  A    between atoms: C_22  and  C_24
REMARK                            x       y       z     vdW  Elec       q    Type
REMARK                         _______ _______ _______ _____ _____    ______ ____
ROOT
ATOM      1  C   UNL     1       1.635   1.077  -0.902  0.00  0.00    -0.095 C 
ATOM      2  N   UNL     1       2.516   2.236  -1.154  0.00  0.00    +0.389 N 
ATOM      3  H   UNL     1       2.766   2.256  -2.149  0.00  0.00    -0.081 HD
ENDROOT
BRANCH   2   4
ATOM      4  C   UNL     1       3.751   2.116  -0.351  0.00  0.00    +0.019 C 
BRANCH   4   6
ATOM      5  N   UNL     1       5.744   0.651  -0.308  0.00  0.00    -0.287 N 
ATOM      6  C   UNL     1       4.557   0.954  -0.871  0.00  0.00    +0.201 C 
ATOM      7  O   UNL     1       4.138   0.290  -1.796  0.00  0.00    -0.278 OA
ATOM      8  H   UNL     1       6.056   1.150   0.463  0.00  0.00    +0.155 HD
BRANCH   5  14
ATOM      9  C   UNL     1       7.756  -0.101  -1.411  0.00  0.00    -0.026 A 
ATOM     10  C   UNL     1       8.525  -1.124  -1.931  0.00  0.00    +0.005 A 
ATOM     11  C   UNL     1       8.069  -2.428  -1.878  0.00  0.00    +0.001 A 
ATOM     12  C   UNL     1       6.843  -2.713  -1.306  0.00  0.00    +0.005 A 
ATOM     13  C   UNL     1       6.073  -1.695  -0.778  0.00  0.00    -0.029 A 
ATOM     14  C   UNL     1       6.525  -0.383  -0.835  0.00  0.00    +0.039 A 
ATOM     15  C   UNL     1       4.740  -2.007  -0.148  0.00  0.00    +0.045 C 
BRANCH   9  17
ATOM     16  C   UNL     1       8.953   1.671  -0.155  0.00  0.00    +0.009 C 
ATOM     17  C   UNL     1       8.254   1.321  -1.469  0.00  0.00    +0.033 C 
ENDBRANCH   9  17
ENDBRANCH   5  14
ENDBRANCH   4   6
ENDBRANCH   2   4
BRANCH   2  18
ATOM     18  C   UNL     1       1.811   3.490  -0.811  0.00  0.00    +0.019 C 
BRANCH  18  19
ATOM     19  C   UNL     1       0.684   3.696  -1.790  0.00  0.00    +0.201 C 
ATOM     20  O   UNL     1       0.482   2.880  -2.663  0.00  0.00    -0.278 OA
ATOM     21  N   UNL     1      -0.096   4.792  -1.698  0.00  0.00    -0.287 N 
ATOM     22  H   UNL     1       0.017   5.407  -0.956  0.00  0.00    +0.155 HD
BRANCH  21  23
ATOM     23  C   UNL     1      -1.069   5.042  -2.672  0.00  0.00    +0.034 A 
ATOM     24  C   UNL     1      -0.844   4.671  -3.992  0.00  0.00    +0.025 A 
ATOM     25  C   UNL     1      -1.807   4.915  -4.950  0.00  0.00    +0.022 A 
ATOM     26  C   UNL     1      -2.992   5.538  -4.600  0.00  0.00    +0.053 A 
ATOM     27  C   UNL     1      -3.217   5.913  -3.287  0.00  0.00    +0.075 A 
ATOM     28  C   UNL     1      -2.259   5.667  -2.323  0.00  0.00    +0.037 A 
ATOM     29 CL   UNL     1      -4.198   5.849  -5.809  0.00  0.00    -0.083 Cl
BRANCH  27  30
ATOM     30  C   UNL     1      -4.508   6.591  -2.909  0.00  0.00    +0.419 C 
ATOM     31  F   UNL     1      -4.504   6.871  -1.538  0.00  0.00    -0.166 F 
ATOM     32  F   UNL     1      -4.638   7.784  -3.628  0.00  0.00    -0.166 F 
ATOM     33  F   UNL     1      -5.583   5.747  -3.208  0.00  0.00    -0.166 F 
ENDBRANCH  27  30
ENDBRANCH  21  23
ENDBRANCH  18  19
ENDBRANCH   2  18
TORSDOF 8
