REMARK  Name = ZINC35771156
REMARK  10 active torsions:
REMARK  status: ('A' for Active; 'I' for Inactive)
REMARK    1  A    between atoms: C_3  and  C_6
REMARK    2  A    between atoms: C_6  and  N_7
REMARK    3  A    between atoms: N_7  and  C_8
REMARK    4  A    between atoms: C_8  and  C_9
REMARK    5  A    between atoms: C_16  and  C_18
REMARK    6  A    between atoms: C_18  and  N_19
REMARK    7  A    between atoms: N_19  and  C_20
REMARK    8  A    between atoms: C_20  and  C_21
REMARK    9  A    between atoms: C_21  and  N_22
REMARK   10  A    between atoms: C_27  and  C_29
REMARK                            x       y       z     vdW  Elec       q    Type
REMARK                         _______ _______ _______ _____ _____    ______ ____
ROOT
ATOM      1  N   UNL     1       3.387   5.406   2.174  0.00  0.00    -0.294 N 
ATOM      2  C   UNL     1       2.476   5.634   3.141  0.00  0.00    +0.222 C 
ATOM      3  O   UNL     1       1.593   4.829   3.345  0.00  0.00    -0.275 OA
ENDROOT
BRANCH   2   4
ATOM      4  C   UNL     1       2.556   6.891   3.970  0.00  0.00    +0.048 C 
ATOM      5  C   UNL     1       3.809   6.846   4.846  0.00  0.00    +0.019 C 
ATOM      6  C   UNL     1       3.890   8.121   5.686  0.00  0.00    -0.009 C 
ATOM      7  C   UNL     1       2.649   8.225   6.576  0.00  0.00    +0.007 C 
ATOM      8  C   UNL     1       1.396   8.270   5.700  0.00  0.00    -0.009 C 
ATOM      9  C   UNL     1       1.315   6.995   4.859  0.00  0.00    +0.019 C 
ATOM     10  C   UNL     1       1.463   9.487   4.775  0.00  0.00    +0.007 C 
ATOM     11  C   UNL     1       2.704   9.383   3.885  0.00  0.00    -0.009 C 
ATOM     12  C   UNL     1       3.957   9.338   4.762  0.00  0.00    +0.007 C 
ATOM     13  C   UNL     1       2.623   8.108   3.045  0.00  0.00    +0.019 C 
ENDBRANCH   2   4
BRANCH   1  14
ATOM     14  C   UNL     1       3.307   4.186   1.367  0.00  0.00    +0.203 C 
BRANCH  14  16
ATOM     15  N   UNL     1       4.178   1.873   1.459  0.00  0.00    -0.291 N 
ATOM     16  C   UNL     1       4.106   3.093   2.027  0.00  0.00    +0.234 C 
ATOM     17  O   UNL     1       4.686   3.311   3.070  0.00  0.00    -0.274 OA
BRANCH  15  18
ATOM     18  C   UNL     1       3.478   1.609   0.199  0.00  0.00    +0.150 C 
BRANCH  18  21
ATOM     19  C   UNL     1      -0.235   1.151   0.914  0.00  0.00    +0.008 A 
ATOM     20  C   UNL     1       0.942   1.825   0.648  0.00  0.00    +0.013 A 
ATOM     21  C   UNL     1       2.085   1.114   0.492  0.00  0.00    +0.007 A 
ATOM     22  S   UNL     1       1.513  -0.561   0.724  0.00  0.00    -0.100 S 
ATOM     23  C   UNL     1      -0.211  -0.201   1.012  0.00  0.00    +0.045 A 
ENDBRANCH  18  21
ENDBRANCH  15  18
BRANCH  15  24
ATOM     24  C   UNL     1       4.955   0.810   2.102  0.00  0.00    +0.143 C 
BRANCH  24  25
ATOM     25  C   UNL     1       6.374   0.851   1.597  0.00  0.00    -0.030 A 
ATOM     26  C   UNL     1       6.730   0.123   0.476  0.00  0.00    +0.008 A 
ATOM     27  C   UNL     1       8.031   0.160   0.013  0.00  0.00    +0.038 A 
ATOM     28  C   UNL     1       8.979   0.925   0.670  0.00  0.00    +0.123 A 
ATOM     29  C   UNL     1       8.622   1.653   1.793  0.00  0.00    +0.038 A 
ATOM     30  C   UNL     1       7.319   1.619   2.252  0.00  0.00    +0.008 A 
ATOM     31  F   UNL     1      10.251   0.962   0.218  0.00  0.00    -0.205 F 
ENDBRANCH  24  25
ENDBRANCH  15  24
ENDBRANCH  14  16
ENDBRANCH   1  14
BRANCH   1  32
ATOM     32  C   UNL     1       4.456   6.377   1.931  0.00  0.00    +0.090 C 
BRANCH  32  33
ATOM     33  C   UNL     1       4.100   7.234   0.714  0.00  0.00    -0.060 C 
BRANCH  33  34
ATOM     34  N   UNL     1       5.207   8.154   0.422  0.00  0.00    +0.381 N 
ATOM     35  C   UNL     1       6.387   7.397  -0.068  0.00  0.00    -0.079 C 
ATOM     36  C   UNL     1       7.201   8.468  -0.837  0.00  0.00    -0.020 C 
ATOM     37  C   UNL     1       6.102   9.321  -1.510  0.00  0.00    -0.020 C 
ATOM     38  C   UNL     1       4.832   9.071  -0.676  0.00  0.00    -0.079 C 
ATOM     39  H   UNL     1       5.449   8.681   1.248  0.00  0.00    -0.082 HD
ENDBRANCH  33  34
ENDBRANCH  32  33
ENDBRANCH   1  32
TORSDOF 10
