REMARK  Name = ZINC19618407
REMARK  15 active torsions:
REMARK  status: ('A' for Active; 'I' for Inactive)
REMARK    1  A    between atoms: C_1  and  C_2
REMARK    2  A    between atoms: C_2  and  C_3
REMARK    3  A    between atoms: C_2  and  C_4
REMARK    4  A    between atoms: C_2  and  C_5
REMARK    5  A    between atoms: C_7  and  C_16
REMARK    6  A    between atoms: C_9  and  C_12
REMARK    7  A    between atoms: C_10  and  O_11
REMARK    8  A    between atoms: C_12  and  C_13
REMARK    9  A    between atoms: C_12  and  C_14
REMARK   10  A    between atoms: C_12  and  C_15
REMARK   11  A    between atoms: C_16  and  C_18
REMARK   12  A    between atoms: C_16  and  N_25
REMARK   13  A    between atoms: N_28  and  C_31
REMARK   14  A    between atoms: C_31  and  C_32
REMARK   15  A    between atoms: C_32  and  O_33
REMARK                            x       y       z     vdW  Elec       q    Type
REMARK                         _______ _______ _______ _____ _____    ______ ____
ROOT
ATOM      1  C   UNL     1      -0.899   3.456  -2.833  0.00  0.00    -0.007 C 
ENDROOT
BRANCH   1   2
ATOM      2  C   UNL     1      -2.246   2.863  -3.159  0.00  0.00    -0.057 A 
ATOM      3  C   UNL     1      -3.218   2.778  -2.180  0.00  0.00    +0.005 A 
ATOM      4  C   UNL     1      -4.455   2.239  -2.479  0.00  0.00    +0.038 A 
ATOM      5  C   UNL     1      -4.717   1.775  -3.757  0.00  0.00    +0.123 A 
ATOM      6  C   UNL     1      -3.740   1.857  -4.736  0.00  0.00    +0.038 A 
ATOM      7  C   UNL     1      -2.506   2.401  -4.435  0.00  0.00    +0.005 A 
ATOM      8  F   UNL     1      -5.924   1.244  -4.050  0.00  0.00    -0.205 F 
ENDBRANCH   1   2
BRANCH   1   9
ATOM      9  N   UNL     1      -0.413   2.898  -1.563  0.00  0.00    +0.389 N 
ATOM     10  C   UNL     1       0.914   3.432  -1.228  0.00  0.00    -0.062 C 
ATOM     11  C   UNL     1       1.349   2.890   0.136  0.00  0.00    +0.066 C 
ATOM     12  N   UNL     1       1.371   1.421   0.093  0.00  0.00    -0.304 NA
ATOM     13  C   UNL     1       0.043   0.887  -0.244  0.00  0.00    +0.066 C 
ATOM     14  C   UNL     1      -0.392   1.430  -1.607  0.00  0.00    -0.062 C 
ATOM     15  H   UNL     1      -1.113   3.204  -0.771  0.00  0.00    -0.080 HD
BRANCH  12  16
ATOM     16  C   UNL     1       1.856   0.864   1.362  0.00  0.00    +0.112 C 
BRANCH  16  17
ATOM     17  C   UNL     1       1.763  -0.662   1.318  0.00  0.00    +0.171 C 
BRANCH  17  18
ATOM     18  O   UNL     1       2.615  -1.162   0.286  0.00  0.00    -0.394 OA
ATOM     19  H   UNL     1       2.681  -2.245   0.102  0.00  0.00    +0.209 HD
ENDBRANCH  17  18
ENDBRANCH  16  17
ENDBRANCH  12  16
ENDBRANCH   1   9
BRANCH   1  22
ATOM     20  C   UNL     1      -0.688   7.143  -3.616  0.00  0.00    -0.000 A 
ATOM     21  C   UNL     1      -0.573   5.770  -3.727  0.00  0.00    +0.010 A 
ATOM     22  C   UNL     1      -1.026   4.952  -2.708  0.00  0.00    -0.056 A 
ATOM     23  C   UNL     1      -1.599   5.505  -1.578  0.00  0.00    +0.010 A 
ATOM     24  C   UNL     1      -1.711   6.877  -1.459  0.00  0.00    -0.000 A 
ATOM     25  C   UNL     1      -1.258   7.700  -2.480  0.00  0.00    +0.124 A 
BRANCH  20  27
ATOM     26  C   UNL     1       0.382   7.173  -5.852  0.00  0.00    +0.015 C 
ATOM     27  C   UNL     1      -0.196   8.033  -4.727  0.00  0.00    -0.009 C 
ATOM     28  C   UNL     1      -1.360   8.866  -5.268  0.00  0.00    +0.015 C 
ATOM     29  C   UNL     1       0.891   8.966  -4.189  0.00  0.00    +0.015 C 
ENDBRANCH  20  27
BRANCH  24  30
ATOM     30  C   UNL     1      -2.330   7.479  -0.224  0.00  0.00    -0.009 C 
ATOM     31  C   UNL     1      -2.741   6.361   0.737  0.00  0.00    +0.015 C 
ATOM     32  C   UNL     1      -1.313   8.393   0.463  0.00  0.00    +0.015 C 
ATOM     33  C   UNL     1      -3.564   8.293  -0.617  0.00  0.00    +0.015 C 
ENDBRANCH  24  30
BRANCH  25  34
ATOM     34  O   UNL     1      -1.371   9.049  -2.368  0.00  0.00    -0.506 OA
ATOM     35  H   UNL     1      -1.823   9.490  -1.467  0.00  0.00    +0.292 HD
ENDBRANCH  25  34
ENDBRANCH   1  22
TORSDOF 9
