REMARK  Name = ZINC13058350
REMARK  15 active torsions:
REMARK  status: ('A' for Active; 'I' for Inactive)
REMARK    1  A    between atoms: C_1  and  C_2
REMARK    2  A    between atoms: C_2  and  C_3
REMARK    3  A    between atoms: C_4  and  C_32
REMARK    4  A    between atoms: C_5  and  C_27
REMARK    5  A    between atoms: C_6  and  N_8
REMARK    6  A    between atoms: C_9  and  C_11
REMARK    7  A    between atoms: C_11  and  N_12
REMARK    8  A    between atoms: N_12  and  C_13
REMARK    9  A    between atoms: C_18  and  C_19
REMARK   10  A    between atoms: C_19  and  N_70
REMARK   11  A    between atoms: C_20  and  N_70
REMARK   12  A    between atoms: C_21  and  N_70
REMARK   13  A    between atoms: C_27  and  O_29
REMARK   14  A    between atoms: O_29  and  C_30
REMARK   15  A    between atoms: C_30  and  C_31
REMARK                            x       y       z     vdW  Elec       q    Type
REMARK                         _______ _______ _______ _____ _____    ______ ____
ROOT
ATOM      1  C   UNL     1      -1.316  -2.680  -4.935  0.00  0.00    +0.198 C 
ENDROOT
BRANCH   1   3
ATOM      2  N   UNL     1      -1.280  -2.340  -2.485  0.00  0.00    -0.278 N 
ATOM      3  C   UNL     1      -1.323  -3.201  -3.521  0.00  0.00    +0.235 C 
ATOM      4  O   UNL     1      -1.368  -4.395  -3.315  0.00  0.00    -0.274 OA
ATOM      5  H   UNL     1      -1.244  -1.385  -2.650  0.00  0.00    +0.155 HD
BRANCH   2   9
ATOM      6  C   UNL     1      -1.319  -4.199   1.116  0.00  0.00    -0.005 A 
ATOM      7  C   UNL     1      -1.260  -2.860   1.228  0.00  0.00    -0.024 A 
ATOM      8  C   UNL     1      -1.248  -2.096   0.003  0.00  0.00    +0.091 A 
ATOM      9  C   UNL     1      -1.287  -2.819  -1.185  0.00  0.00    +0.086 A 
ATOM     10  S   UNL     1      -1.346  -4.463  -0.645  0.00  0.00    -0.077 S 
ATOM     11  C   UNL     1      -1.215  -2.185   2.575  0.00  0.00    +0.045 C 
BRANCH   6  13
ATOM     12  C   UNL     1      -2.800  -5.521   2.603  0.00  0.00    +0.009 C 
ATOM     13  C   UNL     1      -1.348  -5.228   2.216  0.00  0.00    +0.039 C 
ENDBRANCH   6  13
BRANCH   8  14
ATOM     14  C   UNL     1      -1.191  -0.633   0.010  0.00  0.00    +0.342 C 
ATOM     15  O   UNL     1      -2.220   0.016   0.023  0.00  0.00    -0.245 OA
BRANCH  14  16
ATOM     16  O   UNL     1       0.002  -0.004   0.002  0.00  0.00    -0.461 OA
BRANCH  16  17
ATOM     17  C   UNL     1      -0.018   1.448   0.010  0.00  0.00    +0.229 C 
ATOM     18  C   UNL     1       1.418   1.977  -0.001  0.00  0.00    +0.048 C 
ENDBRANCH  16  17
ENDBRANCH  14  16
ENDBRANCH   8  14
ENDBRANCH   2   9
ENDBRANCH   1   3
BRANCH   1  19
ATOM     19  N   UNL     1      -1.369  -3.806  -5.871  0.00  0.00    -0.335 N 
ATOM     20  H   UNL     1      -1.401  -4.715  -5.534  0.00  0.00    +0.147 HD
BRANCH  19  21
ATOM     21  C   UNL     1      -1.372  -3.570  -7.248  0.00  0.00    +0.029 A 
ATOM     22  C   UNL     1      -1.331  -2.269  -7.731  0.00  0.00    +0.023 A 
ATOM     23  C   UNL     1      -1.329  -2.039  -9.093  0.00  0.00    +0.002 A 
ATOM     24  C   UNL     1      -1.379  -3.104  -9.975  0.00  0.00    +0.000 A 
ATOM     25  C   UNL     1      -1.425  -4.400  -9.497  0.00  0.00    +0.003 A 
ATOM     26  C   UNL     1      -1.422  -4.637  -8.136  0.00  0.00    -0.043 A 
BRANCH  26  27
ATOM     27  C   UNL     1      -1.471  -6.050  -7.616  0.00  0.00    -0.041 C 
BRANCH  27  29
ATOM     28  C   UNL     1      -3.747  -6.396  -8.367  0.00  0.00    -0.095 C 
ATOM     29  N   UNL     1      -2.854  -6.354  -7.190  0.00  0.00    +0.382 N 
ATOM     30  H   UNL     1      -3.176  -5.615  -6.554  0.00  0.00    -0.081 HD
BRANCH  29  31
ATOM     31  C   UNL     1      -2.891  -7.649  -6.480  0.00  0.00    -0.069 C 
ATOM     32  C   UNL     1      -2.489  -8.788  -7.420  0.00  0.00    -0.015 C 
ATOM     33  C   UNL     1      -2.537 -10.116  -6.662  0.00  0.00    -0.002 C 
ATOM     34  C   UNL     1      -3.957 -10.358  -6.147  0.00  0.00    -0.000 C 
ATOM     35  C   UNL     1      -4.359  -9.220  -5.207  0.00  0.00    -0.002 C 
ATOM     36  C   UNL     1      -4.311  -7.891  -5.965  0.00  0.00    -0.015 C 
ENDBRANCH  29  31
ENDBRANCH  27  29
ENDBRANCH  26  27
ENDBRANCH  19  21
ENDBRANCH   1  19
TORSDOF 11
