REMARK  Name = ZINC44447895
REMARK  5 active torsions:
REMARK  status: ('A' for Active; 'I' for Inactive)
REMARK    1  A    between atoms: C_1  and  C_2
REMARK    2  A    between atoms: C_5  and  C_9
REMARK    3  A    between atoms: C_7  and  C_8
REMARK    4  A    between atoms: C_17  and  C_19
REMARK    5  A    between atoms: C_22  and  C_24
REMARK                            x       y       z     vdW  Elec       q    Type
REMARK                         _______ _______ _______ _____ _____    ______ ____
ROOT
ATOM      1  C   UNL     1       0.061  -4.251  -0.021  0.00  0.00    +0.247 C 
ATOM      2  O   UNL     1       0.182  -4.863   1.022  0.00  0.00    -0.270 OA
ATOM      3  N   UNL     1      -0.038  -4.920  -1.187  0.00  0.00    -0.295 N 
ATOM      4  C   UNL     1      -0.050  -4.196  -2.466  0.00  0.00    +0.127 C 
ATOM      5  C   UNL     1       1.070  -4.752  -3.354  0.00  0.00    +0.127 C 
ATOM      6  N   UNL     1       0.973  -6.219  -3.370  0.00  0.00    -0.298 N 
ATOM      7  C   UNL     1       0.985  -6.943  -2.091  0.00  0.00    +0.127 C 
ATOM      8  C   UNL     1      -0.130  -6.387  -1.203  0.00  0.00    +0.127 C 
ATOM      9  C   UNL     1       0.875  -6.888  -4.536  0.00  0.00    +0.219 C 
ATOM     10  O   UNL     1       0.866  -6.279  -5.585  0.00  0.00    -0.275 OA
ENDROOT
BRANCH   1  15
ATOM     11  C   UNL     1      -0.093   1.501   0.018  0.00  0.00    +0.044 C 
ATOM     12  C   UNL     1      -0.053  -0.005   0.008  0.00  0.00    -0.047 A 
ATOM     13  C   UNL     1      -0.921  -0.712  -0.806  0.00  0.00    +0.004 A 
ATOM     14  C   UNL     1      -0.889  -2.091  -0.820  0.00  0.00    +0.013 A 
ATOM     15  C   UNL     1       0.021  -2.773  -0.011  0.00  0.00    +0.037 A 
ATOM     16  C   UNL     1       0.894  -2.055   0.807  0.00  0.00    +0.016 A 
ATOM     17  C   UNL     1       0.855  -0.675   0.808  0.00  0.00    -0.047 A 
ATOM     18  C   UNL     1       1.801   0.103   1.686  0.00  0.00    +0.044 C 
ENDBRANCH   1  15
BRANCH   9  19
ATOM     19  C   UNL     1       0.776  -8.391  -4.536  0.00  0.00    +0.083 C 
ATOM     20  C   UNL     1       1.967  -9.178  -5.086  0.00  0.00    +0.022 C 
ATOM     21  C   UNL     1       0.668  -9.092  -5.891  0.00  0.00    +0.032 C 
BRANCH  21  22
ATOM     22  C   UNL     1      -0.186 -10.332  -5.968  0.00  0.00    -0.040 A 
ATOM     23  C   UNL     1       0.116 -11.427  -5.181  0.00  0.00    +0.008 A 
ATOM     24  C   UNL     1      -0.664 -12.566  -5.247  0.00  0.00    +0.050 A 
ATOM     25  C   UNL     1      -1.751 -12.613  -6.105  0.00  0.00    +0.166 A 
ATOM     26  C   UNL     1      -2.055 -11.509  -6.898  0.00  0.00    +0.166 A 
ATOM     27  C   UNL     1      -1.272 -10.369  -6.822  0.00  0.00    +0.053 A 
ATOM     28  O   UNL     1      -3.159 -11.801  -7.647  0.00  0.00    -0.453 OA
ATOM     29  C   UNL     1      -3.283 -13.235  -7.605  0.00  0.00    +0.466 C 
ATOM     30  O   UNL     1      -2.664 -13.596  -6.356  0.00  0.00    -0.453 OA
ENDBRANCH  21  22
ENDBRANCH   9  19
TORSDOF 3
