REMARK  Name = ZINC59881001
REMARK  9 active torsions:
REMARK  status: ('A' for Active; 'I' for Inactive)
REMARK    1  A    between atoms: C_1  and  C_2
REMARK    2  A    between atoms: C_2  and  C_4
REMARK    3  A    between atoms: C_2  and  S_11
REMARK    4  A    between atoms: N_6  and  N_7
REMARK    5  A    between atoms: C_8  and  C_10
REMARK    6  A    between atoms: S_11  and  C_12
REMARK    7  A    between atoms: N_17  and  N_18
REMARK    8  A    between atoms: C_19  and  C_20
REMARK    9  A    between atoms: C_19  and  C_21
REMARK                            x       y       z     vdW  Elec       q    Type
REMARK                         _______ _______ _______ _____ _____    ______ ____
ROOT
ATOM      1  C   UNL     1      -0.189  -0.057  -2.809  0.00  0.00    +0.211 A 
ATOM      2  N   UNL     1       0.035  -0.270  -4.110  0.00  0.00    -0.186 NA
ATOM      3  C   UNL     1      -0.939   0.260  -4.820  0.00  0.00    +0.232 A 
ATOM      4  N   UNL     1      -1.815   0.831  -3.965  0.00  0.00    -0.245 N 
ATOM      5  N   UNL     1      -1.312   0.608  -2.673  0.00  0.00    -0.144 NA
ATOM      6  N   UNL     1      -1.046   0.237  -6.198  0.00  0.00    -0.205 N 
ATOM      7  H   UNL     1      -1.804   0.658  -6.633  0.00  0.00    +0.177 HD
ATOM      8  H   UNL     1      -2.632   1.299  -4.198  0.00  0.00    +0.192 HD
ENDROOT
BRANCH   6   9
ATOM      9  N   UNL     1      -0.059  -0.394  -6.967  0.00  0.00    -0.184 NA
ATOM     10  C   UNL     1      -0.160  -0.416  -8.261  0.00  0.00    +0.063 C 
ATOM     11  C   UNL     1      -1.338   0.238  -8.937  0.00  0.00    +0.068 C 
BRANCH  10  12
ATOM     12  C   UNL     1       0.878  -1.081  -9.070  0.00  0.00    -0.002 A 
ATOM     13  C   UNL     1       0.776  -1.101 -10.463  0.00  0.00    +0.011 A 
ATOM     14  C   UNL     1       1.751  -1.724 -11.214  0.00  0.00    +0.016 A 
ATOM     15  C   UNL     1       2.830  -2.328 -10.590  0.00  0.00    +0.018 A 
ATOM     16  C   UNL     1       2.937  -2.312  -9.209  0.00  0.00    +0.016 A 
ATOM     17  C   UNL     1       1.972  -1.688  -8.447  0.00  0.00    +0.011 A 
ATOM     18 BR   UNL     1       4.161  -3.180 -11.627  0.00  0.00    -0.050 Br
ENDBRANCH  10  12
ENDBRANCH   6   9
BRANCH   1  19
ATOM     19  S   UNL     1       0.851  -0.589  -1.490  0.00  0.00    -0.072 S 
BRANCH  19  21
ATOM     20  C   UNL     1      -0.019   1.526   0.010  0.00  0.00    +0.029 C 
ATOM     21  C   UNL     1       0.002  -0.004   0.002  0.00  0.00    +0.138 C 
BRANCH  21  22
ATOM     22  C   UNL     1       0.731  -0.503   1.223  0.00  0.00    +0.242 C 
ATOM     23  O   UNL     1       1.911  -0.775   1.156  0.00  0.00    -0.273 OA
ATOM     24  N   UNL     1       0.071  -0.647   2.389  0.00  0.00    -0.233 N 
ATOM     25  H   UNL     1      -0.872  -0.430   2.443  0.00  0.00    +0.173 HD
BRANCH  24  26
ATOM     26  N   UNL     1       0.749  -1.111   3.525  0.00  0.00    -0.235 N 
ATOM     27  C   UNL     1       0.090  -1.256   4.691  0.00  0.00    +0.226 C 
ATOM     28  O   UNL     1      -1.090  -0.984   4.758  0.00  0.00    -0.275 OA
ATOM     29  C   UNL     1       0.819  -1.755   5.912  0.00  0.00    +0.110 C 
ATOM     30  H   UNL     1       1.693  -1.329   3.471  0.00  0.00    +0.173 HD
ENDBRANCH  24  26
ENDBRANCH  21  22
ENDBRANCH  19  21
ENDBRANCH   1  19
TORSDOF 6
