REMARK  Name = ZINC42118458
REMARK  7 active torsions:
REMARK  status: ('A' for Active; 'I' for Inactive)
REMARK    1  A    between atoms: C_1  and  C_2
REMARK    2  A    between atoms: C_2  and  C_3
REMARK    3  A    between atoms: C_3  and  N_4
REMARK    4  A    between atoms: N_4  and  C_5
REMARK    5  A    between atoms: C_11  and  C_20
REMARK    6  A    between atoms: N_13  and  C_16
REMARK    7  A    between atoms: C_16  and  C_17
REMARK                            x       y       z     vdW  Elec       q    Type
REMARK                         _______ _______ _______ _____ _____    ______ ____
ROOT
ATOM      1  C   UNL     1       1.474  -2.468  -2.956  0.00  0.00    +0.173 C 
ATOM      2  C   UNL     1       0.986  -3.896  -3.032  0.00  0.00    +0.001 A 
ATOM      3  C   UNL     1      -0.269  -4.452  -3.144  0.00  0.00    +0.022 A 
ATOM      4  C   UNL     1      -0.412  -5.829  -3.192  0.00  0.00    +0.019 A 
ATOM      5  C   UNL     1       0.708  -6.640  -3.126  0.00  0.00    +0.020 A 
ATOM      6  C   UNL     1       1.965  -6.084  -3.014  0.00  0.00    -0.028 A 
ATOM      7  C   UNL     1       2.117  -4.700  -2.966  0.00  0.00    +0.045 A 
ATOM      8  N   UNL     1       3.263  -3.911  -2.856  0.00  0.00    -0.260 N 
ATOM      9  C   UNL     1       2.978  -2.595  -2.845  0.00  0.00    +0.242 C 
ATOM     10  O   UNL     1       3.774  -1.683  -2.760  0.00  0.00    -0.273 OA
ATOM     11  C   UNL     1       3.178  -6.976  -2.942  0.00  0.00    +0.046 C 
ATOM     12 BR   UNL     1      -2.132  -6.599  -3.345  0.00  0.00    -0.050 Br
ENDROOT
BRANCH   1  13
ATOM     13  N   UNL     1       0.924  -1.799  -1.770  0.00  0.00    -0.302 NA
ATOM     14  H   UNL     1       1.434  -2.059  -0.939  0.00  0.00    +0.123 HD
BRANCH  13  15
ATOM     15  C   UNL     1       0.913  -0.340  -1.945  0.00  0.00    +0.081 C 
BRANCH  15  17
ATOM     16  C   UNL     1       0.323   1.839  -0.875  0.00  0.00    +0.005 C 
ATOM     17  C   UNL     1       0.335   0.320  -0.692  0.00  0.00    +0.012 C 
ENDBRANCH  15  17
ENDBRANCH  13  15
ENDBRANCH   1  13
BRANCH   8  18
ATOM     18  C   UNL     1       4.621  -4.452  -2.764  0.00  0.00    +0.209 C 
BRANCH  18  19
ATOM     19  C   UNL     1       4.947  -4.751  -1.323  0.00  0.00    +0.228 C 
ATOM     20  O   UNL     1       4.125  -4.533  -0.458  0.00  0.00    -0.274 OA
ATOM     21  N   UNL     1       6.151  -5.260  -0.996  0.00  0.00    -0.328 N 
ATOM     22  H   UNL     1       6.808  -5.435  -1.688  0.00  0.00    +0.145 HD
ATOM     23  H   UNL     1       6.361  -5.453  -0.069  0.00  0.00    +0.145 HD
ENDBRANCH  18  19
ENDBRANCH   8  18
TORSDOF 5
