REMARK  Name = ZINC59112280
REMARK  12 active torsions:
REMARK  status: ('A' for Active; 'I' for Inactive)
REMARK    1  A    between atoms: C_1  and  C_2
REMARK    2  A    between atoms: C_2  and  C_23
REMARK    3  A    between atoms: C_4  and  N_11
REMARK    4  A    between atoms: C_7  and  C_9
REMARK    5  A    between atoms: C_7  and  C_10
REMARK    6  A    between atoms: N_11  and  C_12
REMARK    7  A    between atoms: C_12  and  N_14
REMARK    8  A    between atoms: N_14  and  C_15
REMARK    9  A    between atoms: C_23  and  N_24
REMARK   10  A    between atoms: N_24  and  C_25
REMARK   11  A    between atoms: C_25  and  N_27
REMARK   12  A    between atoms: N_27  and  C_28
REMARK                            x       y       z     vdW  Elec       q    Type
REMARK                         _______ _______ _______ _____ _____    ______ ____
ROOT
ATOM      1  C   UNL     1      -0.019   1.527   0.010  0.00  0.00    +0.013 C 
ATOM      2  C   UNL     1       0.002  -0.004   0.002  0.00  0.00    -0.014 C 
ATOM      3  C   UNL     1      -1.418  -0.544  -0.123  0.00  0.00    +0.030 C 
ATOM      4  C   UNL     1      -2.191  -0.343   1.179  0.00  0.00    +0.073 C 
ATOM      5  C   UNL     1      -1.490  -1.119   2.293  0.00  0.00    +0.028 C 
ATOM      6  C   UNL     1      -0.073  -0.599   2.505  0.00  0.00    -0.033 C 
ATOM      7  C   UNL     1       0.729  -0.548   1.218  0.00  0.00    +0.014 C 
ATOM      8  C   UNL     1      -0.114   0.772   3.185  0.00  0.00    +0.011 C 
ATOM      9  C   UNL     1       0.641  -1.570   3.472  0.00  0.00    +0.011 C 
ENDROOT
BRANCH   4  10
ATOM     10  N   UNL     1      -3.554  -0.865   1.014  0.00  0.00    -0.324 N 
ATOM     11  H   UNL     1      -3.733  -1.556   0.357  0.00  0.00    +0.148 HD
BRANCH  10  12
ATOM     12  C   UNL     1      -4.556  -0.385   1.776  0.00  0.00    +0.131 C 
ATOM     13  S   UNL     1      -4.241   0.834   2.937  0.00  0.00    -0.019 S 
BRANCH  12  14
ATOM     14  N   UNL     1      -5.807  -0.864   1.625  0.00  0.00    -0.324 N 
ATOM     15  H   UNL     1      -5.986  -1.554   0.968  0.00  0.00    +0.148 HD
BRANCH  14  16
ATOM     16  C   UNL     1      -6.896  -0.341   2.454  0.00  0.00    +0.072 C 
ATOM     17  C   UNL     1      -6.928  -1.092   3.787  0.00  0.00    +0.022 C 
ATOM     18  C   UNL     1      -7.776  -0.310   4.792  0.00  0.00    +0.002 C 
ATOM     19  C   UNL     1      -7.423   1.177   4.710  0.00  0.00    +0.000 C 
ATOM     20  C   UNL     1      -8.619   1.956   4.161  0.00  0.00    +0.000 C 
ATOM     21  C   UNL     1      -8.723   1.732   2.651  0.00  0.00    +0.000 C 
ATOM     22  C   UNL     1      -9.299   0.341   2.379  0.00  0.00    +0.002 C 
ATOM     23  C   UNL     1      -8.229  -0.537   1.727  0.00  0.00    +0.022 C 
ENDBRANCH  14  16
ENDBRANCH  12  14
ENDBRANCH  10  12
ENDBRANCH   4  10
BRANCH   2  24
ATOM     24  C   UNL     1       0.782  -0.446  -1.256  0.00  0.00    +0.110 C 
BRANCH  24  25
ATOM     25  N   UNL     1       0.110   0.066  -2.453  0.00  0.00    -0.326 N 
ATOM     26  H   UNL     1      -0.699   0.594  -2.366  0.00  0.00    +0.148 HD
BRANCH  25  27
ATOM     27  C   UNL     1       0.615  -0.197  -3.674  0.00  0.00    +0.130 C 
ATOM     28  S   UNL     1       2.043  -1.129  -3.827  0.00  0.00    -0.019 S 
BRANCH  27  29
ATOM     29  N   UNL     1      -0.004   0.274  -4.775  0.00  0.00    -0.324 N 
ATOM     30  H   UNL     1      -0.813   0.802  -4.688  0.00  0.00    +0.148 HD
BRANCH  29  31
ATOM     31  C   UNL     1       0.546  -0.012  -6.103  0.00  0.00    +0.072 C 
ATOM     32  C   UNL     1       1.621   1.023  -6.443  0.00  0.00    +0.022 C 
ATOM     33  C   UNL     1       2.462   0.517  -7.617  0.00  0.00    +0.002 C 
ATOM     34  C   UNL     1       2.801  -0.960  -7.403  0.00  0.00    +0.000 C 
ATOM     35  C   UNL     1       2.089  -1.805  -8.461  0.00  0.00    +0.000 C 
ATOM     36  C   UNL     1       0.607  -1.928  -8.102  0.00  0.00    +0.000 C 
ATOM     37  C   UNL     1      -0.109  -0.617  -8.436  0.00  0.00    +0.002 C 
ATOM     38  C   UNL     1      -0.574   0.055  -7.143  0.00  0.00    +0.022 C 
ENDBRANCH  29  31
ENDBRANCH  27  29
ENDBRANCH  25  27
ENDBRANCH  24  25
ENDBRANCH   2  24
TORSDOF 9
