REMARK  Name = ZINC36276355
REMARK  6 active torsions:
REMARK  status: ('A' for Active; 'I' for Inactive)
REMARK    1  A    between atoms: C_4  and  N_7
REMARK    2  A    between atoms: C_8  and  C_10
REMARK    3  A    between atoms: C_10  and  O_11
REMARK    4  A    between atoms: O_11  and  C_12
REMARK    5  A    between atoms: C_19  and  C_21
REMARK    6  A    between atoms: C_24  and  N_27
REMARK                            x       y       z     vdW  Elec       q    Type
REMARK                         _______ _______ _______ _____ _____    ______ ____
ROOT
ATOM      1  C   UNL     1       5.816  -4.932   0.336  0.00  0.00    +0.162 A 
ATOM      2  C   UNL     1       7.070  -4.395   0.348  0.00  0.00    +0.051 A 
ATOM      3  C   UNL     1       8.188  -5.241   0.445  0.00  0.00    +0.022 A 
ATOM      4  C   UNL     1       8.026  -6.577   0.526  0.00  0.00    +0.093 A 
ATOM      5  N   UNL     1       6.776  -7.131   0.516  0.00  0.00    -0.305 N 
ATOM      6  C   UNL     1       5.664  -6.335   0.428  0.00  0.00    +0.159 A 
ATOM      7  N   UNL     1       4.592  -7.113   0.446  0.00  0.00    -0.337 N 
ATOM      8  C   UNL     1       4.980  -8.394   0.548  0.00  0.00    +0.065 A 
ATOM      9  C   UNL     1       6.342  -8.426   0.584  0.00  0.00    +0.119 A 
ATOM     10  H   UNL     1       3.674  -6.806   0.393  0.00  0.00    +0.167 HD
ENDROOT
BRANCH   8  11
ATOM     11  C   UNL     1       4.081  -9.573   0.600  0.00  0.00    -0.000 A 
ATOM     12  C   UNL     1       2.699  -9.401   0.535  0.00  0.00    +0.012 A 
ATOM     13  C   UNL     1       1.866 -10.498   0.583  0.00  0.00    +0.023 A 
ATOM     14  C   UNL     1       2.402 -11.775   0.695  0.00  0.00    +0.025 A 
ATOM     15  C   UNL     1       3.780 -11.949   0.760  0.00  0.00    +0.023 A 
ATOM     16  C   UNL     1       4.617 -10.855   0.707  0.00  0.00    +0.012 A 
BRANCH  14  17
ATOM     17  N   UNL     1       1.556 -12.885   0.744  0.00  0.00    -0.358 N 
ATOM     18  H   UNL     1       0.595 -12.764   0.699  0.00  0.00    +0.142 HD
ATOM     19  H   UNL     1       1.930 -13.777   0.822  0.00  0.00    +0.142 HD
ENDBRANCH  14  17
ENDBRANCH   8  11
BRANCH   1  20
ATOM     20  O   UNL     1       4.725  -4.127   0.242  0.00  0.00    -0.479 OA
BRANCH  20  21
ATOM     21  C   UNL     1       4.962  -2.721   0.153  0.00  0.00    +0.325 C 
BRANCH  21  23
ATOM     22  N   UNL     1       3.622  -0.651  -0.037  0.00  0.00    -0.283 N 
ATOM     23  C   UNL     1       3.645  -1.995   0.057  0.00  0.00    +0.255 C 
ATOM     24  O   UNL     1       2.606  -2.620   0.064  0.00  0.00    -0.272 OA
ATOM     25  H   UNL     1       4.452  -0.156  -0.121  0.00  0.00    +0.155 HD
BRANCH  22  29
ATOM     26  C   UNL     1      -0.015   1.381   0.029  0.00  0.00    +0.000 A 
ATOM     27  C   UNL     1       0.140   0.218   0.763  0.00  0.00    +0.002 A 
ATOM     28  C   UNL     1       1.344  -0.457   0.743  0.00  0.00    +0.023 A 
ATOM     29  C   UNL     1       2.400   0.031  -0.015  0.00  0.00    +0.033 A 
ATOM     30  C   UNL     1       2.241   1.198  -0.751  0.00  0.00    +0.023 A 
ATOM     31  C   UNL     1       1.034   1.870  -0.727  0.00  0.00    +0.002 A 
ENDBRANCH  22  29
ENDBRANCH  21  23
ENDBRANCH  20  21
ENDBRANCH   1  20
TORSDOF 6
