REMARK  Name = ZINC36660285
REMARK  13 active torsions:
REMARK  status: ('A' for Active; 'I' for Inactive)
REMARK    1  A    between atoms: C_1  and  C_2
REMARK    2  A    between atoms: C_2  and  C_3
REMARK    3  A    between atoms: N_12  and  C_13
REMARK    4  A    between atoms: C_13  and  C_14
REMARK    5  A    between atoms: C_14  and  N_15
REMARK    6  A    between atoms: N_15  and  C_16
REMARK    7  A    between atoms: N_15  and  C_18
REMARK    8  A    between atoms: C_16  and  C_17
REMARK    9  A    between atoms: C_18  and  C_19
REMARK   10  A    between atoms: C_20  and  C_22
REMARK   11  A    between atoms: N_27  and  S_28
REMARK   12  A    between atoms: S_28  and  C_31
REMARK   13  A    between atoms: C_34  and  C_37
REMARK                            x       y       z     vdW  Elec       q    Type
REMARK                         _______ _______ _______ _____ _____    ______ ____
ROOT
ATOM      1  C   UNL     1      -0.762   1.931  -0.731  0.00  0.00    -0.021 A 
ATOM      2  C   UNL     1      -1.296   2.252   0.490  0.00  0.00    +0.006 A 
ATOM      3  C   UNL     1      -2.667   2.250   0.704  0.00  0.00    +0.001 A 
ATOM      4  C   UNL     1      -3.515   1.917  -0.336  0.00  0.00    +0.017 A 
ATOM      5  C   UNL     1      -2.989   1.594  -1.562  0.00  0.00    +0.041 A 
ATOM      6  C   UNL     1      -1.599   1.591  -1.819  0.00  0.00    +0.083 A 
ATOM      7  N   UNL     1      -1.237   1.257  -3.077  0.00  0.00    -0.224 NA
ATOM      8  C   UNL     1      -2.113   0.958  -4.007  0.00  0.00    +0.168 A 
ATOM      9  S   UNL     1      -3.665   1.118  -3.134  0.00  0.00    -0.052 S 
ATOM     10  N   UNL     1      -1.892   0.601  -5.327  0.00  0.00    -0.251 N 
ATOM     11  C   UNL     1      -0.632   0.517  -5.800  0.00  0.00    +0.240 C 
ATOM     12  O   UNL     1      -0.434   0.118  -6.928  0.00  0.00    -0.273 OA
ENDROOT
BRANCH  11  13
ATOM     13  C   UNL     1       0.529   0.919  -4.927  0.00  0.00    +0.166 C 
ATOM     14  C   UNL     1       0.938  -0.263  -4.022  0.00  0.00    +0.031 C 
ATOM     15  C   UNL     1       2.124  -0.897  -4.795  0.00  0.00    +0.019 C 
ATOM     16  C   UNL     1       2.804   0.354  -5.404  0.00  0.00    +0.110 C 
ATOM     17  N   UNL     1       1.690   1.255  -5.764  0.00  0.00    -0.165 NA
BRANCH  17  18
ATOM     18  S   UNL     1       1.738   2.443  -6.916  0.00  0.00    +0.062 S 
ATOM     19  O   UNL     1       2.765   2.083  -7.829  0.00  0.00    -0.153 OA
ATOM     20  O   UNL     1       0.396   2.663  -7.328  0.00  0.00    -0.153 OA
BRANCH  18  21
ATOM     21  C   UNL     1       2.268   3.922  -6.119  0.00  0.00    +0.106 A 
ATOM     22  C   UNL     1       1.337   4.778  -5.560  0.00  0.00    +0.029 A 
ATOM     23  C   UNL     1       1.754   5.938  -4.934  0.00  0.00    +0.005 A 
ATOM     24  C   UNL     1       3.101   6.242  -4.866  0.00  0.00    -0.050 A 
ATOM     25  C   UNL     1       4.031   5.385  -5.424  0.00  0.00    +0.005 A 
ATOM     26  C   UNL     1       3.615   4.223  -6.046  0.00  0.00    +0.029 A 
ATOM     27  C   UNL     1       3.554   7.507  -4.185  0.00  0.00    +0.044 C 
ENDBRANCH  18  21
ENDBRANCH  17  18
ENDBRANCH  11  13
BRANCH   1  29
ATOM     28  C   UNL     1       1.151   3.260  -1.583  0.00  0.00    +0.009 C 
ATOM     29  C   UNL     1       0.734   1.947  -0.917  0.00  0.00    +0.034 C 
ENDBRANCH   1  29
BRANCH  10  30
ATOM     30  C   UNL     1      -3.026   0.315  -6.209  0.00  0.00    +0.097 C 
BRANCH  30  31
ATOM     31  C   UNL     1      -3.400   1.579  -6.985  0.00  0.00    -0.059 C 
BRANCH  31  32
ATOM     32  N   UNL     1      -4.577   1.310  -7.822  0.00  0.00    +0.380 N 
ATOM     33  H   UNL     1      -4.398   0.505  -8.404  0.00  0.00    -0.082 HD
BRANCH  32  34
ATOM     34  C   UNL     1      -5.738   1.045  -6.963  0.00  0.00    -0.082 C 
ATOM     35  C   UNL     1      -6.933   0.642  -7.830  0.00  0.00    -0.017 C 
ENDBRANCH  32  34
BRANCH  32  36
ATOM     36  C   UNL     1      -4.851   2.477  -8.671  0.00  0.00    -0.082 C 
ATOM     37  C   UNL     1      -3.702   2.668  -9.663  0.00  0.00    -0.017 C 
ENDBRANCH  32  36
ENDBRANCH  31  32
ENDBRANCH  30  31
ENDBRANCH  10  30
TORSDOF 9
