REMARK  Name = ZINC32577817
REMARK  8 active torsions:
REMARK  status: ('A' for Active; 'I' for Inactive)
REMARK    1  A    between atoms: C_3  and  C_18
REMARK    2  A    between atoms: C_5  and  O_7
REMARK    3  A    between atoms: O_7  and  C_8
REMARK    4  A    between atoms: C_8  and  C_10
REMARK    5  A    between atoms: N_19  and  N_20
REMARK    6  A    between atoms: C_21  and  C_23
REMARK    7  A    between atoms: C_25  and  O_30
REMARK    8  A    between atoms: C_27  and  O_29
REMARK                            x       y       z     vdW  Elec       q    Type
REMARK                         _______ _______ _______ _____ _____    ______ ____
ROOT
ATOM      1  C   UNL     1      -0.250   1.088  -1.626  0.00  0.00    +0.004 A 
ATOM      2  C   UNL     1      -1.392   1.808  -1.340  0.00  0.00    +0.010 A 
ATOM      3  C   UNL     1      -1.290   3.104  -0.829  0.00  0.00    -0.002 A 
ATOM      4  C   UNL     1      -0.030   3.668  -0.620  0.00  0.00    +0.055 A 
ATOM      5  C   UNL     1       1.108   2.938  -0.915  0.00  0.00    +0.133 A 
ATOM      6  C   UNL     1       0.996   1.648  -1.418  0.00  0.00    +0.046 A 
ENDROOT
BRANCH   3   7
ATOM      7  C   UNL     1      -2.508   3.875  -0.518  0.00  0.00    +0.138 C 
ATOM      8  N   UNL     1      -3.637   3.261  -0.339  0.00  0.00    -0.187 NA
BRANCH   8   9
ATOM      9  N   UNL     1      -3.652   1.882  -0.091  0.00  0.00    -0.203 N 
ATOM     10  C   UNL     1      -4.824   1.217  -0.057  0.00  0.00    +0.263 C 
ATOM     11  O   UNL     1      -5.868   1.813  -0.241  0.00  0.00    -0.268 OA
ATOM     12  H   UNL     1      -2.709   1.343   0.076  0.00  0.00    +0.178 HD
BRANCH  10  13
ATOM     13  C   UNL     1      -4.841  -0.238   0.205  0.00  0.00    +0.045 A 
ATOM     14  C   UNL     1      -3.644  -0.925   0.411  0.00  0.00    +0.058 A 
ATOM     15  C   UNL     1      -3.665  -2.288   0.661  0.00  0.00    +0.121 A 
ATOM     16  C   UNL     1      -4.872  -2.970   0.696  0.00  0.00    +0.090 A 
ATOM     17  C   UNL     1      -6.064  -2.292   0.486  0.00  0.00    +0.121 A 
ATOM     18  C   UNL     1      -6.053  -0.928   0.241  0.00  0.00    +0.058 A 
BRANCH  17  19
ATOM     19  O   UNL     1      -7.244  -2.965   0.521  0.00  0.00    -0.507 OA
ATOM     20  H   UNL     1      -8.189  -2.428   0.354  0.00  0.00    +0.292 HD
ENDBRANCH  17  19
BRANCH  15  21
ATOM     21  O   UNL     1      -2.500  -2.957   0.867  0.00  0.00    -0.507 OA
ATOM     22  H   UNL     1      -2.516  -4.039   1.066  0.00  0.00    +0.292 HD
ENDBRANCH  15  21
ENDBRANCH  10  13
ENDBRANCH   8   9
ENDBRANCH   3   7
BRANCH   5  23
ATOM     23  O   UNL     1       2.337   3.484  -0.713  0.00  0.00    -0.422 OA
BRANCH  23  24
ATOM     24  C   UNL     1       2.787   3.522   0.557  0.00  0.00    +0.346 C 
ATOM     25  O   UNL     1       2.123   3.040   1.452  0.00  0.00    -0.244 OA
BRANCH  24  26
ATOM     26  C   UNL     1       4.088   4.151   0.859  0.00  0.00    +0.078 A 
ATOM     27  C   UNL     1       4.854   4.708  -0.169  0.00  0.00    +0.018 A 
ATOM     28  C   UNL     1       6.067   5.294   0.120  0.00  0.00    +0.021 A 
ATOM     29  C   UNL     1       6.529   5.333   1.427  0.00  0.00    +0.042 A 
ATOM     30  C   UNL     1       5.775   4.784   2.450  0.00  0.00    +0.040 A 
ATOM     31  C   UNL     1       4.556   4.199   2.175  0.00  0.00    +0.056 A 
ATOM     32 CL   UNL     1       3.609   3.516   3.461  0.00  0.00    -0.083 Cl
ATOM     33 CL   UNL     1       8.059   6.073   1.781  0.00  0.00    -0.083 Cl
ENDBRANCH  24  26
ENDBRANCH  23  24
ENDBRANCH   5  23
TORSDOF 8
