REMARK  Name = ZINC59167068
REMARK  12 active torsions:
REMARK  status: ('A' for Active; 'I' for Inactive)
REMARK    1  A    between atoms: C_1  and  C_2
REMARK    2  A    between atoms: C_3  and  C_17
REMARK    3  A    between atoms: C_4  and  C_16
REMARK    4  A    between atoms: N_5  and  C_7
REMARK    5  A    between atoms: C_10  and  N_13
REMARK    6  A    between atoms: N_18  and  N_19
REMARK    7  A    between atoms: C_20  and  C_22
REMARK    8  A    between atoms: C_22  and  C_24
REMARK    9  A    between atoms: C_22  and  N_28
REMARK   10  A    between atoms: C_24  and  C_25
REMARK   11  A    between atoms: C_25  and  C_26
REMARK   12  A    between atoms: C_25  and  C_27
REMARK                            x       y       z     vdW  Elec       q    Type
REMARK                         _______ _______ _______ _____ _____    ______ ____
ROOT
ATOM      1  C   UNL     1      -0.934   0.865   0.413  0.00  0.00    +0.068 C 
ATOM      2  C   UNL     1      -1.246  -0.598   0.230  0.00  0.00    +0.069 A 
ATOM      3  C   UNL     1      -1.351  -1.274  -1.005  0.00  0.00    +0.038 A 
ATOM      4  C   UNL     1      -1.646  -2.592  -0.726  0.00  0.00    +0.051 A 
ATOM      5  N   UNL     1      -1.718  -2.713   0.617  0.00  0.00    -0.236 N 
ATOM      6  N   UNL     1      -1.459  -1.461   1.187  0.00  0.00    -0.171 NA
ATOM      7  C   UNL     1      -1.852  -3.693  -1.734  0.00  0.00    +0.066 C 
ENDROOT
BRANCH   5   8
ATOM      8  C   UNL     1      -1.997  -3.892   1.320  0.00  0.00    +0.066 A 
ATOM      9  C   UNL     1      -2.874  -3.869   2.396  0.00  0.00    +0.030 A 
ATOM     10  C   UNL     1      -3.148  -5.034   3.087  0.00  0.00    +0.035 A 
ATOM     11  C   UNL     1      -2.549  -6.221   2.708  0.00  0.00    +0.126 A 
ATOM     12  C   UNL     1      -1.675  -6.247   1.637  0.00  0.00    +0.035 A 
ATOM     13  C   UNL     1      -1.402  -5.088   0.939  0.00  0.00    +0.030 A 
BRANCH  11  14
ATOM     14  N   UNL     1      -2.844  -7.467   3.451  0.00  0.00    +0.056 N 
ATOM     15  O   UNL     1      -3.608  -7.445   4.389  0.00  0.00    -0.126 OA
ATOM     16  O   UNL     1      -2.321  -8.506   3.121  0.00  0.00    -0.126 OA
ENDBRANCH  11  14
ENDBRANCH   5   8
BRANCH   3  17
ATOM     17  C   UNL     1      -1.178  -0.681  -2.345  0.00  0.00    +0.142 C 
ATOM     18  N   UNL     1      -0.899   0.580  -2.465  0.00  0.00    -0.188 NA
BRANCH  18  19
ATOM     19  N   UNL     1      -0.735   1.143  -3.737  0.00  0.00    -0.208 N 
ATOM     20  C   UNL     1      -0.446   2.454  -3.861  0.00  0.00    +0.218 C 
ATOM     21  O   UNL     1      -0.328   3.146  -2.872  0.00  0.00    -0.276 OA
ATOM     22  H   UNL     1      -0.829   0.590  -4.528  0.00  0.00    +0.177 HD
BRANCH  20  23
ATOM     23  C   UNL     1      -0.268   3.060  -5.230  0.00  0.00    +0.015 C 
BRANCH  23  24
ATOM     24  N   UNL     1      -0.439   4.516  -5.147  0.00  0.00    +0.386 N 
ATOM     25  H   UNL     1      -0.300   4.924  -6.059  0.00  0.00    -0.089 HD
ATOM     26  H   UNL     1      -1.371   4.728  -4.822  0.00  0.00    -0.089 HD
ATOM     27  H   UNL     1       0.236   4.898  -4.501  0.00  0.00    -0.089 HD
ENDBRANCH  23  24
BRANCH  23  28
ATOM     28  C   UNL     1       1.134   2.740  -5.752  0.00  0.00    -0.004 C 
BRANCH  28  29
ATOM     29  C   UNL     1       1.267   3.236  -7.193  0.00  0.00    -0.018 C 
ATOM     30  C   UNL     1       2.711   3.049  -7.665  0.00  0.00    +0.007 C 
ATOM     31  C   UNL     1       0.328   2.435  -8.097  0.00  0.00    +0.007 C 
ENDBRANCH  28  29
ENDBRANCH  23  28
ENDBRANCH  20  23
ENDBRANCH  18  19
ENDBRANCH   3  17
TORSDOF 8
