REMARK  Name = ZINC39627275
REMARK  8 active torsions:
REMARK  status: ('A' for Active; 'I' for Inactive)
REMARK    1  A    between atoms: C_1  and  N_2
REMARK    2  A    between atoms: N_2  and  C_3
REMARK    3  A    between atoms: N_2  and  C_4
REMARK    4  A    between atoms: C_4  and  C_5
REMARK    5  A    between atoms: C_5  and  C_6
REMARK    6  A    between atoms: C_6  and  N_7
REMARK    7  A    between atoms: C_8  and  C_10
REMARK    8  A    between atoms: C_21  and  C_23
REMARK                            x       y       z     vdW  Elec       q    Type
REMARK                         _______ _______ _______ _____ _____    ______ ____
ROOT
ATOM      1  C   UNL     1      -4.077  -5.839  -0.906  0.00  0.00    +0.100 C 
ATOM      2  C   UNL     1      -3.425  -6.504  -2.139  0.00  0.00    +0.121 C 
ATOM      3  N   UNL     1      -4.259  -7.700  -2.403  0.00  0.00    -0.296 N 
ATOM      4  C   UNL     1      -5.647  -7.246  -2.152  0.00  0.00    +0.115 C 
ATOM      5  C   UNL     1      -5.535  -6.328  -0.918  0.00  0.00    -0.004 C 
ATOM      6  C   UNL     1      -6.488  -5.144  -1.054  0.00  0.00    -0.010 C 
ATOM      7  C   UNL     1      -7.933  -5.649  -1.005  0.00  0.00    -0.082 C 
ATOM      8  N   UNL     1      -8.166  -6.348   0.265  0.00  0.00    +0.379 N 
ATOM      9  C   UNL     1      -7.311  -7.538   0.346  0.00  0.00    -0.082 C 
ATOM     10  C   UNL     1      -5.840  -7.113   0.354  0.00  0.00    -0.010 C 
ATOM     11  C   UNL     1      -3.847  -8.925  -2.786  0.00  0.00    +0.247 C 
ATOM     12  O   UNL     1      -2.660  -9.182  -2.829  0.00  0.00    -0.270 OA
ATOM     13  H   UNL     1      -7.952  -5.729   1.032  0.00  0.00    -0.086 HD
ATOM     14  H   UNL     1      -9.134  -6.626   0.321  0.00  0.00    -0.086 HD
ENDROOT
BRANCH  11  15
ATOM     15  C   UNL     1      -4.840  -9.957  -3.153  0.00  0.00    +0.037 A 
ATOM     16  C   UNL     1      -6.135  -9.572  -3.543  0.00  0.00    +0.013 A 
ATOM     17  C   UNL     1      -7.064 -10.501  -3.885  0.00  0.00    +0.009 A 
ATOM     18  C   UNL     1      -6.737 -11.869  -3.851  0.00  0.00    -0.018 A 
ATOM     19  C   UNL     1      -7.681 -12.848  -4.201  0.00  0.00    +0.008 A 
ATOM     20  C   UNL     1      -7.336 -14.164  -4.159  0.00  0.00    +0.001 A 
ATOM     21  C   UNL     1      -6.056 -14.559  -3.773  0.00  0.00    +0.001 A 
ATOM     22  C   UNL     1      -5.114 -13.639  -3.428  0.00  0.00    +0.008 A 
ATOM     23  C   UNL     1      -5.434 -12.270  -3.459  0.00  0.00    -0.017 A 
ATOM     24  C   UNL     1      -4.485 -11.295  -3.116  0.00  0.00    +0.021 A 
ENDBRANCH  11  15
BRANCH   1  26
ATOM     25  N   UNL     1      -3.955  -3.572   0.076  0.00  0.00    -0.315 N 
ATOM     26  C   UNL     1      -4.026  -4.338  -1.030  0.00  0.00    +0.218 C 
ATOM     27  O   UNL     1      -4.048  -3.819  -2.127  0.00  0.00    -0.275 OA
ATOM     28  H   UNL     1      -3.938  -3.987   0.953  0.00  0.00    +0.149 HD
BRANCH  25  29
ATOM     29  C   UNL     1      -3.905  -2.113  -0.045  0.00  0.00    +0.102 C 
BRANCH  29  30
ATOM     30  C   UNL     1      -3.830  -1.488   1.350  0.00  0.00    +0.000 C 
BRANCH  30  31
ATOM     31  C   UNL     1      -3.777   0.036   1.223  0.00  0.00    -0.078 C 
BRANCH  31  33
ATOM     32  C   UNL     1      -3.534   2.090   2.438  0.00  0.00    -0.097 C 
ATOM     33  N   UNL     1      -3.704   0.636   2.562  0.00  0.00    +0.376 N 
ATOM     34  C   UNL     1      -4.945   0.349   3.295  0.00  0.00    -0.097 C 
ATOM     35  H   UNL     1      -2.920   0.247   3.063  0.00  0.00    -0.083 HD
ENDBRANCH  31  33
ENDBRANCH  30  31
ENDBRANCH  29  30
ENDBRANCH  25  29
ENDBRANCH   1  26
TORSDOF 6
