REMARK  Name = ZINC12575770
REMARK  8 active torsions:
REMARK  status: ('A' for Active; 'I' for Inactive)
REMARK    1  A    between atoms: C_1  and  C_2
REMARK    2  A    between atoms: C_5  and  C_11
REMARK    3  A    between atoms: N_13  and  C_14
REMARK    4  A    between atoms: C_14  and  C_15
REMARK    5  A    between atoms: C_15  and  N_60
REMARK    6  A    between atoms: C_24  and  N_60
REMARK    7  A    between atoms: C_25  and  C_26
REMARK    8  A    between atoms: C_25  and  N_60
REMARK                            x       y       z     vdW  Elec       q    Type
REMARK                         _______ _______ _______ _____ _____    ______ ____
ROOT
ATOM      1  C   UNL     1      -0.127  -1.960   1.524  0.00  0.00    -0.042 C 
ATOM      2  C   UNL     1      -1.464  -2.229   0.801  0.00  0.00    +0.025 C 
ATOM      3  C   UNL     1      -2.055  -3.436   1.504  0.00  0.00    -0.045 A 
ATOM      4  C   UNL     1      -3.058  -4.303   1.104  0.00  0.00    +0.004 A 
ATOM      5  C   UNL     1      -3.435  -5.352   1.920  0.00  0.00    +0.000 A 
ATOM      6  C   UNL     1      -2.810  -5.537   3.139  0.00  0.00    +0.000 A 
ATOM      7  C   UNL     1      -1.810  -4.673   3.539  0.00  0.00    +0.004 A 
ATOM      8  C   UNL     1      -1.430  -3.621   2.723  0.00  0.00    -0.045 A 
ATOM      9  C   UNL     1      -0.379  -2.551   2.927  0.00  0.00    +0.025 C 
ENDROOT
BRANCH   1  11
ATOM     10  C   UNL     1       0.505   0.026   0.290  0.00  0.00    -0.095 C 
ATOM     11  N   UNL     1       0.164  -0.514   1.623  0.00  0.00    +0.386 N 
ATOM     12  H   UNL     1       0.963  -0.377   2.253  0.00  0.00    -0.081 HD
BRANCH  11  13
ATOM     13  C   UNL     1      -1.008   0.201   2.172  0.00  0.00    -0.043 C 
BRANCH  13  14
ATOM     14  C   UNL     1      -0.576   1.577   2.607  0.00  0.00    -0.064 A 
ATOM     15  C   UNL     1      -0.116   1.782   3.894  0.00  0.00    +0.002 A 
ATOM     16  C   UNL     1       0.286   3.044   4.292  0.00  0.00    +0.000 A 
ATOM     17  C   UNL     1       0.216   4.103   3.406  0.00  0.00    +0.000 A 
ATOM     18  C   UNL     1      -0.250   3.898   2.120  0.00  0.00    +0.000 A 
ATOM     19  C   UNL     1      -0.646   2.636   1.721  0.00  0.00    +0.002 A 
ENDBRANCH  13  14
ENDBRANCH  11  13
ENDBRANCH   1  11
BRANCH   1  20
ATOM     20  C   UNL     1       1.025  -2.686   0.827  0.00  0.00    +0.093 C 
BRANCH  20  23
ATOM     21  C   UNL     1       3.405  -3.064   1.184  0.00  0.00    +0.233 C 
ATOM     22  O   UNL     1       3.394  -3.833   0.246  0.00  0.00    -0.274 OA
ATOM     23  N   UNL     1       2.271  -2.438   1.556  0.00  0.00    -0.315 N 
ATOM     24  H   UNL     1       2.280  -1.824   2.307  0.00  0.00    +0.149 HD
BRANCH  21  28
ATOM     25  C   UNL     1       6.452  -1.166   3.658  0.00  0.00    +0.028 C 
ATOM     26  C   UNL     1       6.662  -1.311   2.149  0.00  0.00    +0.071 C 
ATOM     27  C   UNL     1       5.306  -1.491   1.459  0.00  0.00    +0.053 C 
ATOM     28  C   UNL     1       4.687  -2.810   1.934  0.00  0.00    +0.160 C 
ATOM     29  N   UNL     1       5.629  -3.901   1.679  0.00  0.00    -0.315 N 
ATOM     30  C   UNL     1       6.954  -3.692   1.671  0.00  0.00    +0.131 C 
ATOM     31  S   UNL     1       7.994  -5.020   1.378  0.00  0.00    -0.019 S 
ATOM     32  N   UNL     1       7.496  -2.484   1.882  0.00  0.00    -0.324 N 
ATOM     33  H   UNL     1       5.287  -4.794   1.512  0.00  0.00    +0.148 HD
ATOM     34  H   UNL     1       8.461  -2.385   1.857  0.00  0.00    +0.148 HD
ENDBRANCH  21  28
ENDBRANCH  20  23
ENDBRANCH   1  20
TORSDOF 6
