REMARK  Name = ZINC08971698
REMARK  11 active torsions:
REMARK  status: ('A' for Active; 'I' for Inactive)
REMARK    1  A    between atoms: C_1  and  C_2
REMARK    2  A    between atoms: C_2  and  O_3
REMARK    3  A    between atoms: O_3  and  C_4
REMARK    4  A    between atoms: C_4  and  C_6
REMARK    5  A    between atoms: C_9  and  N_12
REMARK    6  A    between atoms: C_13  and  C_15
REMARK    7  A    between atoms: C_18  and  C_32
REMARK    8  A    between atoms: C_24  and  C_31
REMARK    9  A    between atoms: C_25  and  C_30
REMARK   10  A    between atoms: C_32  and  C_34
REMARK   11  A    between atoms: C_32  and  O_35
REMARK                            x       y       z     vdW  Elec       q    Type
REMARK                         _______ _______ _______ _____ _____    ______ ____
ROOT
ATOM      1  C   UNL     1       4.737   4.436  -0.031  0.00  0.00    +0.076 C 
ATOM      2  C   UNL     1       5.586   4.187   1.239  0.00  0.00    -0.001 C 
ATOM      3  C   UNL     1       5.145   5.335   2.182  0.00  0.00    -0.040 C 
ATOM      4  C   UNL     1       4.347   5.916   0.041  0.00  0.00    +0.049 C 
ATOM      5  C   UNL     1       4.801   6.656  -1.188  0.00  0.00    -0.027 A 
ATOM      6  C   UNL     1       6.035   6.878  -1.756  0.00  0.00    +0.005 A 
ATOM      7  C   UNL     1       6.139   7.618  -2.920  0.00  0.00    +0.004 A 
ATOM      8  C   UNL     1       5.000   8.134  -3.511  0.00  0.00    -0.046 A 
ATOM      9  C   UNL     1       3.761   7.914  -2.946  0.00  0.00    -0.026 A 
ATOM     10  C   UNL     1       3.648   7.169  -1.774  0.00  0.00    +0.039 A 
ATOM     11  N   UNL     1       2.526   6.815  -1.024  0.00  0.00    -0.286 N 
ATOM     12  C   UNL     1       2.849   6.078   0.056  0.00  0.00    +0.211 C 
ATOM     13  O   UNL     1       2.081   5.632   0.883  0.00  0.00    -0.277 OA
ATOM     14  C   UNL     1       2.526   8.481  -3.599  0.00  0.00    +0.046 C 
ATOM     15  C   UNL     1       5.113   8.941  -4.779  0.00  0.00    +0.044 C 
ATOM     16  H   UNL     1       1.618   7.069  -1.253  0.00  0.00    +0.155 HD
ATOM     17  N   UNL     1       4.946   6.458   1.252  0.00  0.00    +0.395 N 
ATOM     18  H   UNL     1       5.848   6.896   1.032  0.00  0.00    -0.083 HD
ATOM     19  H   UNL     1       4.320   7.155   1.673  0.00  0.00    -0.083 HD
ENDROOT
BRANCH   1  21
ATOM     20  N   UNL     1       2.868   3.282  -1.170  0.00  0.00    -0.285 N 
ATOM     21  C   UNL     1       3.505   3.567  -0.017  0.00  0.00    +0.220 C 
ATOM     22  O   UNL     1       3.087   3.125   1.032  0.00  0.00    -0.275 OA
ATOM     23  H   UNL     1       3.243   3.574  -2.016  0.00  0.00    +0.155 HD
BRANCH  20  27
ATOM     24  C   UNL     1      -0.709   1.149  -1.100  0.00  0.00    +0.059 A 
ATOM     25  C   UNL     1       0.174   1.002  -2.174  0.00  0.00    +0.017 A 
ATOM     26  C   UNL     1       1.355   1.708  -2.193  0.00  0.00    +0.024 A 
ATOM     27  C   UNL     1       1.671   2.568  -1.146  0.00  0.00    +0.033 A 
ATOM     28  C   UNL     1       0.795   2.718  -0.076  0.00  0.00    +0.024 A 
ATOM     29  C   UNL     1      -0.388   2.014  -0.049  0.00  0.00    +0.017 A 
BRANCH  24  30
ATOM     30  C   UNL     1      -1.976   0.395  -1.075  0.00  0.00    +0.339 C 
ATOM     31  O   UNL     1      -2.253  -0.357  -1.989  0.00  0.00    -0.245 OA
BRANCH  30  32
ATOM     32  O   UNL     1      -2.825   0.538  -0.040  0.00  0.00    -0.461 OA
BRANCH  32  34
ATOM     33  C   UNL     1      -4.884   0.056   1.169  0.00  0.00    +0.048 C 
ATOM     34  C   UNL     1      -4.053  -0.236  -0.082  0.00  0.00    +0.229 C 
ENDBRANCH  32  34
ENDBRANCH  30  32
ENDBRANCH  24  30
ENDBRANCH  20  27
ENDBRANCH   1  21
BRANCH   3  35
ATOM     35  C   UNL     1       6.237   5.646   3.207  0.00  0.00    +0.098 C 
ATOM     36  C   UNL     1       5.819   6.855   4.047  0.00  0.00    +0.036 C 
BRANCH  35  37
ATOM     37  O   UNL     1       6.425   4.515   4.060  0.00  0.00    -0.394 OA
ATOM     38  H   UNL     1       7.105   4.641   4.736  0.00  0.00    +0.210 HD
ENDBRANCH  35  37
ENDBRANCH   3  35
TORSDOF 7
