REMARK  Name = ZINC07364805
REMARK  7 active torsions:
REMARK  status: ('A' for Active; 'I' for Inactive)
REMARK    1  A    between atoms: C_1  and  C_2
REMARK    2  A    between atoms: C_2  and  C_3
REMARK    3  A    between atoms: C_3  and  N_4
REMARK    4  A    between atoms: C_10  and  S_11
REMARK    5  A    between atoms: S_11  and  C_12
REMARK    6  A    between atoms: C_12  and  C_14
REMARK    7  A    between atoms: C_12  and  C_15
REMARK                            x       y       z     vdW  Elec       q    Type
REMARK                         _______ _______ _______ _____ _____    ______ ____
ROOT
ATOM      1  S   UNL     1      -1.685  -2.235  -2.636  0.00  0.00    -0.073 S 
ENDROOT
BRANCH   1   8
ATOM      2  N   UNL     1       0.738  -1.962  -1.265  0.00  0.00    -0.271 N 
ATOM      3  C   UNL     1       1.697  -2.741  -0.727  0.00  0.00    +0.345 A 
ATOM      4  O   UNL     1       2.698  -2.355  -0.149  0.00  0.00    -0.245 OA
ATOM      5  N   UNL     1       1.348  -4.026  -0.944  0.00  0.00    -0.226 N 
ATOM      6  H   UNL     1       1.847  -4.811  -0.668  0.00  0.00    +0.194 HD
ATOM      7  N   UNL     1       0.131  -4.018  -1.639  0.00  0.00    -0.145 NA
ATOM      8  C   UNL     1      -0.223  -2.778  -1.818  0.00  0.00    +0.193 A 
BRANCH   2   9
ATOM      9  C   UNL     1       0.718  -0.497  -1.257  0.00  0.00    +0.129 C 
BRANCH   9  11
ATOM     10  C   UNL     1      -0.019   1.526   0.010  0.00  0.00    +0.005 C 
ATOM     11  C   UNL     1       0.002  -0.004   0.002  0.00  0.00    +0.018 C 
ENDBRANCH   9  11
ENDBRANCH   2   9
ENDBRANCH   1   8
BRANCH   1  12
ATOM     12  C   UNL     1      -2.513  -3.773  -3.124  0.00  0.00    +0.137 C 
ATOM     13  C   UNL     1      -2.936  -4.544  -1.872  0.00  0.00    +0.029 C 
BRANCH  12  14
ATOM     14  C   UNL     1      -3.731  -3.449  -3.950  0.00  0.00    +0.236 C 
ATOM     15  O   UNL     1      -4.225  -2.343  -3.893  0.00  0.00    -0.274 OA
ATOM     16  N   UNL     1      -4.272  -4.388  -4.751  0.00  0.00    -0.224 N 
ATOM     17  C   UNL     1      -5.452  -4.199  -5.609  0.00  0.00    +0.136 C 
ATOM     18  C   UNL     1      -5.631  -5.567  -6.295  0.00  0.00    +0.125 C 
ATOM     19  N   UNL     1      -4.534  -6.381  -5.752  0.00  0.00    -0.297 N 
ATOM     20  C   UNL     1      -3.817  -5.639  -4.897  0.00  0.00    +0.309 C 
ATOM     21  O   UNL     1      -2.844  -6.064  -4.306  0.00  0.00    -0.252 OA
ATOM     22  H   UNL     1      -4.354  -7.307  -5.979  0.00  0.00    +0.150 HD
ENDBRANCH  12  14
ENDBRANCH   1  12
TORSDOF 5
