REMARK  Name = ZINC39657096
REMARK  10 active torsions:
REMARK  status: ('A' for Active; 'I' for Inactive)
REMARK    1  A    between atoms: C_1  and  C_2
REMARK    2  A    between atoms: C_4  and  C_11
REMARK    3  A    between atoms: N_5  and  C_7
REMARK    4  A    between atoms: C_7  and  C_8
REMARK    5  A    between atoms: C_7  and  C_9
REMARK    6  A    between atoms: C_7  and  C_10
REMARK    7  A    between atoms: C_15  and  C_24
REMARK    8  A    between atoms: N_26  and  C_27
REMARK    9  A    between atoms: C_27  and  C_29
REMARK   10  A    between atoms: C_27  and  C_30
REMARK                            x       y       z     vdW  Elec       q    Type
REMARK                         _______ _______ _______ _____ _____    ______ ____
ROOT
ATOM      1  C   UNL     1      -0.605  -4.088  -1.326  0.00  0.00    +0.265 C 
ATOM      2  O   UNL     1      -0.869  -3.934  -2.503  0.00  0.00    -0.268 OA
ATOM      3  N   UNL     1      -0.737  -5.304  -0.760  0.00  0.00    -0.295 N 
ATOM      4  C   UNL     1      -0.593  -5.660   0.672  0.00  0.00    +0.121 C 
ATOM      5  C   UNL     1      -1.709  -6.697   0.930  0.00  0.00    +0.100 C 
ATOM      6  C   UNL     1      -2.007  -7.304  -0.452  0.00  0.00    -0.004 C 
ATOM      7  C   UNL     1      -1.063  -6.587  -1.427  0.00  0.00    +0.115 C 
ATOM      8  C   UNL     1      -3.459  -7.041  -0.842  0.00  0.00    -0.010 C 
ATOM      9  C   UNL     1      -3.747  -7.703  -2.192  0.00  0.00    -0.082 C 
ATOM     10  N   UNL     1      -3.499  -9.147  -2.095  0.00  0.00    +0.379 N 
ATOM     11  C   UNL     1      -2.081  -9.393  -1.810  0.00  0.00    -0.082 C 
ATOM     12  C   UNL     1      -1.722  -8.803  -0.444  0.00  0.00    -0.010 C 
ATOM     13  H   UNL     1      -4.062  -9.534  -1.352  0.00  0.00    -0.086 HD
ATOM     14  H   UNL     1      -3.748  -9.589  -2.967  0.00  0.00    -0.086 HD
ENDROOT
BRANCH   1  18
ATOM     15  C   UNL     1       1.211  -1.177   2.409  0.00  0.00    +0.067 C 
ATOM     16  C   UNL     1       0.649  -1.664   1.098  0.00  0.00    +0.061 A 
ATOM     17  C   UNL     1       0.342  -2.988   0.776  0.00  0.00    +0.057 A 
ATOM     18  C   UNL     1      -0.142  -2.947  -0.520  0.00  0.00    +0.124 A 
ATOM     19  N   UNL     1      -0.102  -1.637  -0.902  0.00  0.00    -0.254 N 
ATOM     20  N   UNL     1       0.357  -0.921   0.061  0.00  0.00    -0.175 NA
BRANCH  19  21
ATOM     21  C   UNL     1      -0.522  -1.124  -2.208  0.00  0.00    +0.056 C 
ATOM     22  C   UNL     1      -1.964  -1.557  -2.485  0.00  0.00    +0.036 C 
ATOM     23  C   UNL     1      -0.440   0.403  -2.208  0.00  0.00    +0.036 C 
ATOM     24  C   UNL     1       0.396  -1.685  -3.296  0.00  0.00    +0.036 C 
ENDBRANCH  19  21
ENDBRANCH   1  18
BRANCH   5  25
ATOM     25  C   UNL     1      -1.225  -7.762   1.880  0.00  0.00    +0.219 C 
ATOM     26  O   UNL     1      -0.042  -8.018   1.953  0.00  0.00    -0.275 OA
ATOM     27  N   UNL     1      -2.108  -8.431   2.649  0.00  0.00    -0.308 N 
ATOM     28  H   UNL     1      -3.060  -8.281   2.537  0.00  0.00    +0.149 HD
BRANCH  27  29
ATOM     29  C   UNL     1      -1.629  -9.383   3.654  0.00  0.00    +0.100 C 
ATOM     30  C   UNL     1      -1.396 -10.744   2.996  0.00  0.00    +0.033 C 
BRANCH  29  31
ATOM     31  C   UNL     1      -2.660  -9.523   4.744  0.00  0.00    -0.027 A 
ATOM     32  C   UNL     1      -4.004  -9.566   4.423  0.00  0.00    +0.006 A 
ATOM     33  C   UNL     1      -4.950  -9.694   5.423  0.00  0.00    +0.015 A 
ATOM     34  C   UNL     1      -4.552  -9.780   6.745  0.00  0.00    +0.018 A 
ATOM     35  C   UNL     1      -3.207  -9.736   7.066  0.00  0.00    +0.015 A 
ATOM     36  C   UNL     1      -2.262  -9.613   6.065  0.00  0.00    +0.006 A 
ATOM     37 BR   UNL     1      -5.845  -9.955   8.113  0.00  0.00    -0.050 Br
ENDBRANCH  29  31
ENDBRANCH  27  29
ENDBRANCH   5  25
TORSDOF 5
