REMARK  Name = ZINC64626183
REMARK  7 active torsions:
REMARK  status: ('A' for Active; 'I' for Inactive)
REMARK    1  A    between atoms: N_9  and  C_11
REMARK    2  A    between atoms: C_11  and  C_12
REMARK    3  A    between atoms: C_12  and  C_13
REMARK    4  A    between atoms: C_13  and  N_14
REMARK    5  A    between atoms: N_17  and  C_18
REMARK    6  A    between atoms: C_18  and  C_19
REMARK    7  A    between atoms: N_21  and  C_22
REMARK                            x       y       z     vdW  Elec       q    Type
REMARK                         _______ _______ _______ _____ _____    ______ ____
ROOT
ATOM      1  N   UNL     1       8.236  -2.337   1.890  0.00  0.00    -0.299 N 
ATOM      2  C   UNL     1       9.492  -2.827   1.910  0.00  0.00    +0.300 C 
ATOM      3  O   UNL     1       9.795  -3.751   1.179  0.00  0.00    -0.253 OA
ATOM      4  N   UNL     1      10.411  -2.293   2.739  0.00  0.00    -0.291 N 
ATOM      5  H   UNL     1       7.994  -1.601   2.473  0.00  0.00    +0.150 HD
ATOM      6  H   UNL     1      10.169  -1.557   3.321  0.00  0.00    +0.151 HD
ENDROOT
BRANCH   1   7
ATOM      7  C   UNL     1       7.238  -2.917   0.989  0.00  0.00    +0.104 C 
BRANCH   7   8
ATOM      8  C   UNL     1       5.906  -2.184   1.164  0.00  0.00    +0.000 C 
BRANCH   8   9
ATOM      9  C   UNL     1       4.863  -2.790   0.223  0.00  0.00    -0.077 C 
BRANCH   9  18
ATOM     10  C   UNL     1      -0.013   1.374  -0.007  0.00  0.00    +0.000 A 
ATOM     11  C   UNL     1       1.179   2.076  -0.021  0.00  0.00    +0.000 A 
ATOM     12  C   UNL     1       2.379   1.394  -0.033  0.00  0.00    +0.002 A 
ATOM     13  C   UNL     1       2.397   0.007  -0.032  0.00  0.00    -0.061 A 
ATOM     14  C   UNL     1       1.208  -0.692  -0.016  0.00  0.00    -0.048 A 
ATOM     15  C   UNL     1       0.004  -0.007  -0.005  0.00  0.00    +0.004 A 
ATOM     16  C   UNL     1       1.183  -2.199  -0.006  0.00  0.00    +0.017 C 
ATOM     17  C   UNL     1       2.550  -2.742  -0.423  0.00  0.00    -0.074 C 
ATOM     18  N   UNL     1       3.585  -2.086   0.391  0.00  0.00    +0.383 N 
ATOM     19  C   UNL     1       3.729  -0.696  -0.051  0.00  0.00    -0.043 C 
ATOM     20  H   UNL     1       3.312  -2.105   1.362  0.00  0.00    -0.081 HD
ENDBRANCH   9  18
ENDBRANCH   8   9
ENDBRANCH   7   8
ENDBRANCH   1   7
BRANCH   4  21
ATOM     21  C   UNL     1      11.776  -2.826   2.760  0.00  0.00    +0.202 C 
BRANCH  21  22
ATOM     22  C   UNL     1      12.598  -2.061   3.764  0.00  0.00    +0.234 C 
ATOM     23  O   UNL     1      12.094  -1.159   4.400  0.00  0.00    -0.274 OA
ATOM     24  N   UNL     1      13.894  -2.378   3.956  0.00  0.00    -0.284 N 
ATOM     25  H   UNL     1      14.279  -3.141   3.498  0.00  0.00    +0.155 HD
BRANCH  24  26
ATOM     26  C   UNL     1      14.684  -1.607   4.817  0.00  0.00    +0.034 A 
ATOM     27  C   UNL     1      16.024  -1.391   4.525  0.00  0.00    +0.026 A 
ATOM     28  C   UNL     1      16.801  -0.630   5.376  0.00  0.00    +0.040 A 
ATOM     29  C   UNL     1      16.245  -0.082   6.519  0.00  0.00    +0.124 A 
ATOM     30  C   UNL     1      14.908  -0.295   6.812  0.00  0.00    +0.040 A 
ATOM     31  C   UNL     1      14.126  -1.050   5.961  0.00  0.00    +0.026 A 
ATOM     32  F   UNL     1      17.007   0.662   7.350  0.00  0.00    -0.205 F 
ENDBRANCH  24  26
ENDBRANCH  21  22
ENDBRANCH   4  21
TORSDOF 7
