REMARK  Name = ZINC05032539
REMARK  11 active torsions:
REMARK  status: ('A' for Active; 'I' for Inactive)
REMARK    1  A    between atoms: C_1  and  C_2
REMARK    2  A    between atoms: C_3  and  C_24
REMARK    3  A    between atoms: N_11  and  C_14
REMARK    4  A    between atoms: C_14  and  C_15
REMARK    5  A    between atoms: C_18  and  C_22
REMARK    6  A    between atoms: C_19  and  N_21
REMARK    7  A    between atoms: C_24  and  O_26
REMARK    8  A    between atoms: O_26  and  C_27
REMARK    9  A    between atoms: C_27  and  C_28
REMARK   10  A    between atoms: C_27  and  C_29
REMARK   11  A    between atoms: C_27  and  C_30
REMARK                            x       y       z     vdW  Elec       q    Type
REMARK                         _______ _______ _______ _____ _____    ______ ____
ROOT
ATOM      1  C   UNL     1       0.276   1.282   0.104  0.00  0.00    +0.087 C 
ATOM      2  C   UNL     1      -0.549   1.710   1.291  0.00  0.00    +0.116 C 
ATOM      3  C   UNL     1       0.018   1.712   2.506  0.00  0.00    +0.099 C 
ATOM      4  C   UNL     1      -0.765   2.127   3.718  0.00  0.00    +0.148 C 
ATOM      5  C   UNL     1      -0.317   3.484   4.199  0.00  0.00    -0.001 A 
ATOM      6  C   UNL     1      -0.318   4.734   3.622  0.00  0.00    +0.007 A 
ATOM      7  C   UNL     1       0.170   5.820   4.326  0.00  0.00    +0.000 A 
ATOM      8  C   UNL     1       0.658   5.646   5.608  0.00  0.00    +0.002 A 
ATOM      9  C   UNL     1       0.660   4.396   6.190  0.00  0.00    +0.024 A 
ATOM     10  C   UNL     1       0.170   3.296   5.488  0.00  0.00    +0.042 A 
ATOM     11  N   UNL     1       0.066   1.953   5.852  0.00  0.00    -0.261 N 
ATOM     12  C   UNL     1      -0.470   1.201   4.875  0.00  0.00    +0.241 C 
ATOM     13  O   UNL     1      -0.677   0.007   4.915  0.00  0.00    -0.274 OA
ATOM     14  C   UNL     1      -2.236   2.133   3.418  0.00  0.00    +0.110 C 
ATOM     15  C   UNL     1      -2.676   2.105   2.135  0.00  0.00    +0.199 C 
ATOM     16  O   UNL     1      -1.822   2.079   1.095  0.00  0.00    -0.445 OA
ENDROOT
BRANCH  15  17
ATOM     17  N   UNL     1      -4.027   2.109   1.891  0.00  0.00    -0.328 N 
ATOM     18  H   UNL     1      -4.653   2.131   2.632  0.00  0.00    +0.145 HD
ATOM     19  H   UNL     1      -4.355   2.089   0.979  0.00  0.00    +0.145 HD
ENDBRANCH  15  17
BRANCH  14  20
ATOM     20  C   UNL     1      -3.181   2.169   4.493  0.00  0.00    +0.102 C 
ATOM     21  N   UNL     1      -3.931   2.197   5.346  0.00  0.00    -0.191 NA
ENDBRANCH  14  20
BRANCH   3  22
ATOM     22  C   UNL     1       1.371   1.319   2.648  0.00  0.00    +0.341 C 
ATOM     23  O   UNL     1       1.641   0.214   3.079  0.00  0.00    -0.245 OA
BRANCH  22  24
ATOM     24  O   UNL     1       2.360   2.169   2.304  0.00  0.00    -0.456 OA
BRANCH  24  25
ATOM     25  C   UNL     1       3.697   1.667   2.363  0.00  0.00    +0.106 C 
ATOM     26  C   UNL     1       3.817   0.431   1.470  0.00  0.00    +0.055 C 
ATOM     27  C   UNL     1       4.668   2.745   1.875  0.00  0.00    +0.055 C 
ATOM     28  C   UNL     1       4.037   1.290   3.806  0.00  0.00    +0.055 C 
ENDBRANCH  24  25
ENDBRANCH  22  24
ENDBRANCH   3  22
BRANCH  11  29
ATOM     29  C   UNL     1       0.493   1.423   7.150  0.00  0.00    +0.209 C 
BRANCH  29  30
ATOM     30  C   UNL     1       1.971   1.129   7.111  0.00  0.00    +0.228 C 
ATOM     31  O   UNL     1       2.625   1.438   6.138  0.00  0.00    -0.274 OA
ATOM     32  N   UNL     1       2.565   0.521   8.157  0.00  0.00    -0.328 N 
ATOM     33  H   UNL     1       2.041   0.273   8.935  0.00  0.00    +0.145 HD
ATOM     34  H   UNL     1       3.515   0.332   8.132  0.00  0.00    +0.145 HD
ENDBRANCH  29  30
ENDBRANCH  11  29
TORSDOF 7
