REMARK  Name = ZINC36584372
REMARK  13 active torsions:
REMARK  status: ('A' for Active; 'I' for Inactive)
REMARK    1  A    between atoms: C_1  and  C_2
REMARK    2  A    between atoms: C_5  and  C_9
REMARK    3  A    between atoms: C_6  and  C_8
REMARK    4  A    between atoms: C_9  and  C_11
REMARK    5  A    between atoms: C_9  and  N_20
REMARK    6  A    between atoms: N_13  and  C_14
REMARK    7  A    between atoms: N_20  and  C_31
REMARK    8  A    between atoms: C_21  and  C_23
REMARK    9  A    between atoms: C_26  and  O_29
REMARK   10  A    between atoms: O_29  and  C_30
REMARK   11  A    between atoms: C_31  and  C_32
REMARK   12  A    between atoms: C_31  and  C_33
REMARK   13  A    between atoms: C_31  and  C_34
REMARK                            x       y       z     vdW  Elec       q    Type
REMARK                         _______ _______ _______ _____ _____    ______ ____
ROOT
ATOM      1  C   UNL     1      -1.114  -4.519   0.698  0.00  0.00    +0.193 C 
ENDROOT
BRANCH   1   6
ATOM      2  C   UNL     1       1.062   0.827   0.434  0.00  0.00    +0.044 C 
ATOM      3  C   UNL     1       0.495  -0.567   0.502  0.00  0.00    -0.050 A 
ATOM      4  C   UNL     1      -0.249  -1.063  -0.552  0.00  0.00    +0.004 A 
ATOM      5  C   UNL     1      -0.769  -2.342  -0.489  0.00  0.00    +0.006 A 
ATOM      6  C   UNL     1      -0.546  -3.125   0.628  0.00  0.00    -0.015 A 
ATOM      7  C   UNL     1       0.199  -2.630   1.682  0.00  0.00    -0.045 A 
ATOM      8  C   UNL     1       0.723  -1.352   1.617  0.00  0.00    +0.007 A 
ATOM      9  C   UNL     1       0.442  -3.483   2.900  0.00  0.00    +0.044 C 
ENDBRANCH   1   6
BRANCH   1  10
ATOM     10  C   UNL     1      -0.090  -5.505   0.197  0.00  0.00    +0.238 C 
ATOM     11  O   UNL     1      -0.205  -5.989  -0.909  0.00  0.00    -0.273 OA
ATOM     12  N   UNL     1       0.953  -5.848   0.978  0.00  0.00    -0.311 N 
ATOM     13  H   UNL     1       0.912  -5.699   1.935  0.00  0.00    +0.149 HD
BRANCH  12  14
ATOM     14  C   UNL     1       2.150  -6.445   0.380  0.00  0.00    +0.073 C 
ATOM     15  C   UNL     1       1.950  -7.955   0.237  0.00  0.00    +0.022 C 
ATOM     16  C   UNL     1       3.199  -8.579  -0.387  0.00  0.00    +0.002 C 
ATOM     17  C   UNL     1       4.408  -8.308   0.512  0.00  0.00    +0.000 C 
ATOM     18  C   UNL     1       4.608  -6.798   0.654  0.00  0.00    +0.002 C 
ATOM     19  C   UNL     1       3.358  -6.174   1.278  0.00  0.00    +0.022 C 
ENDBRANCH  12  14
ENDBRANCH   1  10
BRANCH   1  20
ATOM     20  N   UNL     1      -2.317  -4.598  -0.136  0.00  0.00    -0.277 N 
ATOM     21  C   UNL     1      -2.280  -4.172  -1.414  0.00  0.00    +0.248 C 
ATOM     22  O   UNL     1      -3.277  -3.703  -1.927  0.00  0.00    -0.270 OA
BRANCH  21  23
ATOM     23  C   UNL     1      -1.029  -4.275  -2.190  0.00  0.00    +0.037 A 
ATOM     24  C   UNL     1       0.206  -4.141  -1.550  0.00  0.00    +0.016 A 
ATOM     25  C   UNL     1       1.371  -4.238  -2.278  0.00  0.00    +0.046 A 
ATOM     26  C   UNL     1       1.319  -4.468  -3.648  0.00  0.00    +0.120 A 
ATOM     27  C   UNL     1       0.093  -4.601  -4.289  0.00  0.00    +0.046 A 
ATOM     28  C   UNL     1      -1.076  -4.511  -3.567  0.00  0.00    +0.016 A 
BRANCH  26  29
ATOM     29  O   UNL     1       2.470  -4.562  -4.362  0.00  0.00    -0.495 OA
ATOM     30  C   UNL     1       2.344  -4.799  -5.766  0.00  0.00    +0.277 C 
ENDBRANCH  26  29
ENDBRANCH  21  23
BRANCH  20  31
ATOM     31  C   UNL     1      -3.559  -5.141   0.420  0.00  0.00    +0.030 C 
ATOM     32  C   UNL     1      -3.333  -5.540   1.880  0.00  0.00    +0.031 C 
ATOM     33  C   UNL     1      -4.657  -4.078   0.346  0.00  0.00    +0.031 C 
ATOM     34  C   UNL     1      -3.984  -6.370  -0.385  0.00  0.00    +0.031 C 
ENDBRANCH  20  31
ENDBRANCH   1  20
TORSDOF 7
