REMARK  Name = ZINC03044272
REMARK  9 active torsions:
REMARK  status: ('A' for Active; 'I' for Inactive)
REMARK    1  A    between atoms: C_1  and  C_2
REMARK    2  A    between atoms: C_2  and  C_3
REMARK    3  A    between atoms: C_8  and  N_9
REMARK    4  A    between atoms: N_9  and  C_10
REMARK    5  A    between atoms: C_10  and  N_12
REMARK    6  A    between atoms: N_12  and  N_13
REMARK    7  A    between atoms: N_21  and  C_24
REMARK    8  A    between atoms: C_24  and  C_25
REMARK    9  A    between atoms: C_29  and  C_31
REMARK                            x       y       z     vdW  Elec       q    Type
REMARK                         _______ _______ _______ _____ _____    ______ ____
ROOT
ATOM      1  N   UNL     1      -0.211   0.185  -4.733  0.00  0.00    -0.175 NA
ATOM      2  C   UNL     1       0.395   0.420  -5.873  0.00  0.00    +0.153 C 
ATOM      3  C   UNL     1       1.773   0.924  -6.075  0.00  0.00    +0.029 A 
ATOM      4  C   UNL     1       2.792   1.286  -5.201  0.00  0.00    +0.027 A 
ATOM      5  C   UNL     1       3.999   1.732  -5.703  0.00  0.00    +0.019 A 
ATOM      6  C   UNL     1       4.191   1.818  -7.072  0.00  0.00    +0.017 A 
ATOM      7  C   UNL     1       3.185   1.462  -7.947  0.00  0.00    +0.025 A 
ATOM      8  C   UNL     1       1.964   1.010  -7.460  0.00  0.00    +0.046 A 
ATOM      9  N   UNL     1       0.806   0.596  -8.109  0.00  0.00    -0.261 N 
ATOM     10  C   UNL     1      -0.146   0.232  -7.233  0.00  0.00    +0.272 C 
ATOM     11  O   UNL     1      -1.258  -0.177  -7.512  0.00  0.00    -0.268 OA
ATOM     12 BR   UNL     1       5.390   2.225  -4.521  0.00  0.00    -0.050 Br
ENDROOT
BRANCH   1  13
ATOM     13  N   UNL     1      -1.525  -0.300  -4.725  0.00  0.00    -0.217 N 
ATOM     14  H   UNL     1      -1.987  -0.463  -5.562  0.00  0.00    +0.176 HD
BRANCH  13  15
ATOM     15  C   UNL     1      -2.148  -0.540  -3.554  0.00  0.00    +0.154 C 
ATOM     16  S   UNL     1      -3.754  -1.134  -3.545  0.00  0.00    -0.017 S 
BRANCH  15  17
ATOM     17  N   UNL     1      -1.506  -0.314  -2.391  0.00  0.00    -0.295 N 
ATOM     18  H   UNL     1      -0.620   0.080  -2.395  0.00  0.00    +0.154 HD
BRANCH  17  24
ATOM     19  C   UNL     1      -1.412  -1.358  -0.215  0.00  0.00    -0.026 A 
ATOM     20  C   UNL     1      -2.017  -1.681   0.984  0.00  0.00    +0.005 A 
ATOM     21  C   UNL     1      -3.325  -1.304   1.223  0.00  0.00    +0.000 A 
ATOM     22  C   UNL     1      -4.033  -0.603   0.264  0.00  0.00    +0.002 A 
ATOM     23  C   UNL     1      -3.434  -0.277  -0.937  0.00  0.00    +0.023 A 
ATOM     24  C   UNL     1      -2.118  -0.648  -1.178  0.00  0.00    +0.036 A 
BRANCH  19  26
ATOM     25  C   UNL     1       0.953  -0.619  -0.105  0.00  0.00    +0.009 C 
ATOM     26  C   UNL     1       0.014  -1.769  -0.475  0.00  0.00    +0.033 C 
ENDBRANCH  19  26
ENDBRANCH  17  24
ENDBRANCH  15  17
ENDBRANCH  13  15
ENDBRANCH   1  13
BRANCH   9  27
ATOM     27  C   UNL     1       0.646   0.555  -9.565  0.00  0.00    +0.149 C 
BRANCH  27  28
ATOM     28  C   UNL     1       1.077  -0.794 -10.080  0.00  0.00    -0.029 A 
ATOM     29  C   UNL     1       2.394  -1.006 -10.445  0.00  0.00    +0.005 A 
ATOM     30  C   UNL     1       2.790  -2.243 -10.918  0.00  0.00    +0.001 A 
ATOM     31  C   UNL     1       1.869  -3.269 -11.024  0.00  0.00    +0.003 A 
ATOM     32  C   UNL     1       0.553  -3.057 -10.659  0.00  0.00    -0.050 A 
ATOM     33  C   UNL     1       0.158  -1.821 -10.182  0.00  0.00    +0.008 A 
ATOM     34  C   UNL     1      -0.451  -4.175 -10.776  0.00  0.00    +0.044 C 
ENDBRANCH  27  28
ENDBRANCH   9  27
TORSDOF 7
