REMARK  Name = ZINC21798125
REMARK  7 active torsions:
REMARK  status: ('A' for Active; 'I' for Inactive)
REMARK    1  A    between atoms: C_1  and  C_2
REMARK    2  A    between atoms: C_2  and  C_4
REMARK    3  A    between atoms: C_2  and  N_11
REMARK    4  A    between atoms: N_11  and  C_12
REMARK    5  A    between atoms: C_12  and  C_13
REMARK    6  A    between atoms: C_16  and  S_19
REMARK    7  A    between atoms: S_19  and  N_22
REMARK                            x       y       z     vdW  Elec       q    Type
REMARK                         _______ _______ _______ _____ _____    ______ ____
ROOT
ATOM      1  C   UNL     1      -0.235  -0.547  -2.346  0.00  0.00    -0.046 C 
ENDROOT
BRANCH   1   2
ATOM      2  C   UNL     1       0.504  -1.036  -3.564  0.00  0.00    -0.064 A 
ATOM      3  C   UNL     1       1.109  -0.130  -4.415  0.00  0.00    +0.003 A 
ATOM      4  C   UNL     1       1.792  -0.578  -5.531  0.00  0.00    +0.029 A 
ATOM      5  C   UNL     1       1.860  -1.932  -5.801  0.00  0.00    +0.105 A 
ATOM      6  C   UNL     1       1.250  -2.838  -4.953  0.00  0.00    +0.029 A 
ATOM      7  C   UNL     1       0.572  -2.390  -3.835  0.00  0.00    +0.003 A 
BRANCH   5   8
ATOM      8  S   UNL     1       2.726  -2.504  -7.225  0.00  0.00    +0.056 S 
ATOM      9  O   UNL     1       3.670  -1.496  -7.558  0.00  0.00    -0.153 OA
ATOM     10  O   UNL     1       3.108  -3.846  -6.957  0.00  0.00    -0.153 OA
BRANCH   8  11
ATOM     11  N   UNL     1       1.636  -2.562  -8.470  0.00  0.00    -0.204 NA
ATOM     12  H   UNL     1       2.139  -2.915  -9.382  0.00  0.00    +0.144 HD
ATOM     13  H   UNL     1       1.225  -1.556  -8.644  0.00  0.00    +0.144 HD
ENDBRANCH   8  11
ENDBRANCH   5   8
ENDBRANCH   1   2
BRANCH   1  14
ATOM     14  N   UNL     1       0.690  -0.478  -1.207  0.00  0.00    +0.386 N 
ATOM     15  H   UNL     1       1.508   0.213  -1.458  0.00  0.00    -0.085 HD
ATOM     16  H   UNL     1       1.101  -1.482  -1.025  0.00  0.00    -0.085 HD
BRANCH  14  18
ATOM     17  C   UNL     1      -0.019   1.526   0.010  0.00  0.00    -0.009 C 
ATOM     18  C   UNL     1       0.002  -0.004   0.002  0.00  0.00    -0.043 C 
BRANCH  18  19
ATOM     19  C   UNL     1       0.731  -0.503   1.223  0.00  0.00    -0.048 A 
ATOM     20  C   UNL     1       2.076  -0.814   1.146  0.00  0.00    +0.003 A 
ATOM     21  C   UNL     1       2.745  -1.271   2.266  0.00  0.00    +0.000 A 
ATOM     22  C   UNL     1       2.069  -1.418   3.463  0.00  0.00    +0.001 A 
ATOM     23  C   UNL     1       0.724  -1.108   3.541  0.00  0.00    +0.015 A 
ATOM     24  C   UNL     1       0.056  -0.646   2.421  0.00  0.00    +0.019 A 
ATOM     25 BR   UNL     1      -1.782  -0.215   2.529  0.00  0.00    -0.050 Br
ENDBRANCH  18  19
ENDBRANCH  14  18
ENDBRANCH   1  14
TORSDOF 6
