REMARK  Name = ZINC01145227
REMARK  11 active torsions:
REMARK  status: ('A' for Active; 'I' for Inactive)
REMARK    1  A    between atoms: C_1  and  C_2
REMARK    2  A    between atoms: C_3  and  N_9
REMARK    3  A    between atoms: N_9  and  C_10
REMARK    4  A    between atoms: N_9  and  S_32
REMARK    5  A    between atoms: C_10  and  C_11
REMARK    6  A    between atoms: N_13  and  C_14
REMARK    7  A    between atoms: C_19  and  C_20
REMARK    8  A    between atoms: N_22  and  C_23
REMARK    9  A    between atoms: C_23  and  C_25
REMARK   10  A    between atoms: C_23  and  C_26
REMARK   11  A    between atoms: S_32  and  C_35
REMARK                            x       y       z     vdW  Elec       q    Type
REMARK                         _______ _______ _______ _____ _____    ______ ____
ROOT
ATOM      1  C   UNL     1      -0.588  -1.377   0.573  0.00  0.00    +0.236 C 
ATOM      2  O   UNL     1      -1.417  -1.073   1.405  0.00  0.00    -0.274 OA
ATOM      3  N   UNL     1       0.009  -2.584   0.626  0.00  0.00    -0.283 N 
ATOM      4  H   UNL     1       0.718  -2.803   0.001  0.00  0.00    +0.155 HD
ENDROOT
BRANCH   3   5
ATOM      5  C   UNL     1      -0.390  -3.518   1.580  0.00  0.00    +0.046 A 
ATOM      6  C   UNL     1      -0.745  -3.103   2.857  0.00  0.00    +0.024 A 
ATOM      7  C   UNL     1      -1.145  -4.029   3.799  0.00  0.00    +0.002 A 
ATOM      8  C   UNL     1      -1.186  -5.377   3.483  0.00  0.00    +0.001 A 
ATOM      9  C   UNL     1      -0.832  -5.808   2.223  0.00  0.00    +0.015 A 
ATOM     10  C   UNL     1      -0.430  -4.882   1.257  0.00  0.00    +0.058 A 
BRANCH  10  11
ATOM     11  C   UNL     1      -0.050  -5.336  -0.094  0.00  0.00    +0.246 C 
ATOM     12  O   UNL     1       0.382  -4.539  -0.904  0.00  0.00    -0.270 OA
ATOM     13  N   UNL     1      -0.182  -6.635  -0.430  0.00  0.00    -0.305 N 
ATOM     14  H   UNL     1      -0.527  -7.271   0.216  0.00  0.00    +0.150 HD
BRANCH  13  15
ATOM     15  C   UNL     1       0.196  -7.086  -1.772  0.00  0.00    +0.100 C 
ATOM     16  C   UNL     1      -0.977  -6.870  -2.731  0.00  0.00    +0.033 C 
BRANCH  15  17
ATOM     17  C   UNL     1       0.547  -8.551  -1.729  0.00  0.00    -0.027 A 
ATOM     18  C   UNL     1      -0.198  -9.418  -0.951  0.00  0.00    +0.005 A 
ATOM     19  C   UNL     1       0.121 -10.762  -0.914  0.00  0.00    +0.000 A 
ATOM     20  C   UNL     1       1.191 -11.239  -1.650  0.00  0.00    +0.000 A 
ATOM     21  C   UNL     1       1.938 -10.371  -2.424  0.00  0.00    +0.000 A 
ATOM     22  C   UNL     1       1.617  -9.027  -2.463  0.00  0.00    +0.005 A 
ENDBRANCH  15  17
ENDBRANCH  13  15
ENDBRANCH  10  11
ENDBRANCH   3   5
BRANCH   1  23
ATOM     23  C   UNL     1      -0.228  -0.406  -0.522  0.00  0.00    +0.227 C 
BRANCH  23  24
ATOM     24  N   UNL     1      -1.009   0.823  -0.361  0.00  0.00    -0.198 N 
BRANCH  24  27
ATOM     25  C   UNL     1      -1.265   1.180  -3.172  0.00  0.00    +0.047 C 
ATOM     26  C   UNL     1      -2.466   1.083  -2.267  0.00  0.00    -0.010 A 
ATOM     27  C   UNL     1      -2.295   0.908  -0.900  0.00  0.00    +0.056 A 
ATOM     28  C   UNL     1      -3.405   0.825  -0.069  0.00  0.00    +0.025 A 
ATOM     29  C   UNL     1      -4.675   0.910  -0.604  0.00  0.00    +0.003 A 
ATOM     30  C   UNL     1      -4.843   1.078  -1.966  0.00  0.00    +0.020 A 
ATOM     31  C   UNL     1      -3.740   1.161  -2.798  0.00  0.00    +0.046 A 
ATOM     32 CL   UNL     1      -3.956   1.372  -4.507  0.00  0.00    -0.083 Cl
ENDBRANCH  24  27
BRANCH  24  33
ATOM     33  S   UNL     1      -0.365   2.113   0.454  0.00  0.00    +0.043 S 
ATOM     34  O   UNL     1      -1.488   2.892   0.845  0.00  0.00    -0.155 OA
ATOM     35  O   UNL     1       0.489   1.534   1.431  0.00  0.00    -0.155 OA
ATOM     36  C   UNL     1       0.614   3.005  -0.784  0.00  0.00    +0.218 C 
ENDBRANCH  24  33
ENDBRANCH  23  24
ENDBRANCH   1  23
TORSDOF 8
