REMARK  Name = ZINC09383449
REMARK  11 active torsions:
REMARK  status: ('A' for Active; 'I' for Inactive)
REMARK    1  A    between atoms: C_1  and  C_2
REMARK    2  A    between atoms: C_2  and  C_3
REMARK    3  A    between atoms: N_9  and  S_10
REMARK    4  A    between atoms: S_10  and  C_13
REMARK    5  A    between atoms: C_16  and  C_19
REMARK    6  A    between atoms: N_21  and  C_22
REMARK    7  A    between atoms: C_23  and  C_31
REMARK    8  A    between atoms: C_30  and  N_68
REMARK    9  A    between atoms: C_31  and  O_33
REMARK   10  A    between atoms: O_33  and  C_34
REMARK   11  A    between atoms: C_34  and  C_35
REMARK                            x       y       z     vdW  Elec       q    Type
REMARK                         _______ _______ _______ _____ _____    ______ ____
ROOT
ATOM      1  C   UNL     1       8.727   2.486  -0.628  0.00  0.00    +0.249 C 
ATOM      2  O   UNL     1       9.011   3.449  -1.313  0.00  0.00    -0.270 OA
ATOM      3  N   UNL     1       9.613   1.482  -0.476  0.00  0.00    -0.275 N 
ATOM      4  H   UNL     1       9.387   0.714   0.071  0.00  0.00    +0.156 HD
ENDROOT
BRANCH   3   5
ATOM      5  C   UNL     1      10.848   1.548  -1.101  0.00  0.00    +0.086 A 
ATOM      6  C   UNL     1      11.884   0.622  -1.064  0.00  0.00    +0.091 A 
ATOM      7  C   UNL     1      13.085   0.935  -1.816  0.00  0.00    -0.025 A 
ATOM      8  C   UNL     1      13.063   2.114  -2.478  0.00  0.00    -0.021 A 
ATOM      9  S   UNL     1      11.472   2.800  -2.123  0.00  0.00    -0.079 S 
ATOM     10  C   UNL     1      14.161   2.680  -3.322  0.00  0.00    -0.036 C 
ATOM     11  C   UNL     1      15.155   0.482  -3.094  0.00  0.00    -0.074 C 
ATOM     12  C   UNL     1      14.316   0.038  -1.893  0.00  0.00    +0.018 C 
ATOM     13  C   UNL     1      16.478   2.323  -3.948  0.00  0.00    -0.096 C 
ATOM     14  N   UNL     1      15.405   1.936  -3.007  0.00  0.00    +0.381 N 
ATOM     15  H   UNL     1      15.700   2.167  -2.051  0.00  0.00    -0.082 HD
BRANCH   6  16
ATOM     16  C   UNL     1      11.768  -0.620  -0.298  0.00  0.00    +0.342 C 
ATOM     17  O   UNL     1      11.318  -1.620  -0.825  0.00  0.00    -0.245 OA
BRANCH  16  18
ATOM     18  O   UNL     1      12.161  -0.656   0.992  0.00  0.00    -0.461 OA
BRANCH  18  19
ATOM     19  C   UNL     1      12.017  -1.921   1.690  0.00  0.00    +0.229 C 
ATOM     20  C   UNL     1      12.510  -1.768   3.130  0.00  0.00    +0.048 C 
ENDBRANCH  18  19
ENDBRANCH  16  18
ENDBRANCH   6  16
ENDBRANCH   3   5
BRANCH   1  24
ATOM     21  C   UNL     1       4.941   2.284   1.286  0.00  0.00    +0.106 A 
ATOM     22  C   UNL     1       5.851   1.254   1.449  0.00  0.00    +0.029 A 
ATOM     23  C   UNL     1       7.080   1.311   0.826  0.00  0.00    +0.015 A 
ATOM     24  C   UNL     1       7.410   2.416   0.038  0.00  0.00    +0.037 A 
ATOM     25  C   UNL     1       6.489   3.454  -0.117  0.00  0.00    +0.015 A 
ATOM     26  C   UNL     1       5.261   3.382   0.508  0.00  0.00    +0.029 A 
BRANCH  21  27
ATOM     27  S   UNL     1       3.370   2.200   2.080  0.00  0.00    +0.061 S 
ATOM     28  O   UNL     1       2.840   3.518   2.072  0.00  0.00    -0.153 OA
ATOM     29  O   UNL     1       3.561   1.463   3.280  0.00  0.00    -0.153 OA
BRANCH  27  35
ATOM     30  C   UNL     1       1.706   1.885  -0.043  0.00  0.00    +0.080 C 
ATOM     31  C   UNL     1       0.204   1.601   0.062  0.00  0.00    +0.021 C 
ATOM     32  C   UNL     1      -0.017   0.093   0.209  0.00  0.00    +0.003 C 
ATOM     33  C   UNL     1       0.658  -0.400   1.490  0.00  0.00    +0.017 C 
ATOM     34  C   UNL     1       2.165  -0.139   1.402  0.00  0.00    +0.110 C 
ATOM     35  N   UNL     1       2.382   1.286   1.116  0.00  0.00    -0.174 NA
BRANCH  30  37
ATOM     36  C   UNL     1       1.417   3.988  -1.360  0.00  0.00    +0.005 C 
ATOM     37  C   UNL     1       1.942   3.396  -0.051  0.00  0.00    +0.017 C 
ENDBRANCH  30  37
ENDBRANCH  27  35
ENDBRANCH  21  27
ENDBRANCH   1  24
TORSDOF 8
