REMARK  Name = ZINC22679605
REMARK  12 active torsions:
REMARK  status: ('A' for Active; 'I' for Inactive)
REMARK    1  A    between atoms: C_1  and  C_2
REMARK    2  A    between atoms: C_6  and  N_8
REMARK    3  A    between atoms: C_9  and  C_11
REMARK    4  A    between atoms: C_11  and  S_12
REMARK    5  A    between atoms: S_12  and  C_13
REMARK    6  A    between atoms: C_13  and  C_14
REMARK    7  A    between atoms: N_16  and  C_17
REMARK    8  A    between atoms: C_17  and  C_18
REMARK    9  A    between atoms: C_18  and  C_20
REMARK   10  A    between atoms: C_18  and  N_28
REMARK   11  A    between atoms: C_25  and  O_26
REMARK   12  A    between atoms: O_26  and  C_27
REMARK                            x       y       z     vdW  Elec       q    Type
REMARK                         _______ _______ _______ _____ _____    ______ ____
ROOT
ATOM      1  C   UNL     1       4.058  10.510   0.301  0.00  0.00    +0.223 C 
ATOM      2  O   UNL     1       5.088   9.911   0.078  0.00  0.00    -0.275 OA
ATOM      3  N   UNL     1       4.090  11.830   0.571  0.00  0.00    -0.316 N 
ATOM      4  H   UNL     1       3.156  12.374   0.774  0.00  0.00    +0.149 HD
ENDROOT
BRANCH   1   5
ATOM      5  C   UNL     1       2.741   9.778   0.277  0.00  0.00    +0.165 C 
BRANCH   5   6
ATOM      6  S   UNL     1       3.027   8.030  -0.113  0.00  0.00    -0.142 S 
BRANCH   6   7
ATOM      7  C   UNL     1       1.367   7.301  -0.104  0.00  0.00    +0.165 C 
BRANCH   7   9
ATOM      8  N   UNL     1       0.346   5.077  -0.466  0.00  0.00    -0.285 N 
ATOM      9  C   UNL     1       1.462   5.830  -0.418  0.00  0.00    +0.227 C 
ATOM     10  O   UNL     1       2.545   5.324  -0.627  0.00  0.00    -0.275 OA
ATOM     11  H   UNL     1      -0.642   5.550  -0.359  0.00  0.00    +0.155 HD
BRANCH   8  17
ATOM     12  C   UNL     1      -1.494   0.920  -2.340  0.00  0.00    +0.044 C 
ATOM     13  C   UNL     1      -0.436   1.653  -1.556  0.00  0.00    -0.049 A 
ATOM     14  C   UNL     1       0.633   0.958  -1.020  0.00  0.00    +0.003 A 
ATOM     15  C   UNL     1       1.609   1.627  -0.306  0.00  0.00    +0.002 A 
ATOM     16  C   UNL     1       1.516   2.993  -0.120  0.00  0.00    +0.023 A 
ATOM     17  C   UNL     1       0.442   3.693  -0.652  0.00  0.00    +0.034 A 
ATOM     18  C   UNL     1      -0.537   3.018  -1.369  0.00  0.00    +0.026 A 
ENDBRANCH   8  17
ENDBRANCH   7   9
ENDBRANCH   6   7
ENDBRANCH   5   6
ENDBRANCH   1   5
BRANCH   3  19
ATOM     19  C   UNL     1       5.371  12.542   0.595  0.00  0.00    +0.093 C 
BRANCH  19  20
ATOM     20  C   UNL     1       5.143  13.988   1.040  0.00  0.00    -0.017 C 
BRANCH  20  21
ATOM     21  C   UNL     1       6.443  14.747   0.967  0.00  0.00    -0.018 A 
ATOM     22  C   UNL     1       6.757  15.472  -0.167  0.00  0.00    +0.005 A 
ATOM     23  C   UNL     1       7.947  16.172  -0.233  0.00  0.00    +0.000 A 
ATOM     24  C   UNL     1       8.830  16.141   0.831  0.00  0.00    +0.004 A 
ATOM     25  C   UNL     1       8.523  15.413   1.964  0.00  0.00    +0.046 A 
ATOM     26  C   UNL     1       7.327  14.714   2.035  0.00  0.00    +0.122 A 
BRANCH  26  27
ATOM     27  O   UNL     1       7.022  13.998   3.149  0.00  0.00    -0.495 OA
ATOM     28  C   UNL     1       7.980  14.009   4.210  0.00  0.00    +0.277 C 
ENDBRANCH  26  27
ENDBRANCH  20  21
BRANCH  20  29
ATOM     29  N   UNL     1       4.155  14.622   0.157  0.00  0.00    +0.385 N 
ATOM     30  C   UNL     1       4.199  16.101   0.285  0.00  0.00    -0.078 C 
ATOM     31  C   UNL     1       3.530  16.590  -1.024  0.00  0.00    -0.020 C 
ATOM     32  C   UNL     1       4.040  15.575  -2.073  0.00  0.00    -0.020 C 
ATOM     33  C   UNL     1       4.449  14.331  -1.263  0.00  0.00    -0.078 C 
ATOM     34  H   UNL     1       3.179  14.214   0.458  0.00  0.00    -0.081 HD
ENDBRANCH  20  29
ENDBRANCH  19  20
ENDBRANCH   3  19
TORSDOF 10
