REMARK  Name = ZINC36039582
REMARK  7 active torsions:
REMARK  status: ('A' for Active; 'I' for Inactive)
REMARK    1  A    between atoms: C_2  and  C_3
REMARK    2  A    between atoms: C_3  and  N_4
REMARK    3  A    between atoms: N_4  and  C_5
REMARK    4  A    between atoms: C_5  and  C_6
REMARK    5  A    between atoms: C_6  and  N_8
REMARK    6  A    between atoms: C_11  and  C_22
REMARK    7  A    between atoms: N_13  and  C_14
REMARK                            x       y       z     vdW  Elec       q    Type
REMARK                         _______ _______ _______ _____ _____    ______ ____
ROOT
ATOM      1  N   UNL     1      -3.658  -4.191  -2.483  0.00  0.00    -0.148 NA
ATOM      2  C   UNL     1      -3.680  -5.033  -3.517  0.00  0.00    +0.205 A 
ATOM      3  N   UNL     1      -2.697  -5.189  -4.440  0.00  0.00    -0.326 N 
ATOM      4  C   UNL     1      -3.112  -6.159  -5.344  0.00  0.00    +0.066 A 
ATOM      5  C   UNL     1      -4.332  -6.580  -4.967  0.00  0.00    +0.120 A 
ATOM      6  N   UNL     1      -4.690  -5.889  -3.828  0.00  0.00    -0.287 N 
ATOM      7  H   UNL     1      -1.854  -4.709  -4.464  0.00  0.00    +0.169 HD
ENDROOT
BRANCH   6   8
ATOM      8  C   UNL     1      -5.888  -6.040  -3.117  0.00  0.00    +0.051 A 
ATOM      9  C   UNL     1      -6.128  -5.271  -1.986  0.00  0.00    +0.029 A 
ATOM     10  C   UNL     1      -7.309  -5.421  -1.287  0.00  0.00    +0.042 A 
ATOM     11  C   UNL     1      -8.255  -6.338  -1.712  0.00  0.00    +0.142 A 
ATOM     12  C   UNL     1      -8.019  -7.107  -2.840  0.00  0.00    +0.078 A 
ATOM     13  C   UNL     1      -6.840  -6.955  -3.546  0.00  0.00    +0.049 A 
ATOM     14 CL   UNL     1      -9.206  -8.257  -3.371  0.00  0.00    -0.081 Cl
ATOM     15  F   UNL     1      -9.410  -6.483  -1.026  0.00  0.00    -0.204 F 
ENDBRANCH   6   8
BRANCH   4  16
ATOM     16  C   UNL     1      -2.347  -6.642  -6.515  0.00  0.00    -0.000 A 
ATOM     17  C   UNL     1      -2.887  -7.621  -7.349  0.00  0.00    +0.010 A 
ATOM     18  C   UNL     1      -2.169  -8.067  -8.440  0.00  0.00    +0.001 A 
ATOM     19  C   UNL     1      -0.916  -7.546  -8.707  0.00  0.00    +0.000 A 
ATOM     20  C   UNL     1      -0.374  -6.575  -7.883  0.00  0.00    +0.001 A 
ATOM     21  C   UNL     1      -1.085  -6.116  -6.793  0.00  0.00    +0.010 A 
ENDBRANCH   4  16
BRANCH   1  22
ATOM     22  C   UNL     1      -2.605  -3.405  -2.290  0.00  0.00    +0.222 C 
ATOM     23  O   UNL     1      -1.662  -3.452  -3.057  0.00  0.00    -0.276 OA
BRANCH  22  24
ATOM     24  C   UNL     1      -2.580  -2.454  -1.121  0.00  0.00    +0.017 C 
BRANCH  24  25
ATOM     25  N   UNL     1      -1.318  -1.702  -1.129  0.00  0.00    +0.387 N 
ATOM     26  H   UNL     1      -1.243  -1.180  -1.989  0.00  0.00    -0.085 HD
ATOM     27  H   UNL     1      -0.543  -2.345  -1.057  0.00  0.00    -0.085 HD
BRANCH  25  28
ATOM     28  C   UNL     1      -1.293  -0.775   0.010  0.00  0.00    -0.055 C 
BRANCH  28  30
ATOM     29  C   UNL     1      -0.016   1.306   0.009  0.00  0.00    +0.002 C 
ATOM     30  C   UNL     1       0.002  -0.004   0.002  0.00  0.00    -0.054 C 
ENDBRANCH  28  30
ENDBRANCH  25  28
ENDBRANCH  24  25
ENDBRANCH  22  24
ENDBRANCH   1  22
TORSDOF 7
