REMARK  Name = ZINC32914598
REMARK  12 active torsions:
REMARK  status: ('A' for Active; 'I' for Inactive)
REMARK    1  A    between atoms: C_1  and  C_2
REMARK    2  A    between atoms: C_2  and  C_3
REMARK    3  A    between atoms: N_5  and  C_6
REMARK    4  A    between atoms: C_9  and  C_12
REMARK    5  A    between atoms: C_12  and  C_14
REMARK    6  A    between atoms: C_12  and  N_15
REMARK    7  A    between atoms: C_16  and  C_18
REMARK    8  A    between atoms: C_20  and  N_25
REMARK    9  A    between atoms: C_23  and  O_24
REMARK   10  A    between atoms: N_25  and  S_26
REMARK   11  A    between atoms: S_26  and  C_29
REMARK   12  A    between atoms: C_33  and  N_35
REMARK                            x       y       z     vdW  Elec       q    Type
REMARK                         _______ _______ _______ _____ _____    ______ ____
ROOT
ATOM      1  C   UNL     1      -2.510   6.599  -3.920  0.00  0.00    +0.080 A 
ATOM      2  C   UNL     1      -1.581   7.040  -2.974  0.00  0.00    +0.041 A 
ATOM      3  C   UNL     1      -1.278   6.243  -1.883  0.00  0.00    +0.049 A 
ATOM      4  C   UNL     1      -1.893   5.004  -1.731  0.00  0.00    +0.028 A 
ATOM      5  C   UNL     1      -2.816   4.566  -2.659  0.00  0.00    +0.048 A 
ATOM      6  C   UNL     1      -3.128   5.353  -3.757  0.00  0.00    +0.129 A 
ENDROOT
BRANCH   1   8
ATOM      7  N   UNL     1      -2.240   8.642  -5.239  0.00  0.00    -0.305 N 
ATOM      8  C   UNL     1      -2.837   7.443  -5.085  0.00  0.00    +0.248 C 
ATOM      9  O   UNL     1      -3.646   7.057  -5.907  0.00  0.00    -0.270 OA
ATOM     10  H   UNL     1      -1.508   8.991  -4.495  0.00  0.00    +0.150 HD
BRANCH   7  11
ATOM     11  C   UNL     1      -2.566   9.479  -6.396  0.00  0.00    +0.100 C 
ATOM     12  C   UNL     1      -3.817  10.306  -6.091  0.00  0.00    +0.033 C 
BRANCH  11  16
ATOM     13  C   UNL     1       0.706  12.101  -7.223  0.00  0.00    +0.033 A 
ATOM     14  C   UNL     1       0.014  11.502  -8.267  0.00  0.00    +0.023 A 
ATOM     15  C   UNL     1      -1.043  10.655  -7.996  0.00  0.00    +0.007 A 
ATOM     16  C   UNL     1      -1.412  10.403  -6.687  0.00  0.00    -0.027 A 
ATOM     17  C   UNL     1      -0.728  11.003  -5.646  0.00  0.00    +0.007 A 
ATOM     18  C   UNL     1       0.334  11.846  -5.910  0.00  0.00    +0.023 A 
BRANCH  13  21
ATOM     19  C   UNL     1       1.760  13.731  -8.599  0.00  0.00    +0.217 C 
ATOM     20  O   UNL     1       0.777  13.751  -9.309  0.00  0.00    -0.275 OA
ATOM     21  N   UNL     1       1.777  12.960  -7.494  0.00  0.00    -0.286 N 
ATOM     22  H   UNL     1       2.633  13.006  -6.804  0.00  0.00    +0.155 HD
BRANCH  19  24
ATOM     23  C   UNL     1       2.683  15.341 -10.243  0.00  0.00    +0.013 C 
ATOM     24  C   UNL     1       2.962  14.568  -8.953  0.00  0.00    +0.093 C 
ENDBRANCH  19  24
ENDBRANCH  13  21
ENDBRANCH  11  16
ENDBRANCH   7  11
ENDBRANCH   1   8
BRANCH   6  25
ATOM     25  O   UNL     1      -4.033   4.918  -4.671  0.00  0.00    -0.506 OA
ATOM     26  H   UNL     1      -4.518   3.939  -4.542  0.00  0.00    +0.292 HD
ENDBRANCH   6  25
BRANCH   3  27
ATOM     27  N   UNL     1      -0.348   6.682  -0.934  0.00  0.00    -0.216 N 
ATOM     28  H   UNL     1       0.658   6.237  -0.904  0.00  0.00    +0.174 HD
BRANCH  27  29
ATOM     29  S   UNL     1      -0.761   7.871   0.142  0.00  0.00    +0.072 S 
ATOM     30  O   UNL     1      -1.291   8.945  -0.623  0.00  0.00    -0.150 OA
ATOM     31  O   UNL     1       0.349   8.032   1.014  0.00  0.00    -0.150 OA
BRANCH  29  32
ATOM     32  C   UNL     1      -2.086   7.249   1.123  0.00  0.00    +0.111 A 
ATOM     33  C   UNL     1      -1.817   6.470   2.233  0.00  0.00    +0.029 A 
ATOM     34  C   UNL     1      -2.856   5.983   3.003  0.00  0.00    +0.004 A 
ATOM     35  C   UNL     1      -4.164   6.273   2.662  0.00  0.00    +0.033 A 
ATOM     36  C   UNL     1      -4.433   7.047   1.549  0.00  0.00    +0.128 A 
ATOM     37  C   UNL     1      -3.393   7.539   0.782  0.00  0.00    +0.061 A 
BRANCH  36  38
ATOM     38  N   UNL     1      -5.833   7.353   1.180  0.00  0.00    +0.056 N 
ATOM     39  O   UNL     1      -6.749   6.923   1.859  0.00  0.00    -0.126 OA
ATOM     40  O   UNL     1      -6.070   8.034   0.199  0.00  0.00    -0.126 OA
ENDBRANCH  36  38
ENDBRANCH  29  32
ENDBRANCH  27  29
ENDBRANCH   3  27
TORSDOF 10
