REMARK  Name = ZINC39858516
REMARK  12 active torsions:
REMARK  status: ('A' for Active; 'I' for Inactive)
REMARK    1  A    between atoms: C_1  and  C_2
REMARK    2  A    between atoms: C_2  and  C_3
REMARK    3  A    between atoms: C_2  and  C_4
REMARK    4  A    between atoms: C_2  and  C_5
REMARK    5  A    between atoms: C_8  and  O_11
REMARK    6  A    between atoms: O_11  and  C_12
REMARK    7  A    between atoms: C_13  and  C_23
REMARK    8  A    between atoms: C_24  and  C_25
REMARK    9  A    between atoms: C_24  and  C_27
REMARK   10  A    between atoms: N_29  and  C_30
REMARK   11  A    between atoms: C_34  and  O_36
REMARK   12  A    between atoms: O_36  and  C_37
REMARK                            x       y       z     vdW  Elec       q    Type
REMARK                         _______ _______ _______ _____ _____    ______ ____
ROOT
ATOM      1  C   UNL     1       5.708  -0.395  -6.782  0.00  0.00    +0.235 A 
ATOM      2  C   UNL     1       5.710  -1.329  -7.847  0.00  0.00    +0.103 A 
ATOM      3  C   UNL     1       6.832  -1.354  -8.717  0.00  0.00    +0.269 A 
ATOM      4  O   UNL     1       6.878  -2.140  -9.646  0.00  0.00    -0.266 OA
ATOM      5  N   UNL     1       7.847  -0.491  -8.495  0.00  0.00    -0.268 N 
ATOM      6  C   UNL     1       8.928  -0.507  -9.325  0.00  0.00    +0.096 A 
ATOM      7  C   UNL     1       9.962   0.343  -9.131  0.00  0.00    +0.018 A 
ATOM      8  C   UNL     1       9.931   1.255  -8.069  0.00  0.00    +0.005 A 
ATOM      9  C   UNL     1       8.853   1.279  -7.234  0.00  0.00    +0.047 A 
ATOM     10  C   UNL     1       7.788   0.388  -7.451  0.00  0.00    +0.144 A 
ATOM     11  N   UNL     1       6.735   0.423  -6.631  0.00  0.00    -0.194 NA
ENDROOT
BRANCH   2  12
ATOM     12  C   UNL     1       4.629  -2.209  -8.037  0.00  0.00    +0.042 C 
ATOM     13  C   UNL     1       4.788  -3.566  -7.792  0.00  0.00    +0.114 C 
BRANCH  13  14
ATOM     14  C   UNL     1       6.028  -4.062  -7.187  0.00  0.00    +0.259 C 
ATOM     15  O   UNL     1       6.860  -3.276  -6.774  0.00  0.00    -0.269 OA
ATOM     16  N   UNL     1       6.246  -5.388  -7.088  0.00  0.00    -0.281 N 
ATOM     17  H   UNL     1       5.613  -6.014  -7.474  0.00  0.00    +0.155 HD
BRANCH  16  18
ATOM     18  C   UNL     1       7.385  -5.862  -6.429  0.00  0.00    +0.037 A 
ATOM     19  C   UNL     1       7.886  -5.179  -5.328  0.00  0.00    +0.023 A 
ATOM     20  C   UNL     1       9.011  -5.647  -4.677  0.00  0.00    +0.005 A 
ATOM     21  C   UNL     1       9.640  -6.796  -5.118  0.00  0.00    +0.046 A 
ATOM     22  C   UNL     1       9.144  -7.482  -6.218  0.00  0.00    +0.122 A 
ATOM     23  C   UNL     1       8.012  -7.019  -6.870  0.00  0.00    +0.069 A 
BRANCH  22  24
ATOM     24  O   UNL     1       9.764  -8.611  -6.651  0.00  0.00    -0.495 OA
ATOM     25  C   UNL     1      10.921  -9.034  -5.928  0.00  0.00    +0.277 C 
ENDBRANCH  22  24
ENDBRANCH  16  18
ENDBRANCH  13  14
BRANCH  13  26
ATOM     26  C   UNL     1       3.740  -4.481  -8.131  0.00  0.00    +0.104 C 
ATOM     27  N   UNL     1       2.909  -5.208  -8.400  0.00  0.00    -0.191 NA
ENDBRANCH  13  26
ENDBRANCH   2  12
BRANCH   1  28
ATOM     28  O   UNL     1       4.660  -0.336  -5.931  0.00  0.00    -0.437 OA
BRANCH  28  32
ATOM     29  C   UNL     1       4.643   2.648  -3.082  0.00  0.00    -0.042 A 
ATOM     30  C   UNL     1       4.474   2.967  -4.416  0.00  0.00    +0.008 A 
ATOM     31  C   UNL     1       4.479   1.970  -5.372  0.00  0.00    +0.046 A 
ATOM     32  C   UNL     1       4.655   0.647  -4.992  0.00  0.00    +0.130 A 
ATOM     33  C   UNL     1       4.825   0.329  -3.652  0.00  0.00    +0.046 A 
ATOM     34  C   UNL     1       4.824   1.331  -2.701  0.00  0.00    +0.008 A 
BRANCH  29  36
ATOM     35  C   UNL     1       5.977   3.746  -1.303  0.00  0.00    +0.015 C 
ATOM     36  C   UNL     1       4.637   3.738  -2.041  0.00  0.00    -0.013 C 
ATOM     37  C   UNL     1       3.506   3.483  -1.042  0.00  0.00    +0.015 C 
ATOM     38  C   UNL     1       4.421   5.091  -2.721  0.00  0.00    +0.015 C 
ENDBRANCH  29  36
ENDBRANCH  28  32
ENDBRANCH   1  28
TORSDOF 8
