REMARK  Name = ZINC45253553
REMARK  10 active torsions:
REMARK  status: ('A' for Active; 'I' for Inactive)
REMARK    1  A    between atoms: C_1  and  C_2
REMARK    2  A    between atoms: C_2  and  O_3
REMARK    3  A    between atoms: O_3  and  C_4
REMARK    4  A    between atoms: C_7  and  N_10
REMARK    5  A    between atoms: N_10  and  C_11
REMARK    6  A    between atoms: C_12  and  C_31
REMARK    7  A    between atoms: C_13  and  N_22
REMARK    8  A    between atoms: C_14  and  C_20
REMARK    9  A    between atoms: N_22  and  C_23
REMARK   10  A    between atoms: C_23  and  C_24
REMARK                            x       y       z     vdW  Elec       q    Type
REMARK                         _______ _______ _______ _____ _____    ______ ____
ROOT
ATOM      1  C   UNL     1       1.853  -6.400   2.844  0.00  0.00    +0.130 A 
ATOM      2  C   UNL     1       2.065  -7.734   2.998  0.00  0.00    +0.012 A 
ATOM      3  C   UNL     1       2.784  -8.231   4.091  0.00  0.00    +0.053 A 
ATOM      4  C   UNL     1       3.291  -7.329   5.040  0.00  0.00    +0.098 A 
ATOM      5  C   UNL     1       3.042  -5.899   4.840  0.00  0.00    +0.088 A 
ATOM      6  N   UNL     1       2.334  -5.485   3.743  0.00  0.00    -0.217 N 
ATOM      7  N   UNL     1       2.254  -4.087   3.800  0.00  0.00    -0.173 NA
ATOM      8  C   UNL     1       2.884  -3.669   4.872  0.00  0.00    +0.135 A 
ATOM      9  C   UNL     1       3.386  -4.770   5.558  0.00  0.00    +0.050 A 
ATOM     10  C   UNL     1       1.517  -8.694   1.974  0.00  0.00    +0.049 C 
ENDROOT
BRANCH   1  11
ATOM     11  N   UNL     1       1.139  -5.956   1.752  0.00  0.00    -0.299 N 
ATOM     12  H   UNL     1       1.446  -6.161   0.855  0.00  0.00    +0.154 HD
BRANCH  11  16
ATOM     13  C   UNL     1      -2.344  -3.732   2.302  0.00  0.00    +0.121 A 
ATOM     14  C   UNL     1      -1.823  -3.900   1.027  0.00  0.00    +0.047 A 
ATOM     15  C   UNL     1      -0.670  -4.636   0.844  0.00  0.00    +0.027 A 
ATOM     16  C   UNL     1      -0.031  -5.209   1.936  0.00  0.00    +0.033 A 
ATOM     17  C   UNL     1      -0.553  -5.040   3.212  0.00  0.00    +0.027 A 
ATOM     18  C   UNL     1      -1.703  -4.298   3.394  0.00  0.00    +0.047 A 
BRANCH  13  19
ATOM     19  O   UNL     1      -3.480  -3.006   2.481  0.00  0.00    -0.492 OA
BRANCH  19  21
ATOM     20  C   UNL     1      -5.344  -1.675   1.710  0.00  0.00    +0.048 C 
ATOM     21  C   UNL     1      -4.087  -2.452   1.313  0.00  0.00    +0.225 C 
ENDBRANCH  19  21
ENDBRANCH  13  19
ENDBRANCH  11  16
ENDBRANCH   1  11
BRANCH   4  22
ATOM     22  C   UNL     1       4.032  -7.795   6.174  0.00  0.00    +0.103 C 
ATOM     23  N   UNL     1       4.619  -8.164   7.074  0.00  0.00    -0.191 NA
ENDBRANCH   4  22
BRANCH   3  24
ATOM     24  N   UNL     1       2.992  -9.593   4.234  0.00  0.00    -0.344 N 
ATOM     25  H   UNL     1       2.638 -10.210   3.575  0.00  0.00    +0.146 HD
BRANCH  24  26
ATOM     26  C   UNL     1       3.745 -10.102   5.383  0.00  0.00    +0.086 C 
BRANCH  26  27
ATOM     27  C   UNL     1       3.829 -11.627   5.303  0.00  0.00    -0.055 C 
ATOM     28  C   UNL     1       4.719 -12.149   6.433  0.00  0.00    -0.014 C 
ATOM     29  C   UNL     1       4.800 -13.676   6.348  0.00  0.00    -0.003 C 
ATOM     30  C   UNL     1       5.324 -14.074   4.966  0.00  0.00    -0.019 C 
ATOM     31  C   UNL     1       4.412 -13.481   3.890  0.00  0.00    -0.082 C 
ATOM     32  N   UNL     1       4.399 -12.018   4.007  0.00  0.00    +0.382 N 
ATOM     33  H   UNL     1       3.839 -11.627   3.264  0.00  0.00    -0.085 HD
ATOM     34  H   UNL     1       5.342 -11.667   3.936  0.00  0.00    -0.085 HD
ENDBRANCH  26  27
ENDBRANCH  24  26
ENDBRANCH   3  24
TORSDOF 8
