REMARK  Name = ZINC36309242
REMARK  15 active torsions:
REMARK  status: ('A' for Active; 'I' for Inactive)
REMARK    1  A    between atoms: C_1  and  C_2
REMARK    2  A    between atoms: C_2  and  C_3
REMARK    3  A    between atoms: C_3  and  N_4
REMARK    4  A    between atoms: N_4  and  C_5
REMARK    5  A    between atoms: N_4  and  C_10
REMARK    6  A    between atoms: C_5  and  C_6
REMARK    7  A    between atoms: C_6  and  C_8
REMARK    8  A    between atoms: C_6  and  O_9
REMARK    9  A    between atoms: C_10  and  C_11
REMARK   10  A    between atoms: C_21  and  C_23
REMARK   11  A    between atoms: C_23  and  O_24
REMARK   12  A    between atoms: O_24  and  C_25
REMARK   13  A    between atoms: C_28  and  C_31
REMARK   14  A    between atoms: C_31  and  C_32
REMARK   15  A    between atoms: C_31  and  C_33
REMARK                            x       y       z     vdW  Elec       q    Type
REMARK                         _______ _______ _______ _____ _____    ______ ____
ROOT
ATOM      1  C   UNL     1       3.148  -1.960  -1.992  0.00  0.00    +0.200 C 
ATOM      2  O   UNL     1       3.358  -1.215  -1.058  0.00  0.00    -0.278 OA
ATOM      3  N   UNL     1       4.158  -2.313  -2.812  0.00  0.00    -0.292 N 
ATOM      4  C   UNL     1       3.914  -3.211  -3.951  0.00  0.00    +0.113 C 
ATOM      5  C   UNL     1       4.177  -2.428  -5.247  0.00  0.00    +0.061 C 
ATOM      6  C   UNL     1       5.425  -1.624  -5.076  0.00  0.00    -0.004 A 
ATOM      7  C   UNL     1       6.065  -1.309  -3.917  0.00  0.00    -0.014 A 
ATOM      8  C   UNL     1       7.216  -0.532  -4.029  0.00  0.00    +0.013 A 
ATOM      9  C   UNL     1       7.649  -0.135  -5.248  0.00  0.00    +0.046 A 
ATOM     10  S   UNL     1       6.420  -0.856  -6.326  0.00  0.00    -0.101 S 
ATOM     11  C   UNL     1       5.516  -1.802  -2.584  0.00  0.00    +0.144 C 
ENDROOT
BRANCH   1  12
ATOM     12  C   UNL     1       1.759  -2.490  -2.235  0.00  0.00    +0.019 C 
BRANCH  12  13
ATOM     13  N   UNL     1       0.847  -1.962  -1.212  0.00  0.00    +0.387 N 
ATOM     14  H   UNL     1       1.206  -2.182  -0.295  0.00  0.00    -0.081 HD
BRANCH  13  15
ATOM     15  C   UNL     1       0.738  -0.505  -1.359  0.00  0.00    -0.078 C 
BRANCH  15  17
ATOM     16  C   UNL     1      -0.095   1.591  -0.284  0.00  0.00    +0.002 C 
ATOM     17  C   UNL     1      -0.092   0.063  -0.206  0.00  0.00    -0.022 C 
ENDBRANCH  15  17
ENDBRANCH  13  15
BRANCH  13  18
ATOM     18  C   UNL     1      -0.480  -2.572  -1.377  0.00  0.00    -0.047 C 
BRANCH  18  19
ATOM     19  C   UNL     1      -0.393  -4.070  -1.078  0.00  0.00    +0.095 C 
ATOM     20  C   UNL     1      -1.774  -4.705  -1.255  0.00  0.00    +0.035 C 
BRANCH  19  21
ATOM     21  O   UNL     1       0.052  -4.263   0.266  0.00  0.00    -0.394 OA
ATOM     22  H   UNL     1       0.204  -5.188   0.501  0.00  0.00    +0.210 HD
ENDBRANCH  19  21
ENDBRANCH  18  19
ENDBRANCH  13  18
ENDBRANCH  12  13
ENDBRANCH   1  12
BRANCH  11  23
ATOM     23  C   UNL     1       6.408  -2.922  -2.044  0.00  0.00    +0.256 C 
BRANCH  23  24
ATOM     24  O   UNL     1       6.552  -3.938  -3.039  0.00  0.00    -0.490 OA
BRANCH  24  25
ATOM     25  C   UNL     1       7.319  -5.012  -2.718  0.00  0.00    +0.121 A 
ATOM     26  C   UNL     1       7.916  -5.091  -1.468  0.00  0.00    +0.046 A 
ATOM     27  C   UNL     1       8.695  -6.184  -1.144  0.00  0.00    +0.007 A 
ATOM     28  C   UNL     1       8.881  -7.200  -2.063  0.00  0.00    -0.045 A 
ATOM     29  C   UNL     1       8.287  -7.124  -3.310  0.00  0.00    +0.007 A 
ATOM     30  C   UNL     1       7.502  -6.035  -3.637  0.00  0.00    +0.046 A 
BRANCH  28  31
ATOM     31  C   UNL     1       9.732  -8.392  -1.707  0.00  0.00    +0.013 C 
ATOM     32  C   UNL     1       8.888  -9.665  -1.793  0.00  0.00    +0.012 C 
ATOM     33  C   UNL     1      10.905  -8.491  -2.683  0.00  0.00    +0.012 C 
ENDBRANCH  28  31
ENDBRANCH  24  25
ENDBRANCH  23  24
ENDBRANCH  11  23
TORSDOF 11
