REMARK  Name = ZINC36695841
REMARK  12 active torsions:
REMARK  status: ('A' for Active; 'I' for Inactive)
REMARK    1  A    between atoms: C_1  and  N_2
REMARK    2  A    between atoms: C_6  and  O_33
REMARK    3  A    between atoms: N_11  and  C_12
REMARK    4  A    between atoms: C_12  and  C_14
REMARK    5  A    between atoms: C_14  and  S_15
REMARK    6  A    between atoms: S_15  and  C_16
REMARK    7  A    between atoms: C_16  and  C_17
REMARK    8  A    between atoms: N_19  and  C_20
REMARK    9  A    between atoms: C_21  and  C_29
REMARK   10  A    between atoms: C_29  and  O_31
REMARK   11  A    between atoms: O_31  and  C_32
REMARK   12  A    between atoms: O_33  and  C_34
REMARK                            x       y       z     vdW  Elec       q    Type
REMARK                         _______ _______ _______ _____ _____    ______ ____
ROOT
ATOM      1  C   UNL     1       7.678  -0.846  -0.081  0.00  0.00    +0.165 C 
ENDROOT
BRANCH   1   2
ATOM      2  C   UNL     1       8.794  -1.858  -0.098  0.00  0.00    +0.227 C 
ATOM      3  O   UNL     1       8.538  -3.044  -0.101  0.00  0.00    -0.275 OA
ATOM      4  N   UNL     1      10.077  -1.446  -0.109  0.00  0.00    -0.279 N 
ATOM      5  H   UNL     1      10.282  -0.498  -0.106  0.00  0.00    +0.155 HD
BRANCH   4   6
ATOM      6  C   UNL     1      11.104  -2.377  -0.124  0.00  0.00    +0.086 A 
ATOM      7  C   UNL     1      12.470  -2.139  -0.131  0.00  0.00    +0.091 A 
ATOM      8  C   UNL     1      13.346  -3.299  -0.147  0.00  0.00    -0.021 A 
ATOM      9  C   UNL     1      12.695  -4.482  -0.153  0.00  0.00    -0.004 A 
ATOM     10  S   UNL     1      10.980  -4.051  -0.130  0.00  0.00    -0.077 S 
ATOM     11  C   UNL     1      13.311  -5.847  -0.170  0.00  0.00    +0.043 C 
ATOM     12  C   UNL     1      14.789  -5.704  -0.561  0.00  0.00    +0.005 C 
ATOM     13  C   UNL     1      15.419  -4.590   0.281  0.00  0.00    +0.005 C 
ATOM     14  C   UNL     1      14.866  -3.232  -0.155  0.00  0.00    +0.037 C 
BRANCH   7  15
ATOM     15  C   UNL     1      13.008  -0.777  -0.124  0.00  0.00    +0.342 C 
ATOM     16  O   UNL     1      13.239  -0.220   0.932  0.00  0.00    -0.245 OA
BRANCH  15  17
ATOM     17  O   UNL     1      13.248  -0.140  -1.289  0.00  0.00    -0.464 OA
ATOM     18  C   UNL     1      13.772   1.187  -1.207  0.00  0.00    +0.280 C 
ENDBRANCH  15  17
ENDBRANCH   7  15
ENDBRANCH   4   6
ENDBRANCH   1   2
BRANCH   1  19
ATOM     19  S   UNL     1       6.081  -1.708  -0.069  0.00  0.00    -0.142 S 
BRANCH  19  20
ATOM     20  C   UNL     1       4.859  -0.367  -0.050  0.00  0.00    +0.167 C 
BRANCH  20  21
ATOM     21  C   UNL     1       3.471  -0.953  -0.038  0.00  0.00    +0.248 C 
ATOM     22  O   UNL     1       3.320  -2.159  -0.043  0.00  0.00    -0.273 OA
BRANCH  21  33
ATOM     23  C   UNL     1      -0.018   1.461   0.010  0.00  0.00    +0.151 C 
ATOM     24  N   UNL     1       0.002  -0.004   0.002  0.00  0.00    -0.324 N 
ATOM     25  C   UNL     1      -1.186  -0.714   0.004  0.00  0.00    +0.058 A 
ATOM     26  C   UNL     1      -2.503  -0.235   0.014  0.00  0.00    +0.030 A 
ATOM     27  C   UNL     1      -3.567  -1.106   0.016  0.00  0.00    +0.048 A 
ATOM     28  C   UNL     1      -3.369  -2.481   0.007  0.00  0.00    +0.121 A 
ATOM     29  C   UNL     1      -2.074  -2.979  -0.003  0.00  0.00    +0.062 A 
ATOM     30  C   UNL     1      -1.012  -2.106  -0.004  0.00  0.00    +0.042 A 
ATOM     31  S   UNL     1       0.751  -2.292  -0.014  0.00  0.00    -0.052 S 
ATOM     32  C   UNL     1       1.185  -0.668  -0.013  0.00  0.00    +0.166 A 
ATOM     33  N   UNL     1       2.412  -0.151  -0.024  0.00  0.00    -0.156 NA
BRANCH  28  34
ATOM     34  O   UNL     1      -4.432  -3.329   0.010  0.00  0.00    -0.495 OA
ATOM     35  C   UNL     1      -5.733  -2.738   0.021  0.00  0.00    +0.277 C 
ENDBRANCH  28  34
ENDBRANCH  21  33
ENDBRANCH  20  21
ENDBRANCH  19  20
ENDBRANCH   1  19
TORSDOF 9
