REMARK  Name = ZINC61440100
REMARK  7 active torsions:
REMARK  status: ('A' for Active; 'I' for Inactive)
REMARK    1  A    between atoms: C_1  and  C_2
REMARK    2  A    between atoms: C_9  and  S_11
REMARK    3  A    between atoms: S_11  and  C_12
REMARK    4  A    between atoms: C_12  and  C_14
REMARK    5  A    between atoms: C_12  and  C_20
REMARK    6  A    between atoms: C_20  and  C_22
REMARK    7  A    between atoms: C_20  and  N_23
REMARK                            x       y       z     vdW  Elec       q    Type
REMARK                         _______ _______ _______ _____ _____    ______ ____
ROOT
ATOM      1  C   UNL     1       0.036  -6.935   0.913  0.00  0.00    +0.076 C 
ENDROOT
BRANCH   1   2
ATOM      2  C   UNL     1       0.194  -8.307   1.516  0.00  0.00    +0.003 A 
ATOM      3  C   UNL     1       1.098  -9.272   1.216  0.00  0.00    +0.013 A 
ATOM      4  C   UNL     1       1.054 -10.469   1.907  0.00  0.00    +0.023 A 
ATOM      5  C   UNL     1       0.108 -10.642   2.863  0.00  0.00    +0.055 A 
ATOM      6  S   UNL     1      -0.756  -9.081   2.814  0.00  0.00    -0.085 S 
ATOM      7 BR   UNL     1      -0.208 -12.144   3.968  0.00  0.00    -0.043 Br
ENDBRANCH   1   2
BRANCH   1   8
ATOM      8  C   UNL     1      -1.359  -6.806   0.298  0.00  0.00    -0.060 C 
ATOM      9  C   UNL     1      -2.411  -6.833   1.408  0.00  0.00    -0.013 C 
BRANCH   8  10
ATOM     10  N   UNL     1      -1.592  -7.924  -0.626  0.00  0.00    +0.381 N 
ATOM     11  H   UNL     1      -1.569  -8.793  -0.114  0.00  0.00    -0.090 HD
ATOM     12  H   UNL     1      -2.495  -7.815  -1.064  0.00  0.00    -0.090 HD
ATOM     13  H   UNL     1      -0.874  -7.931  -1.334  0.00  0.00    -0.090 HD
ENDBRANCH   8  10
ENDBRANCH   1   8
BRANCH   1  14
ATOM     14  S   UNL     1       0.246  -5.680   2.205  0.00  0.00    -0.081 S 
BRANCH  14  23
ATOM     15  C   UNL     1       0.404   1.550  -0.448  0.00  0.00    +0.044 C 
ATOM     16  C   UNL     1       0.317   0.046  -0.397  0.00  0.00    -0.048 A 
ATOM     17  C   UNL     1       0.147  -0.674  -1.571  0.00  0.00    +0.005 A 
ATOM     18  C   UNL     1       0.065  -2.048  -1.542  0.00  0.00    +0.030 A 
ATOM     19  C   UNL     1       0.154  -2.723  -0.322  0.00  0.00    +0.090 A 
ATOM     20  C   UNL     1       0.327  -1.989   0.863  0.00  0.00    +0.067 A 
ATOM     21  C   UNL     1       0.412  -0.606   0.815  0.00  0.00    +0.031 A 
ATOM     22  N   UNL     1       0.381  -2.919   1.889  0.00  0.00    -0.333 N 
ATOM     23  C   UNL     1       0.244  -4.155   1.322  0.00  0.00    +0.168 A 
ATOM     24  N   UNL     1       0.111  -4.037   0.024  0.00  0.00    -0.222 NA
ATOM     25  H   UNL     1       0.494  -2.728   2.833  0.00  0.00    +0.168 HD
ENDBRANCH  14  23
ENDBRANCH   1  14
TORSDOF 5
