REMARK  Name = ZINC08253925
REMARK  7 active torsions:
REMARK  status: ('A' for Active; 'I' for Inactive)
REMARK    1  A    between atoms: C_3  and  C_8
REMARK    2  A    between atoms: C_5  and  N_7
REMARK    3  A    between atoms: N_10  and  C_13
REMARK    4  A    between atoms: C_13  and  C_14
REMARK    5  A    between atoms: C_22  and  C_24
REMARK    6  A    between atoms: N_26  and  C_27
REMARK    7  A    between atoms: C_27  and  C_28
REMARK                            x       y       z     vdW  Elec       q    Type
REMARK                         _______ _______ _______ _____ _____    ______ ____
ROOT
ATOM      1  C   UNL     1      -0.725   3.144   1.222  0.00  0.00    -0.046 C 
ATOM      2  C   UNL     1      -0.722   1.597   1.268  0.00  0.00    -0.010 C 
ATOM      3  C   UNL     1      -0.013   1.086   0.008  0.00  0.00    -0.004 C 
ATOM      4  C   UNL     1       1.420   1.633  -0.003  0.00  0.00    -0.015 C 
ATOM      5  C   UNL     1       1.365   3.163  -0.004  0.00  0.00    -0.078 C 
ATOM      6  C   UNL     1      -0.742   3.141  -1.200  0.00  0.00    -0.065 C 
ATOM      7  C   UNL     1      -0.746   1.610  -1.233  0.00  0.00    +0.061 C 
ATOM      8  N   UNL     1      -0.038   3.629   0.005  0.00  0.00    +0.383 N 
ATOM      9  H   UNL     1      -0.048   4.656   0.004  0.00  0.00    -0.081 HD
ENDROOT
BRANCH   7  10
ATOM     10  C   UNL     1      -2.167   1.109  -1.229  0.00  0.00    +0.215 C 
ATOM     11  O   UNL     1      -2.558   0.402  -0.325  0.00  0.00    -0.276 OA
ATOM     12  N   UNL     1      -3.003   1.446  -2.231  0.00  0.00    -0.308 N 
ATOM     13  H   UNL     1      -2.690   2.012  -2.954  0.00  0.00    +0.149 HD
BRANCH  12  14
ATOM     14  C   UNL     1      -4.385   0.959  -2.228  0.00  0.00    +0.178 C 
BRANCH  14  15
ATOM     15  C   UNL     1      -5.103   1.476  -3.448  0.00  0.00    +0.122 A 
ATOM     16  C   UNL     1      -5.162   0.863  -4.644  0.00  0.00    +0.046 A 
ATOM     17  C   UNL     1      -5.934   1.691  -5.490  0.00  0.00    +0.041 A 
ATOM     18  C   UNL     1      -6.293   2.765  -4.763  0.00  0.00    +0.195 A 
ATOM     19  O   UNL     1      -5.787   2.629  -3.527  0.00  0.00    -0.466 OA
ENDBRANCH  14  15
ENDBRANCH  12  14
ENDBRANCH   7  10
BRANCH   1  20
ATOM     20  C   UNL     1      -2.165   3.658   1.218  0.00  0.00    +0.130 C 
BRANCH  20  23
ATOM     21  C   UNL     1      -2.510   7.223   0.888  0.00  0.00    +0.113 A 
ATOM     22  C   UNL     1      -2.764   5.963   0.430  0.00  0.00    +0.138 A 
ATOM     23  N   UNL     1      -2.162   5.121   1.300  0.00  0.00    -0.253 N 
ATOM     24  N   UNL     1      -1.581   5.821   2.210  0.00  0.00    -0.065 NA
ATOM     25  N   UNL     1      -1.766   7.076   1.999  0.00  0.00    -0.130 NA
BRANCH  21  28
ATOM     26  C   UNL     1      -4.152   9.676  -1.444  0.00  0.00    +0.002 A 
ATOM     27  C   UNL     1      -3.729   8.488  -0.883  0.00  0.00    +0.010 A 
ATOM     28  C   UNL     1      -2.961   8.501   0.280  0.00  0.00    +0.005 A 
ATOM     29  C   UNL     1      -2.612   9.714   0.867  0.00  0.00    +0.032 A 
ATOM     30  C   UNL     1      -3.036  10.904   0.293  0.00  0.00    +0.025 A 
ATOM     31  C   UNL     1      -3.807  10.881  -0.864  0.00  0.00    +0.023 A 
BRANCH  30  32
ATOM     32  N   UNL     1      -2.689  12.124   0.878  0.00  0.00    -0.358 N 
ATOM     33  H   UNL     1      -2.151  12.139   1.685  0.00  0.00    +0.142 HD
ATOM     34  H   UNL     1      -2.985  12.956   0.477  0.00  0.00    +0.142 HD
ENDBRANCH  30  32
ENDBRANCH  21  28
ENDBRANCH  20  23
ENDBRANCH   1  20
TORSDOF 7
