REMARK  Name = ZINC23077142
REMARK  13 active torsions:
REMARK  status: ('A' for Active; 'I' for Inactive)
REMARK    1  A    between atoms: C_1  and  C_2
REMARK    2  A    between atoms: C_4  and  C_34
REMARK    3  A    between atoms: C_8  and  N_33
REMARK    4  A    between atoms: C_9  and  C_11
REMARK    5  A    between atoms: C_11  and  O_13
REMARK    6  A    between atoms: O_13  and  C_14
REMARK    7  A    between atoms: C_14  and  C_15
REMARK    8  A    between atoms: C_15  and  N_17
REMARK    9  A    between atoms: C_20  and  C_23
REMARK   10  A    between atoms: C_25  and  O_31
REMARK   11  A    between atoms: C_28  and  O_29
REMARK   12  A    between atoms: O_29  and  C_30
REMARK   13  A    between atoms: O_31  and  C_32
REMARK                            x       y       z     vdW  Elec       q    Type
REMARK                         _______ _______ _______ _____ _____    ______ ____
ROOT
ATOM      1  C   UNL     1       2.701  -1.632   6.704  0.00  0.00    +0.330 C 
ENDROOT
BRANCH   1   2
ATOM      2  C   UNL     1       3.263  -2.892   7.311  0.00  0.00    +0.276 C 
ATOM      3  O   UNL     1       3.106  -3.960   6.750  0.00  0.00    -0.270 OA
BRANCH   2   4
ATOM      4  N   UNL     1       3.928  -2.836   8.458  0.00  0.00    -0.154 NA
ATOM      5  C   UNL     1       4.425  -3.951   8.996  0.00  0.00    +0.163 A 
ATOM      6  N   UNL     1       5.122  -4.088  10.156  0.00  0.00    -0.335 N 
ATOM      7  C   UNL     1       5.543  -5.333  10.528  0.00  0.00    +0.058 A 
ATOM      8  C   UNL     1       5.230  -6.355   9.701  0.00  0.00    +0.074 A 
ATOM      9  S   UNL     1       4.332  -5.522   8.406  0.00  0.00    -0.060 S 
ATOM     10  H   UNL     1       5.317  -3.315  10.709  0.00  0.00    +0.168 HD
BRANCH   7  11
ATOM     11  C   UNL     1       6.306  -5.551  11.777  0.00  0.00    +0.044 A 
ATOM     12  C   UNL     1       6.568  -4.483  12.633  0.00  0.00    +0.059 A 
ATOM     13  C   UNL     1       7.283  -4.694  13.800  0.00  0.00    +0.121 A 
ATOM     14  C   UNL     1       7.739  -5.966  14.117  0.00  0.00    +0.049 A 
ATOM     15  C   UNL     1       7.482  -7.030  13.272  0.00  0.00    +0.050 A 
ATOM     16  C   UNL     1       6.763  -6.832  12.105  0.00  0.00    +0.129 A 
BRANCH  16  17
ATOM     17  O   UNL     1       6.507  -7.880  11.278  0.00  0.00    -0.494 OA
ATOM     18  C   UNL     1       7.004  -9.159  11.678  0.00  0.00    +0.277 C 
ENDBRANCH  16  17
BRANCH  13  19
ATOM     19  O   UNL     1       7.539  -3.653  14.637  0.00  0.00    -0.495 OA
ATOM     20  C   UNL     1       8.282  -3.942  15.823  0.00  0.00    +0.277 C 
ENDBRANCH  13  19
ENDBRANCH   7  11
ENDBRANCH   2   4
ENDBRANCH   1   2
BRANCH   1  21
ATOM     21  O   UNL     1       2.034  -1.950   5.481  0.00  0.00    -0.451 OA
BRANCH  21  22
ATOM     22  C   UNL     1       1.471  -0.925   4.806  0.00  0.00    +0.348 C 
ATOM     23  O   UNL     1       1.546   0.207   5.245  0.00  0.00    -0.244 OA
BRANCH  22  32
ATOM     24  C   UNL     1      -1.339   1.472   0.685  0.00  0.00    +0.044 C 
ATOM     25  C   UNL     1      -1.171  -0.020   0.560  0.00  0.00    -0.037 A 
ATOM     26  C   UNL     1      -1.692  -0.693  -0.521  0.00  0.00    +0.025 A 
ATOM     27  C   UNL     1      -1.536  -2.066  -0.634  0.00  0.00    +0.014 A 
ATOM     28  N   UNL     1      -0.888  -2.744   0.293  0.00  0.00    -0.353 N 
ATOM     29  C   UNL     1      -0.371  -2.146   1.345  0.00  0.00    +0.088 A 
ATOM     30  C   UNL     1      -0.470  -0.751   1.551  0.00  0.00    +0.030 A 
ATOM     31  C   UNL     1       0.163  -0.259   2.764  0.00  0.00    +0.055 A 
ATOM     32  C   UNL     1       0.794  -1.168   3.587  0.00  0.00    +0.119 A 
ATOM     33  S   UNL     1       0.541  -2.723   2.755  0.00  0.00    -0.062 S 
ATOM     34  C   UNL     1      -2.112  -2.789  -1.825  0.00  0.00    +0.063 C 
ATOM     35  H   UNL     1      -0.789  -3.704   0.197  0.00  0.00    +0.166 HD
BRANCH  31  36
ATOM     36  N   UNL     1       0.134   1.090   3.085  0.00  0.00    -0.356 N 
ATOM     37  H   UNL     1      -0.031   1.750   2.393  0.00  0.00    +0.142 HD
ATOM     38  H   UNL     1       0.277   1.374   4.002  0.00  0.00    +0.142 HD
ENDBRANCH  31  36
ENDBRANCH  22  32
ENDBRANCH  21  22
ENDBRANCH   1  21
TORSDOF 9
