REMARK  Name = ZINC13699932
REMARK  10 active torsions:
REMARK  status: ('A' for Active; 'I' for Inactive)
REMARK    1  A    between atoms: C_1  and  C_2
REMARK    2  A    between atoms: C_2  and  N_3
REMARK    3  A    between atoms: C_4  and  C_9
REMARK    4  A    between atoms: C_6  and  C_8
REMARK    5  A    between atoms: N_11  and  C_12
REMARK    6  A    between atoms: C_17  and  C_18
REMARK    7  A    between atoms: N_20  and  C_21
REMARK    8  A    between atoms: C_24  and  C_35
REMARK    9  A    between atoms: C_26  and  C_27
REMARK   10  A    between atoms: C_27  and  C_29
REMARK                            x       y       z     vdW  Elec       q    Type
REMARK                         _______ _______ _______ _____ _____    ______ ____
ROOT
ATOM      1  C   UNL     1      -3.662  -1.859   1.240  0.00  0.00    +0.250 C 
ATOM      2  O   UNL     1      -2.567  -2.367   1.094  0.00  0.00    -0.270 OA
ATOM      3  N   UNL     1      -3.767  -0.534   1.462  0.00  0.00    -0.281 N 
ATOM      4  H   UNL     1      -4.642  -0.119   1.516  0.00  0.00    +0.155 HD
ENDROOT
BRANCH   3   5
ATOM      5  C   UNL     1      -2.620   0.238   1.616  0.00  0.00    +0.045 A 
ATOM      6  C   UNL     1      -1.469  -0.073   0.904  0.00  0.00    +0.024 A 
ATOM      7  C   UNL     1      -0.334   0.699   1.054  0.00  0.00    +0.005 A 
ATOM      8  C   UNL     1      -0.331   1.783   1.917  0.00  0.00    -0.050 A 
ATOM      9  C   UNL     1      -1.461   2.104   2.636  0.00  0.00    +0.017 A 
ATOM     10  C   UNL     1      -2.619   1.333   2.495  0.00  0.00    +0.044 A 
ATOM     11  C   UNL     1       0.916   2.616   2.069  0.00  0.00    +0.044 C 
BRANCH  10  12
ATOM     12  C   UNL     1      -3.832   1.670   3.261  0.00  0.00    +0.195 C 
ATOM     13  O   UNL     1      -4.509   2.627   2.937  0.00  0.00    -0.287 OA
BRANCH  12  14
ATOM     14  C   UNL     1      -4.226   0.846   4.423  0.00  0.00    +0.022 A 
ATOM     15  C   UNL     1      -3.394  -0.185   4.865  0.00  0.00    +0.012 A 
ATOM     16  C   UNL     1      -3.765  -0.947   5.954  0.00  0.00    +0.001 A 
ATOM     17  C   UNL     1      -4.963  -0.699   6.601  0.00  0.00    +0.000 A 
ATOM     18  C   UNL     1      -5.794   0.318   6.164  0.00  0.00    +0.001 A 
ATOM     19  C   UNL     1      -5.433   1.091   5.081  0.00  0.00    +0.012 A 
ENDBRANCH  12  14
ENDBRANCH  10  12
ENDBRANCH   3   5
BRANCH   1  25
ATOM     20  C   UNL     1      -4.769  -4.090   1.071  0.00  0.00    +0.046 A 
ATOM     21  C   UNL     1      -5.919  -4.865   1.012  0.00  0.00    +0.024 A 
ATOM     22  C   UNL     1      -7.161  -4.263   1.044  0.00  0.00    +0.002 A 
ATOM     23  C   UNL     1      -7.271  -2.885   1.139  0.00  0.00    +0.001 A 
ATOM     24  C   UNL     1      -6.140  -2.100   1.203  0.00  0.00    +0.015 A 
ATOM     25  C   UNL     1      -4.876  -2.694   1.172  0.00  0.00    +0.058 A 
BRANCH  20  28
ATOM     26  C   UNL     1      -3.322  -5.799   0.287  0.00  0.00    +0.266 C 
ATOM     27  O   UNL     1      -4.209  -6.205  -0.440  0.00  0.00    -0.268 OA
ATOM     28  N   UNL     1      -3.515  -4.693   1.034  0.00  0.00    -0.280 N 
ATOM     29  H   UNL     1      -2.781  -4.319   1.544  0.00  0.00    +0.155 HD
BRANCH  26  31
ATOM     30  N   UNL     1      -0.908  -6.114   1.006  0.00  0.00    -0.259 N 
ATOM     31  C   UNL     1      -2.039  -6.516   0.353  0.00  0.00    +0.124 A 
ATOM     32  C   UNL     1      -1.733  -7.729  -0.240  0.00  0.00    +0.057 A 
ATOM     33  C   UNL     1      -0.406  -7.987   0.109  0.00  0.00    +0.061 A 
ATOM     34  N   UNL     1       0.016  -6.993   0.848  0.00  0.00    -0.176 NA
ATOM     35  C   UNL     1       0.398  -9.197  -0.293  0.00  0.00    +0.067 C 
BRANCH  30  37
ATOM     36  C   UNL     1      -1.388  -5.060   3.160  0.00  0.00    +0.029 C 
ATOM     37  C   UNL     1      -0.771  -4.873   1.772  0.00  0.00    +0.141 C 
ENDBRANCH  30  37
ENDBRANCH  26  31
ENDBRANCH  20  28
ENDBRANCH   1  25
TORSDOF 7
