REMARK  Name = ZINC27520362
REMARK  6 active torsions:
REMARK  status: ('A' for Active; 'I' for Inactive)
REMARK    1  A    between atoms: C_1  and  O_2
REMARK    2  A    between atoms: O_2  and  C_3
REMARK    3  A    between atoms: N_11  and  C_12
REMARK    4  A    between atoms: C_13  and  C_21
REMARK    5  A    between atoms: C_23  and  C_25
REMARK    6  A    between atoms: N_27  and  C_28
REMARK                            x       y       z     vdW  Elec       q    Type
REMARK                         _______ _______ _______ _____ _____    ______ ____
ROOT
ATOM      1  C   UNL     1      -0.876  -0.667  -0.021  0.00  0.00    +0.163 A 
ATOM      2  C   UNL     1      -1.790   0.079  -0.745  0.00  0.00    +0.049 A 
ATOM      3  C   UNL     1      -2.694  -0.542  -1.594  0.00  0.00    +0.004 A 
ATOM      4  C   UNL     1      -2.697  -1.912  -1.728  0.00  0.00    +0.012 A 
ATOM      5  C   UNL     1      -1.782  -2.683  -1.001  0.00  0.00    +0.022 A 
ATOM      6  C   UNL     1      -0.858  -2.053  -0.147  0.00  0.00    +0.179 A 
ATOM      7  O   UNL     1       0.038  -2.798   0.545  0.00  0.00    -0.435 OA
ATOM      8  C   UNL     1      -0.320  -4.073   0.843  0.00  0.00    +0.212 A 
ATOM      9  N   UNL     1      -0.048  -4.597   2.023  0.00  0.00    -0.319 N 
ATOM     10  C   UNL     1      -1.022  -4.854  -0.191  0.00  0.00    +0.098 A 
ATOM     11  C   UNL     1      -1.770  -4.143  -1.120  0.00  0.00    +0.030 A 
ATOM     12  H   UNL     1      -0.403  -5.468   2.261  0.00  0.00    +0.169 HD
ENDROOT
BRANCH   9  13
ATOM     13  C   UNL     1       0.724  -3.923   2.899  0.00  0.00    +0.098 A 
ATOM     14  C   UNL     1       1.131  -4.301   4.184  0.00  0.00    +0.086 A 
ATOM     15  C   UNL     1       1.972  -3.375   4.922  0.00  0.00    -0.018 A 
ATOM     16  C   UNL     1       2.288  -2.220   4.294  0.00  0.00    -0.004 A 
ATOM     17  S   UNL     1       1.494  -2.324   2.713  0.00  0.00    -0.075 S 
ATOM     18  C   UNL     1       3.132  -1.101   4.824  0.00  0.00    +0.043 C 
ATOM     19  C   UNL     1       3.288  -1.288   6.340  0.00  0.00    +0.005 C 
ATOM     20  C   UNL     1       3.675  -2.744   6.618  0.00  0.00    +0.005 C 
ATOM     21  C   UNL     1       2.487  -3.662   6.330  0.00  0.00    +0.037 C 
BRANCH  14  22
ATOM     22  C   UNL     1       0.733  -5.554   4.750  0.00  0.00    +0.102 C 
ATOM     23  N   UNL     1       0.417  -6.549   5.199  0.00  0.00    -0.191 NA
ENDBRANCH  14  22
ENDBRANCH   9  13
BRANCH  10  24
ATOM     24  C   UNL     1      -0.944  -6.324  -0.230  0.00  0.00    +0.253 C 
ATOM     25  O   UNL     1      -1.638  -6.950  -1.009  0.00  0.00    -0.270 OA
ATOM     26  N   UNL     1      -0.104  -6.976   0.598  0.00  0.00    -0.281 N 
ATOM     27  H   UNL     1       0.410  -6.482   1.256  0.00  0.00    +0.155 HD
BRANCH  26  28
ATOM     28  C   UNL     1       0.029  -8.366   0.508  0.00  0.00    +0.034 A 
ATOM     29  C   UNL     1      -1.072  -9.150   0.187  0.00  0.00    +0.026 A 
ATOM     30  C   UNL     1      -0.939 -10.522   0.099  0.00  0.00    +0.040 A 
ATOM     31  C   UNL     1       0.290 -11.116   0.329  0.00  0.00    +0.124 A 
ATOM     32  C   UNL     1       1.389 -10.336   0.648  0.00  0.00    +0.040 A 
ATOM     33  C   UNL     1       1.262  -8.964   0.733  0.00  0.00    +0.026 A 
ATOM     34  F   UNL     1       0.418 -12.458   0.241  0.00  0.00    -0.205 F 
ENDBRANCH  26  28
ENDBRANCH  10  24
BRANCH   1  36
ATOM     35  C   UNL     1      -0.070   1.378   0.887  0.00  0.00    +0.277 C 
ATOM     36  O   UNL     1       0.006  -0.047   0.807  0.00  0.00    -0.491 OA
ENDBRANCH   1  36
TORSDOF 5
