REMARK  Name = ZINC08635652
REMARK  9 active torsions:
REMARK  status: ('A' for Active; 'I' for Inactive)
REMARK    1  A    between atoms: C_3  and  C_6
REMARK    2  A    between atoms: C_6  and  N_7
REMARK    3  A    between atoms: N_7  and  C_8
REMARK    4  A    between atoms: C_8  and  N_10
REMARK    5  A    between atoms: N_10  and  C_11
REMARK    6  A    between atoms: C_11  and  C_12
REMARK    7  A    between atoms: C_20  and  C_22
REMARK    8  A    between atoms: C_22  and  N_68
REMARK    9  A    between atoms: N_25  and  C_28
REMARK                            x       y       z     vdW  Elec       q    Type
REMARK                         _______ _______ _______ _____ _____    ______ ____
ROOT
ATOM      1  C   UNL     1       4.735   4.483   3.410  0.00  0.00    -0.051 C 
ATOM      2  C   UNL     1       5.556   3.807   2.308  0.00  0.00    -0.010 C 
ATOM      3  C   UNL     1       4.888   4.081   0.954  0.00  0.00    -0.015 C 
ATOM      4  C   UNL     1       4.819   5.598   0.740  0.00  0.00    -0.015 C 
ATOM      5  C   UNL     1       4.019   6.223   1.886  0.00  0.00    -0.078 C 
ATOM      6  C   UNL     1       2.695   4.209   2.132  0.00  0.00    -0.076 C 
ATOM      7  C   UNL     1       3.459   3.526   0.993  0.00  0.00    -0.041 C 
ATOM      8  N   UNL     1       3.567   5.178   2.830  0.00  0.00    +0.383 N 
ATOM      9  H   UNL     1       3.033   5.622   3.587  0.00  0.00    -0.081 HD
ENDROOT
BRANCH   1  10
ATOM     10  C   UNL     1       4.243   3.425   4.400  0.00  0.00    +0.088 C 
BRANCH  10  11
ATOM     11  N   UNL     1       3.358   4.053   5.384  0.00  0.00    -0.328 N 
ATOM     12  H   UNL     1       3.172   5.004   5.333  0.00  0.00    +0.148 HD
BRANCH  11  13
ATOM     13  C   UNL     1       2.801   3.309   6.361  0.00  0.00    +0.131 C 
ATOM     14  S   UNL     1       3.130   1.632   6.452  0.00  0.00    -0.019 S 
BRANCH  13  15
ATOM     15  N   UNL     1       1.987   3.887   7.266  0.00  0.00    -0.319 N 
ATOM     16  H   UNL     1       1.801   4.837   7.215  0.00  0.00    +0.148 HD
BRANCH  15  17
ATOM     17  C   UNL     1       1.383   3.079   8.328  0.00  0.00    +0.177 C 
BRANCH  17  20
ATOM     18  C   UNL     1      -1.187   5.077  10.056  0.00  0.00    +0.041 A 
ATOM     19  C   UNL     1      -0.784   4.217   9.009  0.00  0.00    +0.046 A 
ATOM     20  C   UNL     1       0.522   3.957   9.200  0.00  0.00    +0.122 A 
ATOM     21  O   UNL     1       0.931   4.617  10.296  0.00  0.00    -0.466 OA
ATOM     22  C   UNL     1      -0.102   5.298  10.819  0.00  0.00    +0.195 A 
ENDBRANCH  17  20
ENDBRANCH  15  17
ENDBRANCH  13  15
ENDBRANCH  11  13
ENDBRANCH  10  11
ENDBRANCH   1  10
BRANCH   7  23
ATOM     23  C   UNL     1       3.501   2.017   1.237  0.00  0.00    -0.077 C 
BRANCH  23  29
ATOM     24  C   UNL     1       1.419   1.992  -0.001  0.00  0.00    -0.060 C 
ATOM     25  C   UNL     1      -0.018   1.465   0.010  0.00  0.00    +0.086 C 
ATOM     26  N   UNL     1       0.002  -0.004   0.002  0.00  0.00    -0.333 N 
ATOM     27  C   UNL     1       0.721  -0.525   1.173  0.00  0.00    +0.086 C 
ATOM     28  C   UNL     1       2.158   0.003   1.162  0.00  0.00    -0.060 C 
ATOM     29  N   UNL     1       2.123   1.480   1.193  0.00  0.00    +0.382 N 
ATOM     30  H   UNL     1       1.620   1.785   2.034  0.00  0.00    -0.082 HD
BRANCH  26  31
ATOM     31  C   UNL     1      -1.295  -0.522  -0.061  0.00  0.00    +0.030 A 
ATOM     32  C   UNL     1      -2.386   0.336  -0.100  0.00  0.00    +0.026 A 
ATOM     33  C   UNL     1      -3.666  -0.178  -0.168  0.00  0.00    +0.040 A 
ATOM     34  C   UNL     1      -3.863  -1.549  -0.186  0.00  0.00    +0.124 A 
ATOM     35  C   UNL     1      -2.777  -2.406  -0.141  0.00  0.00    +0.040 A 
ATOM     36  C   UNL     1      -1.494  -1.897  -0.079  0.00  0.00    +0.026 A 
ATOM     37  F   UNL     1      -5.116  -2.050  -0.248  0.00  0.00    -0.205 F 
ENDBRANCH  26  31
ENDBRANCH  23  29
ENDBRANCH   7  23
TORSDOF 9
