REMARK  Name = ZINC53126224
REMARK  11 active torsions:
REMARK  status: ('A' for Active; 'I' for Inactive)
REMARK    1  A    between atoms: C_1  and  C_2
REMARK    2  A    between atoms: C_7  and  C_9
REMARK    3  A    between atoms: C_7  and  N_11
REMARK    4  A    between atoms: C_9  and  O_10
REMARK    5  A    between atoms: N_11  and  C_12
REMARK    6  A    between atoms: C_12  and  C_13
REMARK    7  A    between atoms: C_13  and  C_15
REMARK    8  A    between atoms: C_13  and  O_23
REMARK    9  A    between atoms: C_15  and  O_16
REMARK   10  A    between atoms: O_16  and  C_17
REMARK   11  A    between atoms: C_17  and  C_18
REMARK                            x       y       z     vdW  Elec       q    Type
REMARK                         _______ _______ _______ _____ _____    ______ ____
ROOT
ATOM      1  N   UNL     1      -0.618  -2.496   1.312  0.00  0.00    +0.386 N 
ATOM      2  H   UNL     1      -1.055  -2.097   2.130  0.00  0.00    -0.085 HD
ATOM      3  H   UNL     1      -1.126  -2.213   0.487  0.00  0.00    -0.085 HD
ENDROOT
BRANCH   1   9
ATOM      4  C   UNL     1       1.723  -2.509   4.918  0.00  0.00    +0.007 C 
ATOM      5  C   UNL     1       0.930  -2.001   3.712  0.00  0.00    -0.015 C 
ATOM      6  C   UNL     1       0.949  -0.472   3.697  0.00  0.00    +0.003 C 
ATOM      7  C   UNL     1       0.155   0.036   2.491  0.00  0.00    -0.001 C 
ATOM      8  C   UNL     1       0.789  -0.494   1.204  0.00  0.00    -0.010 C 
ATOM      9  C   UNL     1       0.770  -2.024   1.219  0.00  0.00    -0.044 C 
ATOM     10  C   UNL     1       1.563  -2.532   2.424  0.00  0.00    -0.007 C 
BRANCH   9  11
ATOM     11  C   UNL     1       1.403  -2.555  -0.069  0.00  0.00    +0.143 C 
BRANCH  11  12
ATOM     12  O   UNL     1       0.591  -2.188  -1.186  0.00  0.00    -0.396 OA
ATOM     13  H   UNL     1       0.933  -2.492  -2.038  0.00  0.00    +0.209 HD
ENDBRANCH  11  12
ENDBRANCH   9  11
ENDBRANCH   1   9
BRANCH   1  14
ATOM     14  C   UNL     1      -0.631  -3.961   1.416  0.00  0.00    -0.048 C 
BRANCH  14  15
ATOM     15  C   UNL     1      -2.076  -4.462   1.375  0.00  0.00    +0.123 C 
BRANCH  15  16
ATOM     16  O   UNL     1      -2.807  -3.900   2.467  0.00  0.00    -0.391 OA
ATOM     17  H   UNL     1      -2.451  -4.128   3.337  0.00  0.00    +0.210 HD
ENDBRANCH  15  16
BRANCH  15  18
ATOM     18  C   UNL     1      -2.090  -5.988   1.483  0.00  0.00    +0.189 C 
BRANCH  18  19
ATOM     19  O   UNL     1      -3.429  -6.465   1.328  0.00  0.00    -0.372 OA
BRANCH  19  20
ATOM     20  C   UNL     1      -3.553  -7.886   1.413  0.00  0.00    +0.202 C 
BRANCH  20  21
ATOM     21  C   UNL     1      -4.998  -8.275   1.237  0.00  0.00    +0.015 A 
ATOM     22  C   UNL     1      -5.668  -8.575   0.097  0.00  0.00    +0.013 A 
ATOM     23  C   UNL     1      -7.008  -8.909   0.175  0.00  0.00    +0.008 A 
ATOM     24  C   UNL     1      -7.611  -8.925   1.389  0.00  0.00    +0.045 A 
ATOM     25  S   UNL     1      -6.271  -8.466   2.474  0.00  0.00    -0.099 S 
ENDBRANCH  20  21
ENDBRANCH  19  20
ENDBRANCH  18  19
ENDBRANCH  15  18
ENDBRANCH  14  15
ENDBRANCH   1  14
TORSDOF 10
