REMARK  Name = ZINC66925567
REMARK  12 active torsions:
REMARK  status: ('A' for Active; 'I' for Inactive)
REMARK    1  A    between atoms: C_1  and  C_2
REMARK    2  A    between atoms: C_2  and  C_3
REMARK    3  A    between atoms: C_2  and  N_4
REMARK    4  A    between atoms: N_4  and  C_5
REMARK    5  A    between atoms: N_4  and  C_6
REMARK    6  A    between atoms: C_6  and  C_7
REMARK    7  A    between atoms: C_7  and  C_8
REMARK    8  A    between atoms: C_8  and  C_9
REMARK    9  A    between atoms: C_9  and  N_10
REMARK   10  A    between atoms: N_13  and  C_14
REMARK   11  A    between atoms: C_14  and  C_15
REMARK   12  A    between atoms: C_15  and  O_25
REMARK                            x       y       z     vdW  Elec       q    Type
REMARK                         _______ _______ _______ _____ _____    ______ ____
ROOT
ATOM      1  N   UNL     1      -6.380  -0.329  -3.753  0.00  0.00    -0.299 N 
ATOM      2  C   UNL     1      -7.718  -0.468  -3.827  0.00  0.00    +0.300 C 
ATOM      3  O   UNL     1      -8.302  -1.173  -3.027  0.00  0.00    -0.253 OA
ATOM      4  N   UNL     1      -8.410   0.176  -4.788  0.00  0.00    -0.296 N 
ATOM      5  H   UNL     1      -5.915   0.234  -4.391  0.00  0.00    +0.150 HD
ATOM      6  H   UNL     1      -7.945   0.739  -5.426  0.00  0.00    +0.150 HD
ENDROOT
BRANCH   1   7
ATOM      7  C   UNL     1      -5.628  -1.029  -2.708  0.00  0.00    +0.105 C 
BRANCH   7   8
ATOM      8  C   UNL     1      -4.139  -0.703  -2.847  0.00  0.00    +0.017 C 
BRANCH   8   9
ATOM      9  C   UNL     1      -3.353  -1.434  -1.756  0.00  0.00    -0.017 C 
BRANCH   9  10
ATOM     10  C   UNL     1      -1.865  -1.108  -1.895  0.00  0.00    -0.079 C 
BRANCH  10  11
ATOM     11  N   UNL     1      -1.111  -1.810  -0.847  0.00  0.00    +0.379 N 
ATOM     12  C   UNL     1      -1.213  -3.260  -1.058  0.00  0.00    -0.096 C 
ATOM     13  H   UNL     1      -1.492  -1.574   0.057  0.00  0.00    -0.082 HD
BRANCH  11  15
ATOM     14  C   UNL     1       0.406   0.106  -0.685  0.00  0.00    -0.014 C 
ATOM     15  C   UNL     1       0.300  -1.405  -0.905  0.00  0.00    -0.075 C 
ATOM     16  C   UNL     1       1.086  -2.135   0.186  0.00  0.00    -0.014 C 
ENDBRANCH  11  15
ENDBRANCH  10  11
ENDBRANCH   9  10
ENDBRANCH   8   9
ENDBRANCH   7   8
ENDBRANCH   1   7
BRANCH   4  17
ATOM     17  C   UNL     1      -9.865   0.025  -4.868  0.00  0.00    +0.145 C 
BRANCH  17  18
ATOM     18  C   UNL     1     -10.384   0.743  -6.116  0.00  0.00    +0.107 C 
ATOM     19  C   UNL     1      -9.688   0.173  -7.351  0.00  0.00    +0.041 C 
ATOM     20  C   UNL     1     -10.372   0.744  -8.598  0.00  0.00    +0.008 C 
ATOM     21  C   UNL     1     -11.767   0.131  -8.706  0.00  0.00    +0.035 C 
ATOM     22  C   UNL     1     -12.511   0.276  -7.404  0.00  0.00    -0.041 A 
ATOM     23  C   UNL     1     -11.875   0.553  -6.214  0.00  0.00    -0.011 A 
ATOM     24  C   UNL     1     -12.620   0.668  -5.048  0.00  0.00    +0.007 A 
ATOM     25  C   UNL     1     -13.990   0.510  -5.072  0.00  0.00    +0.000 A 
ATOM     26  C   UNL     1     -14.629   0.236  -6.267  0.00  0.00    +0.000 A 
ATOM     27  C   UNL     1     -13.890   0.120  -7.427  0.00  0.00    +0.004 A 
BRANCH  18  28
ATOM     28  O   UNL     1     -10.092   2.138  -6.013  0.00  0.00    -0.382 OA
ATOM     29  H   UNL     1     -10.494   2.568  -5.246  0.00  0.00    +0.211 HD
ENDBRANCH  18  28
ENDBRANCH  17  18
ENDBRANCH   4  17
TORSDOF 9
