REMARK  Name = ZINC61697569
REMARK  12 active torsions:
REMARK  status: ('A' for Active; 'I' for Inactive)
REMARK    1  A    between atoms: C_1  and  C_2
REMARK    2  A    between atoms: C_2  and  C_3
REMARK    3  A    between atoms: C_3  and  C_4
REMARK    4  A    between atoms: C_3  and  N_6
REMARK    5  A    between atoms: C_4  and  C_5
REMARK    6  A    between atoms: N_6  and  C_7
REMARK    7  A    between atoms: N_6  and  C_10
REMARK    8  A    between atoms: C_7  and  C_8
REMARK    9  A    between atoms: C_8  and  O_9
REMARK   10  A    between atoms: C_13  and  C_17
REMARK   11  A    between atoms: C_17  and  C_19
REMARK   12  A    between atoms: C_17  and  N_20
REMARK                            x       y       z     vdW  Elec       q    Type
REMARK                         _______ _______ _______ _____ _____    ______ ____
ROOT
ATOM      1  C   UNL     1      -3.220   0.893   1.515  0.00  0.00    +0.044 A 
ATOM      2  C   UNL     1      -3.258   2.003   0.681  0.00  0.00    +0.024 A 
ATOM      3  C   UNL     1      -4.340   2.860   0.724  0.00  0.00    +0.004 A 
ATOM      4  C   UNL     1      -5.384   2.616   1.596  0.00  0.00    -0.061 A 
ATOM      5  C   UNL     1      -5.350   1.512   2.429  0.00  0.00    +0.019 A 
ATOM      6  C   UNL     1      -4.274   0.647   2.387  0.00  0.00    +0.039 A 
ATOM      7 BR   UNL     1      -4.231  -0.866   3.521  0.00  0.00    -0.048 Br
ENDROOT
BRANCH   4   8
ATOM      8  C   UNL     1      -6.562   3.555   1.640  0.00  0.00    -0.047 C 
ATOM      9  C   UNL     1      -7.719   2.959   0.835  0.00  0.00    -0.009 C 
BRANCH   8  10
ATOM     10  N   UNL     1      -6.984   3.747   3.034  0.00  0.00    +0.382 N 
ATOM     11  H   UNL     1      -6.221   4.139   3.565  0.00  0.00    -0.089 HD
ATOM     12  H   UNL     1      -7.772   4.375   3.064  0.00  0.00    -0.089 HD
ATOM     13  H   UNL     1      -7.247   2.857   3.432  0.00  0.00    -0.089 HD
ENDBRANCH   8  10
ENDBRANCH   4   8
BRANCH   1  14
ATOM     14  N   UNL     1      -2.127   0.023   1.474  0.00  0.00    -0.324 N 
BRANCH  14  15
ATOM     15  C   UNL     1      -1.809  -0.696   0.237  0.00  0.00    +0.073 C 
BRANCH  15  17
ATOM     16  C   UNL     1      -0.297   1.119  -0.578  0.00  0.00    +0.006 C 
ATOM     17  C   UNL     1      -0.380  -0.360  -0.194  0.00  0.00    +0.019 C 
ENDBRANCH  15  17
BRANCH  15  18
ATOM     18  C   UNL     1      -1.929  -2.202   0.477  0.00  0.00    +0.019 C 
ATOM     19  C   UNL     1      -3.386  -2.554   0.787  0.00  0.00    +0.006 C 
ENDBRANCH  15  18
ENDBRANCH  14  15
BRANCH  14  20
ATOM     20  C   UNL     1      -1.300  -0.171   2.667  0.00  0.00    +0.133 C 
BRANCH  20  21
ATOM     21  C   UNL     1      -0.245   0.934   2.742  0.00  0.00    +0.174 C 
BRANCH  21  22
ATOM     22  O   UNL     1      -0.891   2.200   2.890  0.00  0.00    -0.393 OA
ATOM     23  H   UNL     1      -0.282   2.949   2.944  0.00  0.00    +0.209 HD
ENDBRANCH  21  22
ENDBRANCH  20  21
ENDBRANCH  14  20
ENDBRANCH   1  14
TORSDOF 9
