REMARK  Name = ZINC08767674
REMARK  6 active torsions:
REMARK  status: ('A' for Active; 'I' for Inactive)
REMARK    1  A    between atoms: C_1  and  C_2
REMARK    2  A    between atoms: C_2  and  C_31
REMARK    3  A    between atoms: C_3  and  N_28
REMARK    4  A    between atoms: C_5  and  C_21
REMARK    5  A    between atoms: C_7  and  C_14
REMARK    6  A    between atoms: C_9  and  N_11
REMARK                            x       y       z     vdW  Elec       q    Type
REMARK                         _______ _______ _______ _____ _____    ______ ____
ROOT
ATOM      1  C   UNL     1      -0.521   3.300  -1.873  0.00  0.00    +0.015 C 
ATOM      2  C   UNL     1       0.619   2.280  -1.899  0.00  0.00    +0.017 C 
ATOM      3  C   UNL     1       0.906   1.797  -0.475  0.00  0.00    +0.168 C 
ATOM      4  C   UNL     1       2.006   0.733  -0.514  0.00  0.00    -0.010 C 
ATOM      5  C   UNL     1       1.335   0.040  -2.737  0.00  0.00    -0.010 C 
ATOM      6  C   UNL     1       0.216   1.083  -2.764  0.00  0.00    +0.168 C 
ATOM      7  C   UNL     1       1.876   2.931  -2.481  0.00  0.00    +0.015 C 
ATOM      8  N   UNL     1       1.570  -0.402  -1.349  0.00  0.00    +0.391 N 
ATOM      9  H   UNL     1       0.700  -0.790  -0.966  0.00  0.00    -0.084 HD
ATOM     10  H   UNL     1       2.299  -1.126  -1.344  0.00  0.00    -0.084 HD
ENDROOT
BRANCH   5  11
ATOM     11  C   UNL     1       2.597   0.643  -3.297  0.00  0.00    -0.059 A 
ATOM     12  C   UNL     1       2.573   1.281  -4.524  0.00  0.00    +0.003 A 
ATOM     13  C   UNL     1       3.730   1.839  -5.036  0.00  0.00    +0.015 A 
ATOM     14  C   UNL     1       4.913   1.750  -4.326  0.00  0.00    +0.018 A 
ATOM     15  C   UNL     1       4.938   1.107  -3.101  0.00  0.00    +0.015 A 
ATOM     16  C   UNL     1       3.780   0.554  -2.587  0.00  0.00    +0.003 A 
ATOM     17 BR   UNL     1       6.497   2.506  -5.029  0.00  0.00    -0.050 Br
ENDBRANCH   5  11
BRANCH   4  18
ATOM     18  C   UNL     1       2.278   0.240   0.884  0.00  0.00    -0.059 A 
ATOM     19  C   UNL     1       1.437  -0.692   1.464  0.00  0.00    +0.003 A 
ATOM     20  C   UNL     1       1.689  -1.148   2.744  0.00  0.00    +0.015 A 
ATOM     21  C   UNL     1       2.777  -0.664   3.449  0.00  0.00    +0.018 A 
ATOM     22  C   UNL     1       3.614   0.272   2.870  0.00  0.00    +0.015 A 
ATOM     23  C   UNL     1       3.365   0.724   1.588  0.00  0.00    +0.003 A 
ATOM     24 BR   UNL     1       3.117  -1.282   5.203  0.00  0.00    -0.050 Br
ENDBRANCH   4  18
BRANCH   6  25
ATOM     25  N   UNL     1      -0.005   1.528  -4.142  0.00  0.00    +0.025 N 
ATOM     26  O   UNL     1      -0.229   0.711  -5.018  0.00  0.00    -0.131 OA
ATOM     27  O   UNL     1       0.035   2.715  -4.413  0.00  0.00    -0.131 OA
ENDBRANCH   6  25
BRANCH   3  28
ATOM     28  N   UNL     1       1.348   2.926   0.347  0.00  0.00    +0.025 N 
ATOM     29  O   UNL     1       2.349   3.548   0.039  0.00  0.00    -0.131 OA
ATOM     30  O   UNL     1       0.715   3.244   1.337  0.00  0.00    -0.131 OA
ENDBRANCH   3  28
TORSDOF 4
