REMARK  Name = ZINC39291184
REMARK  15 active torsions:
REMARK  status: ('A' for Active; 'I' for Inactive)
REMARK    1  A    between atoms: C_1  and  C_2
REMARK    2  A    between atoms: C_2  and  C_3
REMARK    3  A    between atoms: C_3  and  N_4
REMARK    4  A    between atoms: N_4  and  C_5
REMARK    5  A    between atoms: C_5  and  C_6
REMARK    6  A    between atoms: C_6  and  C_8
REMARK    7  A    between atoms: C_6  and  O_28
REMARK    8  A    between atoms: C_8  and  O_9
REMARK    9  A    between atoms: O_9  and  C_10
REMARK   10  A    between atoms: C_13  and  O_27
REMARK   11  A    between atoms: C_15  and  C_16
REMARK   12  A    between atoms: C_16  and  C_18
REMARK   13  A    between atoms: C_18  and  C_19
REMARK   14  A    between atoms: C_19  and  C_20
REMARK   15  A    between atoms: C_23  and  O_26
REMARK                            x       y       z     vdW  Elec       q    Type
REMARK                         _______ _______ _______ _____ _____    ______ ____
ROOT
ATOM      1  C   UNL     1      -5.388  -6.627   0.151  0.00  0.00    +0.131 A 
ATOM      2  C   UNL     1      -6.562  -5.894   0.065  0.00  0.00    +0.050 A 
ATOM      3  C   UNL     1      -7.784  -6.535   0.088  0.00  0.00    +0.049 A 
ATOM      4  C   UNL     1      -7.849  -7.920   0.198  0.00  0.00    +0.118 A 
ATOM      5  C   UNL     1      -6.691  -8.666   0.285  0.00  0.00    +0.060 A 
ATOM      6  C   UNL     1      -5.446  -8.026   0.257  0.00  0.00    +0.062 A 
ENDROOT
BRANCH   6   7
ATOM      7  C   UNL     1      -4.209  -8.811   0.343  0.00  0.00    +0.167 C 
ATOM      8  O   UNL     1      -3.133  -8.252   0.322  0.00  0.00    -0.292 OA
BRANCH   7   9
ATOM      9  C   UNL     1      -4.276 -10.312   0.456  0.00  0.00    +0.084 C 
BRANCH   9  10
ATOM     10  C   UNL     1      -2.858 -10.883   0.529  0.00  0.00    +0.043 C 
BRANCH  10  11
ATOM     11  C   UNL     1      -2.925 -12.384   0.643  0.00  0.00    -0.047 A 
ATOM     12  C   UNL     1      -2.987 -12.979   1.889  0.00  0.00    +0.007 A 
ATOM     13  C   UNL     1      -3.048 -14.355   1.996  0.00  0.00    +0.045 A 
ATOM     14  C   UNL     1      -3.049 -15.139   0.852  0.00  0.00    +0.117 A 
ATOM     15  C   UNL     1      -2.988 -14.539  -0.398  0.00  0.00    +0.045 A 
ATOM     16  C   UNL     1      -2.932 -13.163  -0.499  0.00  0.00    +0.007 A 
BRANCH  14  17
ATOM     17  O   UNL     1      -3.108 -16.493   0.954  0.00  0.00    -0.507 OA
ATOM     18  H   UNL     1      -4.008 -16.848   0.959  0.00  0.00    +0.292 HD
ENDBRANCH  14  17
ENDBRANCH  10  11
ENDBRANCH   9  10
ENDBRANCH   7   9
ENDBRANCH   6   7
BRANCH   4  19
ATOM     19  O   UNL     1      -9.059  -8.541   0.220  0.00  0.00    -0.507 OA
ATOM     20  H   UNL     1      -9.388  -8.792  -0.654  0.00  0.00    +0.292 HD
ENDBRANCH   4  19
BRANCH   1  21
ATOM     21  O   UNL     1      -4.188  -5.995   0.127  0.00  0.00    -0.489 OA
BRANCH  21  22
ATOM     22  C   UNL     1      -4.206  -4.570   0.018  0.00  0.00    +0.258 C 
BRANCH  22  23
ATOM     23  C   UNL     1      -2.771  -4.041   0.007  0.00  0.00    +0.135 C 
BRANCH  23  24
ATOM     24  O   UNL     1      -2.102  -4.502  -1.169  0.00  0.00    -0.390 OA
ATOM     25  H   UNL     1      -2.517  -4.217  -1.995  0.00  0.00    +0.210 HD
ENDBRANCH  23  24
BRANCH  23  26
ATOM     26  C   UNL     1      -2.792  -2.511   0.015  0.00  0.00    -0.048 C 
BRANCH  26  27
ATOM     27  N   UNL     1      -1.413  -2.002   0.005  0.00  0.00    +0.381 N 
ATOM     28  H   UNL     1      -0.941  -2.328  -0.825  0.00  0.00    -0.086 HD
ATOM     29  H   UNL     1      -0.925  -2.337   0.822  0.00  0.00    -0.086 HD
BRANCH  27  30
ATOM     30  C   UNL     1      -1.433  -0.534   0.013  0.00  0.00    -0.083 C 
BRANCH  30  32
ATOM     31  C   UNL     1      -0.019   1.526   0.010  0.00  0.00    +0.002 C 
ATOM     32  C   UNL     1       0.002  -0.004   0.002  0.00  0.00    -0.022 C 
ENDBRANCH  30  32
ENDBRANCH  27  30
ENDBRANCH  26  27
ENDBRANCH  23  26
ENDBRANCH  22  23
ENDBRANCH  21  22
ENDBRANCH   1  21
TORSDOF 14
