REMARK  Name = ZINC57037782
REMARK  13 active torsions:
REMARK  status: ('A' for Active; 'I' for Inactive)
REMARK    1  A    between atoms: C_1  and  C_2
REMARK    2  A    between atoms: C_2  and  C_4
REMARK    3  A    between atoms: C_2  and  N_16
REMARK    4  A    between atoms: C_7  and  O_12
REMARK    5  A    between atoms: C_8  and  O_10
REMARK    6  A    between atoms: O_10  and  C_11
REMARK    7  A    between atoms: O_12  and  C_13
REMARK    8  A    between atoms: C_13  and  C_14
REMARK    9  A    between atoms: C_14  and  O_15
REMARK   10  A    between atoms: N_19  and  C_20
REMARK   11  A    between atoms: C_20  and  C_21
REMARK   12  A    between atoms: N_27  and  C_28
REMARK   13  A    between atoms: N_27  and  C_29
REMARK                            x       y       z     vdW  Elec       q    Type
REMARK                         _______ _______ _______ _____ _____    ______ ____
ROOT
ATOM      1  N   UNL     1      -1.360  -0.468  -0.060  0.00  0.00    -0.293 N 
ATOM      2  C   UNL     1      -2.049  -0.619  -1.208  0.00  0.00    +0.300 C 
ATOM      3  O   UNL     1      -1.531  -0.330  -2.270  0.00  0.00    -0.253 OA
ATOM      4  N   UNL     1      -3.312  -1.089  -1.180  0.00  0.00    -0.295 N 
ATOM      5  H   UNL     1      -1.773  -0.697   0.787  0.00  0.00    +0.151 HD
ATOM      6  H   UNL     1      -3.725  -1.319  -0.333  0.00  0.00    +0.151 HD
ENDROOT
BRANCH   1   8
ATOM      7  C   UNL     1      -0.013   1.573  -0.105  0.00  0.00    +0.033 C 
ATOM      8  C   UNL     1       0.013   0.043  -0.091  0.00  0.00    +0.102 C 
BRANCH   8   9
ATOM      9  C   UNL     1       0.754  -0.435   1.130  0.00  0.00    -0.024 A 
ATOM     10  C   UNL     1       0.115  -0.474   2.355  0.00  0.00    +0.009 A 
ATOM     11  C   UNL     1       0.791  -0.912   3.478  0.00  0.00    +0.050 A 
ATOM     12  C   UNL     1       2.113  -1.314   3.378  0.00  0.00    +0.162 A 
ATOM     13  C   UNL     1       2.757  -1.276   2.145  0.00  0.00    +0.162 A 
ATOM     14  C   UNL     1       2.072  -0.840   1.022  0.00  0.00    +0.054 A 
BRANCH  13  15
ATOM     15  O   UNL     1       4.054  -1.670   2.041  0.00  0.00    -0.491 OA
ATOM     16  C   UNL     1       4.651  -1.604   0.745  0.00  0.00    +0.277 C 
ENDBRANCH  13  15
BRANCH  12  17
ATOM     17  O   UNL     1       2.780  -1.746   4.482  0.00  0.00    -0.486 OA
BRANCH  17  18
ATOM     18  C   UNL     1       2.056  -1.758   5.714  0.00  0.00    +0.257 C 
BRANCH  18  19
ATOM     19  C   UNL     1       2.963  -2.269   6.834  0.00  0.00    +0.196 C 
BRANCH  19  20
ATOM     20  O   UNL     1       4.037  -1.347   7.036  0.00  0.00    -0.392 OA
ATOM     21  H   UNL     1       4.654  -1.608   7.733  0.00  0.00    +0.210 HD
ENDBRANCH  19  20
ENDBRANCH  18  19
ENDBRANCH  17  18
ENDBRANCH  12  17
ENDBRANCH   8   9
ENDBRANCH   1   8
BRANCH   4  22
ATOM     22  C   UNL     1      -4.061  -1.253  -2.428  0.00  0.00    +0.141 C 
BRANCH  22  23
ATOM     23  C   UNL     1      -5.435  -1.790  -2.123  0.00  0.00    -0.026 A 
ATOM     24  C   UNL     1      -5.669  -3.158  -2.074  0.00  0.00    +0.023 A 
ATOM     25  C   UNL     1      -6.939  -3.617  -1.791  0.00  0.00    +0.084 A 
ATOM     26  N   UNL     1      -7.929  -2.775  -1.567  0.00  0.00    -0.350 N 
ATOM     27  C   UNL     1      -7.747  -1.464  -1.605  0.00  0.00    +0.098 A 
ATOM     28  C   UNL     1      -6.492  -0.931  -1.879  0.00  0.00    +0.047 A 
ATOM     29  N   UNL     1      -8.819  -0.612  -1.363  0.00  0.00    -0.323 N 
ATOM     30  C   UNL     1     -10.168  -1.160  -1.200  0.00  0.00    +0.130 C 
ATOM     31  C   UNL     1      -8.600   0.833  -1.271  0.00  0.00    +0.130 C 
ATOM     32  H   UNL     1      -8.813  -3.124  -1.370  0.00  0.00    +0.166 HD
ENDBRANCH  22  23
ENDBRANCH   4  22
TORSDOF 9
