REMARK  Name = ZINC37427914
REMARK  16 active torsions:
REMARK  status: ('A' for Active; 'I' for Inactive)
REMARK    1  A    between atoms: C_1  and  C_2
REMARK    2  A    between atoms: C_2  and  C_3
REMARK    3  A    between atoms: C_2  and  C_4
REMARK    4  A    between atoms: C_2  and  C_5
REMARK    5  A    between atoms: N_8  and  C_10
REMARK    6  A    between atoms: C_10  and  C_11
REMARK    7  A    between atoms: C_10  and  C_12
REMARK    8  A    between atoms: C_10  and  C_13
REMARK    9  A    between atoms: N_14  and  C_30
REMARK   10  A    between atoms: C_19  and  C_21
REMARK   11  A    between atoms: C_30  and  C_31
REMARK   12  A    between atoms: N_33  and  C_34
REMARK   13  A    between atoms: C_34  and  C_35
REMARK   14  A    between atoms: C_35  and  N_36
REMARK   15  A    between atoms: N_36  and  C_37
REMARK   16  A    between atoms: N_36  and  C_38
REMARK                            x       y       z     vdW  Elec       q    Type
REMARK                         _______ _______ _______ _____ _____    ______ ____
ROOT
ATOM      1  C   UNL     1      -1.671  -1.050  -1.995  0.00  0.00    +0.075 A 
ATOM      2  C   UNL     1      -2.137  -1.627  -3.177  0.00  0.00    +0.033 A 
ATOM      3  C   UNL     1      -1.830  -0.791  -4.196  0.00  0.00    +0.132 A 
ATOM      4  N   UNL     1      -1.196   0.280  -3.684  0.00  0.00    -0.244 N 
ATOM      5  N   UNL     1      -1.111   0.096  -2.296  0.00  0.00    -0.173 NA
ATOM      6  N   UNL     1      -2.139  -1.052  -5.540  0.00  0.00    -0.246 N 
ATOM      7  C   UNL     1      -1.834  -2.253  -6.043  0.00  0.00    +0.231 C 
ATOM      8  O   UNL     1      -2.346  -2.621  -7.079  0.00  0.00    -0.274 OA
ATOM      9  C   UNL     1      -0.862  -3.145  -5.332  0.00  0.00    +0.166 C 
ATOM     10  S   UNL     1      -1.713  -4.155  -4.074  0.00  0.00    -0.138 S 
ATOM     11  C   UNL     1      -2.860  -2.941  -3.329  0.00  0.00    +0.112 C 
ENDROOT
BRANCH  11  12
ATOM     12  C   UNL     1      -3.308  -3.431  -1.976  0.00  0.00    -0.026 A 
ATOM     13  C   UNL     1      -4.577  -3.128  -1.518  0.00  0.00    +0.009 A 
ATOM     14  C   UNL     1      -4.992  -3.576  -0.278  0.00  0.00    +0.050 A 
ATOM     15  C   UNL     1      -4.137  -4.331   0.509  0.00  0.00    +0.166 A 
ATOM     16  C   UNL     1      -2.859  -4.636   0.047  0.00  0.00    +0.167 A 
ATOM     17  C   UNL     1      -2.452  -4.189  -1.199  0.00  0.00    +0.054 A 
ATOM     18  O   UNL     1      -2.219  -5.381   0.995  0.00  0.00    -0.453 OA
ATOM     19  C   UNL     1      -2.968  -5.184   2.209  0.00  0.00    +0.466 C 
ATOM     20  O   UNL     1      -4.298  -4.885   1.746  0.00  0.00    -0.453 OA
ENDBRANCH  11  12
BRANCH   1  22
ATOM     21  C   UNL     1      -1.409  -0.586   0.427  0.00  0.00    +0.017 C 
ATOM     22  C   UNL     1      -1.796  -1.639  -0.613  0.00  0.00    +0.007 C 
ATOM     23  C   UNL     1      -0.866  -2.846  -0.487  0.00  0.00    +0.017 C 
ATOM     24  C   UNL     1      -3.242  -2.082  -0.377  0.00  0.00    +0.017 C 
ENDBRANCH   1  22
BRANCH   4  25
ATOM     25  C   UNL     1      -0.692   1.430  -4.439  0.00  0.00    +0.057 C 
ATOM     26  C   UNL     1      -1.517   1.605  -5.715  0.00  0.00    +0.036 C 
ATOM     27  C   UNL     1      -0.805   2.692  -3.581  0.00  0.00    +0.036 C 
ATOM     28  C   UNL     1       0.775   1.195  -4.808  0.00  0.00    +0.036 C 
ENDBRANCH   4  25
BRANCH   6  29
ATOM     29  C   UNL     1      -2.781  -0.033  -6.372  0.00  0.00    +0.210 C 
BRANCH  29  30
ATOM     30  C   UNL     1      -1.920   0.249  -7.577  0.00  0.00    +0.231 C 
ATOM     31  O   UNL     1      -1.079  -0.554  -7.921  0.00  0.00    -0.274 OA
ATOM     32  N   UNL     1      -2.084   1.393  -8.270  0.00  0.00    -0.316 N 
ATOM     33  H   UNL     1      -2.757   2.035  -7.994  0.00  0.00    +0.149 HD
BRANCH  32  34
ATOM     34  C   UNL     1      -1.247   1.666  -9.441  0.00  0.00    +0.085 C 
BRANCH  34  35
ATOM     35  C   UNL     1      -1.634   3.019 -10.040  0.00  0.00    -0.061 C 
BRANCH  35  36
ATOM     36  N   UNL     1      -0.795   3.293 -11.214  0.00  0.00    +0.377 N 
ATOM     37  C   UNL     1      -1.245   4.534 -11.860  0.00  0.00    -0.097 C 
ATOM     38  C   UNL     1       0.604   3.442 -10.792  0.00  0.00    -0.097 C 
ATOM     39  H   UNL     1      -0.870   2.528 -11.867  0.00  0.00    -0.083 HD
ENDBRANCH  35  36
ENDBRANCH  34  35
ENDBRANCH  32  34
ENDBRANCH  29  30
ENDBRANCH   6  29
TORSDOF 8
