REMARK  Name = ZINC58491219
REMARK  7 active torsions:
REMARK  status: ('A' for Active; 'I' for Inactive)
REMARK    1  A    between atoms: C_4  and  C_7
REMARK    2  A    between atoms: N_16  and  C_17
REMARK    3  A    between atoms: C_17  and  C_18
REMARK    4  A    between atoms: C_18  and  C_19
REMARK    5  A    between atoms: N_21  and  C_22
REMARK    6  A    between atoms: C_26  and  S_28
REMARK    7  A    between atoms: S_28  and  N_31
REMARK                            x       y       z     vdW  Elec       q    Type
REMARK                         _______ _______ _______ _____ _____    ______ ____
ROOT
ATOM      1  C   UNL     1       3.432  -1.434   2.226  0.00  0.00    -0.068 C 
ENDROOT
BRANCH   1  10
ATOM      2  C   UNL     1       3.704  -0.707  -0.038  0.00  0.00    -0.006 C 
ATOM      3  C   UNL     1       4.002  -1.174  -1.460  0.00  0.00    -0.047 A 
ATOM      4  C   UNL     1       3.770  -0.405  -2.598  0.00  0.00    +0.010 A 
ATOM      5  C   UNL     1       4.063  -0.902  -3.822  0.00  0.00    +0.045 A 
ATOM      6  S   UNL     1       4.697  -2.524  -3.419  0.00  0.00    -0.101 S 
ATOM      7  C   UNL     1       4.526  -2.416  -1.661  0.00  0.00    -0.010 A 
ATOM      8  C   UNL     1       4.864  -3.417  -0.606  0.00  0.00    +0.024 C 
ATOM      9  C   UNL     1       4.844  -2.688   0.749  0.00  0.00    -0.072 C 
ATOM     10  N   UNL     1       3.620  -1.880   0.839  0.00  0.00    +0.388 N 
ATOM     11  H   UNL     1       2.830  -2.445   0.563  0.00  0.00    -0.080 HD
BRANCH   2  15
ATOM     12  C   UNL     1      -0.011   1.402   0.026  0.00  0.00    +0.000 A 
ATOM     13  C   UNL     1       1.181   2.102   0.014  0.00  0.00    +0.000 A 
ATOM     14  C   UNL     1       2.383   1.419  -0.006  0.00  0.00    +0.002 A 
ATOM     15  C   UNL     1       2.393   0.037  -0.015  0.00  0.00    -0.057 A 
ATOM     16  C   UNL     1       1.202  -0.663  -0.003  0.00  0.00    +0.002 A 
ATOM     17  C   UNL     1      -0.001   0.019   0.017  0.00  0.00    +0.000 A 
ENDBRANCH   2  15
ENDBRANCH   1  10
BRANCH   1  18
ATOM     18  C   UNL     1       3.219  -2.651   3.129  0.00  0.00    +0.078 C 
BRANCH  18  19
ATOM     19  C   UNL     1       3.026  -2.193   4.551  0.00  0.00    +0.215 C 
ATOM     20  O   UNL     1       3.057  -1.010   4.817  0.00  0.00    -0.276 OA
ATOM     21  N   UNL     1       2.820  -3.099   5.529  0.00  0.00    -0.285 N 
ATOM     22  H   UNL     1       2.729  -4.039   5.307  0.00  0.00    +0.155 HD
BRANCH  21  23
ATOM     23  C   UNL     1       2.738  -2.683   6.862  0.00  0.00    +0.035 A 
ATOM     24  C   UNL     1       3.245  -3.487   7.874  0.00  0.00    +0.023 A 
ATOM     25  C   UNL     1       3.162  -3.073   9.189  0.00  0.00    +0.004 A 
ATOM     26  C   UNL     1       2.575  -1.860   9.499  0.00  0.00    +0.028 A 
ATOM     27  C   UNL     1       2.070  -1.057   8.493  0.00  0.00    +0.107 A 
ATOM     28  C   UNL     1       2.155  -1.462   7.175  0.00  0.00    +0.051 A 
BRANCH  27  29
ATOM     29  S   UNL     1       1.323   0.488   8.892  0.00  0.00    +0.056 S 
ATOM     30  O   UNL     1       0.440   0.801   7.824  0.00  0.00    -0.153 OA
ATOM     31  O   UNL     1       0.882   0.390  10.240  0.00  0.00    -0.153 OA
BRANCH  29  32
ATOM     32  N   UNL     1       2.520   1.632   8.867  0.00  0.00    -0.204 NA
ATOM     33  H   UNL     1       2.310   2.548   8.629  0.00  0.00    +0.144 HD
ATOM     34  H   UNL     1       3.431   1.385   9.092  0.00  0.00    +0.144 HD
ENDBRANCH  29  32
ENDBRANCH  27  29
ENDBRANCH  21  23
ENDBRANCH  18  19
ENDBRANCH   1  18
TORSDOF 7
