REMARK  Name = ZINC39631366
REMARK  13 active torsions:
REMARK  status: ('A' for Active; 'I' for Inactive)
REMARK    1  A    between atoms: C_1  and  C_2
REMARK    2  A    between atoms: C_2  and  C_3
REMARK    3  A    between atoms: C_6  and  C_9
REMARK    4  A    between atoms: C_13  and  C_22
REMARK    5  A    between atoms: N_24  and  C_25
REMARK    6  A    between atoms: C_25  and  C_27
REMARK    7  A    between atoms: C_25  and  C_28
REMARK    8  A    between atoms: C_28  and  C_29
REMARK    9  A    between atoms: C_29  and  C_30
REMARK   10  A    between atoms: C_30  and  C_31
REMARK   11  A    between atoms: C_31  and  C_32
REMARK   12  A    between atoms: C_31  and  C_33
REMARK   13  A    between atoms: C_31  and  O_34
REMARK                            x       y       z     vdW  Elec       q    Type
REMARK                         _______ _______ _______ _____ _____    ______ ____
ROOT
ATOM      1  C   UNL     1       2.695  -1.860  -4.730  0.00  0.00    +0.247 C 
ATOM      2  O   UNL     1       2.051  -2.164  -5.715  0.00  0.00    -0.270 OA
ATOM      3  N   UNL     1       4.038  -1.976  -4.740  0.00  0.00    -0.296 N 
ATOM      4  C   UNL     1       4.975  -1.780  -3.609  0.00  0.00    +0.121 C 
ATOM      5  C   UNL     1       6.036  -2.890  -3.785  0.00  0.00    +0.100 C 
ATOM      6  C   UNL     1       5.990  -3.243  -5.282  0.00  0.00    -0.004 C 
ATOM      7  C   UNL     1       4.910  -2.333  -5.885  0.00  0.00    +0.115 C 
ATOM      8  C   UNL     1       5.602  -4.706  -5.467  0.00  0.00    -0.010 C 
ATOM      9  C   UNL     1       5.619  -5.048  -6.960  0.00  0.00    -0.082 C 
ATOM     10  N   UNL     1       6.960  -4.803  -7.505  0.00  0.00    +0.379 N 
ATOM     11  C   UNL     1       7.288  -3.376  -7.406  0.00  0.00    -0.082 C 
ATOM     12  C   UNL     1       7.341  -2.963  -5.932  0.00  0.00    -0.010 C 
ATOM     13  H   UNL     1       7.637  -5.339  -6.983  0.00  0.00    -0.086 HD
ATOM     14  H   UNL     1       6.985  -5.087  -8.473  0.00  0.00    -0.086 HD
ENDROOT
BRANCH   1  18
ATOM     15  C   UNL     1       0.713  -0.438  -1.253  0.00  0.00    -0.048 A 
ATOM     16  C   UNL     1       0.034  -1.239  -2.153  0.00  0.00    +0.004 A 
ATOM     17  C   UNL     1       0.672  -1.704  -3.284  0.00  0.00    +0.013 A 
ATOM     18  C   UNL     1       2.005  -1.365  -3.520  0.00  0.00    +0.037 A 
ATOM     19  C   UNL     1       2.684  -0.556  -2.607  0.00  0.00    +0.013 A 
ATOM     20  C   UNL     1       2.033  -0.093  -1.483  0.00  0.00    +0.004 A 
BRANCH  15  22
ATOM     21  C   UNL     1      -0.660   1.408  -0.326  0.00  0.00    +0.009 C 
ATOM     22  C   UNL     1       0.010   0.067  -0.019  0.00  0.00    +0.032 C 
ENDBRANCH  15  22
ENDBRANCH   1  18
BRANCH   5  23
ATOM     23  C   UNL     1       7.401  -2.375  -3.407  0.00  0.00    +0.218 C 
ATOM     24  O   UNL     1       7.641  -1.188  -3.470  0.00  0.00    -0.275 OA
ATOM     25  N   UNL     1       8.355  -3.234  -2.998  0.00  0.00    -0.312 N 
ATOM     26  H   UNL     1       8.164  -4.184  -2.947  0.00  0.00    +0.149 HD
BRANCH  25  27
ATOM     27  C   UNL     1       9.682  -2.734  -2.630  0.00  0.00    +0.070 C 
ATOM     28  C   UNL     1      10.545  -2.604  -3.887  0.00  0.00    +0.028 C 
BRANCH  27  29
ATOM     29  C   UNL     1      10.344  -3.712  -1.657  0.00  0.00    +0.022 C 
BRANCH  29  30
ATOM     30  C   UNL     1       9.548  -3.748  -0.350  0.00  0.00    +0.005 C 
BRANCH  30  31
ATOM     31  C   UNL     1      10.210  -4.726   0.623  0.00  0.00    +0.034 C 
BRANCH  31  32
ATOM     32  C   UNL     1       9.414  -4.762   1.929  0.00  0.00    +0.061 C 
ATOM     33  C   UNL     1      10.143  -5.642   2.946  0.00  0.00    +0.041 C 
ATOM     34  C   UNL     1       9.283  -3.342   2.486  0.00  0.00    +0.041 C 
BRANCH  32  35
ATOM     35  O   UNL     1       8.114  -5.298   1.680  0.00  0.00    -0.389 OA
ATOM     36  H   UNL     1       7.553  -5.351   2.466  0.00  0.00    +0.210 HD
ENDBRANCH  32  35
ENDBRANCH  31  32
ENDBRANCH  30  31
ENDBRANCH  29  30
ENDBRANCH  27  29
ENDBRANCH  25  27
ENDBRANCH   5  23
TORSDOF 9
