REMARK  Name = ZINC05945330
REMARK  12 active torsions:
REMARK  status: ('A' for Active; 'I' for Inactive)
REMARK    1  A    between atoms: C_1  and  C_2
REMARK    2  A    between atoms: C_2  and  C_30
REMARK    3  A    between atoms: C_4  and  N_10
REMARK    4  A    between atoms: C_6  and  C_8
REMARK    5  A    between atoms: C_6  and  C_9
REMARK    6  A    between atoms: N_10  and  C_11
REMARK    7  A    between atoms: N_10  and  C_18
REMARK    8  A    between atoms: C_11  and  C_12
REMARK    9  A    between atoms: C_18  and  N_20
REMARK   10  A    between atoms: N_20  and  C_21
REMARK   11  A    between atoms: C_23  and  O_28
REMARK   12  A    between atoms: O_28  and  C_29
REMARK                            x       y       z     vdW  Elec       q    Type
REMARK                         _______ _______ _______ _____ _____    ______ ____
ROOT
ATOM      1  N   UNL     1       1.097   3.079  -3.456  0.00  0.00    -0.304 N 
ENDROOT
BRANCH   1   5
ATOM      2  C   UNL     1       1.506   3.937   1.362  0.00  0.00    -0.010 C 
ATOM      3  C   UNL     1       0.815   3.018   0.329  0.00  0.00    -0.072 C 
ATOM      4  C   UNL     1       1.378   3.369  -1.046  0.00  0.00    +0.009 C 
ATOM      5  C   UNL     1       0.548   2.708  -2.146  0.00  0.00    +0.073 C 
ATOM      6  C   UNL     1      -0.890   3.216  -2.041  0.00  0.00    +0.009 C 
ATOM      7  C   UNL     1      -1.480   2.862  -0.678  0.00  0.00    -0.072 C 
ATOM      8  N   UNL     1      -0.615   3.226   0.424  0.00  0.00    +0.386 N 
ATOM      9  C   UNL     1      -1.825   1.369  -0.641  0.00  0.00    -0.010 C 
ATOM     10  C   UNL     1      -2.806   3.642  -0.529  0.00  0.00    -0.010 C 
ATOM     11  C   UNL     1       1.190   1.575   0.684  0.00  0.00    -0.010 C 
ATOM     12  H   UNL     1      -1.013   2.651   1.273  0.00  0.00    -0.084 HD
ATOM     13  H   UNL     1      -0.821   4.296   0.578  0.00  0.00    -0.084 HD
ENDBRANCH   1   5
BRANCH   1  14
ATOM     14  C   UNL     1       1.572   2.125  -4.282  0.00  0.00    +0.138 C 
ATOM     15  S   UNL     1       2.307   2.565  -5.764  0.00  0.00    -0.018 S 
BRANCH  14  16
ATOM     16  N   UNL     1       1.469   0.825  -3.941  0.00  0.00    -0.295 N 
ATOM     17  H   UNL     1       0.751   0.175  -4.463  0.00  0.00    +0.154 HD
BRANCH  16  18
ATOM     18  C   UNL     1       2.274   0.303  -2.922  0.00  0.00    +0.055 A 
ATOM     19  C   UNL     1       3.279   1.080  -2.363  0.00  0.00    +0.070 A 
ATOM     20  C   UNL     1       4.074   0.559  -1.355  0.00  0.00    +0.122 A 
ATOM     21  C   UNL     1       3.865  -0.738  -0.906  0.00  0.00    +0.047 A 
ATOM     22  C   UNL     1       2.864  -1.511  -1.464  0.00  0.00    +0.025 A 
ATOM     23  C   UNL     1       2.064  -0.993  -2.466  0.00  0.00    +0.062 A 
ATOM     24 CL   UNL     1       0.803  -1.964  -3.158  0.00  0.00    -0.082 Cl
BRANCH  20  25
ATOM     25  O   UNL     1       5.059   1.318  -0.805  0.00  0.00    -0.495 OA
ATOM     26  C   UNL     1       5.840   0.717   0.230  0.00  0.00    +0.277 C 
ENDBRANCH  20  25
ENDBRANCH  16  18
ENDBRANCH  14  16
ENDBRANCH   1  14
BRANCH   1  27
ATOM     27  C   UNL     1       1.129   4.485  -3.865  0.00  0.00    +0.162 C 
BRANCH  27  28
ATOM     28  C   UNL     1       2.429   5.107  -3.425  0.00  0.00    +0.058 A 
ATOM     29  C   UNL     1       3.494   5.160  -4.306  0.00  0.00    +0.025 A 
ATOM     30  C   UNL     1       4.683   5.740  -3.893  0.00  0.00    +0.003 A 
ATOM     31  C   UNL     1       4.763   6.236  -2.601  0.00  0.00    +0.020 A 
ATOM     32  C   UNL     1       3.659   6.141  -1.774  0.00  0.00    +0.111 A 
ATOM     33  N   UNL     1       2.541   5.588  -2.203  0.00  0.00    -0.258 NA
ENDBRANCH  27  28
ENDBRANCH   1  27
TORSDOF 7
