REMARK  Name = ZINC67574761
REMARK  9 active torsions:
REMARK  status: ('A' for Active; 'I' for Inactive)
REMARK    1  A    between atoms: C_1  and  C_2
REMARK    2  A    between atoms: C_2  and  C_3
REMARK    3  A    between atoms: C_2  and  C_4
REMARK    4  A    between atoms: C_2  and  O_5
REMARK    5  A    between atoms: O_5  and  C_6
REMARK    6  A    between atoms: N_8  and  C_9
REMARK    7  A    between atoms: C_9  and  C_10
REMARK    8  A    between atoms: N_16  and  C_19
REMARK    9  A    between atoms: C_19  and  C_20
REMARK                            x       y       z     vdW  Elec       q    Type
REMARK                         _______ _______ _______ _____ _____    ______ ____
ROOT
ATOM      1  C   UNL     1       4.498  -1.006  -3.151  0.00  0.00    +0.233 C 
ATOM      2  O   UNL     1       3.765  -1.619  -3.899  0.00  0.00    -0.274 OA
ATOM      3  N   UNL     1       5.724  -0.631  -3.567  0.00  0.00    -0.302 N 
ATOM      4  C   UNL     1       6.597   0.108  -2.633  0.00  0.00    +0.106 C 
ATOM      5  C   UNL     1       8.050  -0.392  -2.719  0.00  0.00    +0.000 C 
ATOM      6  C   UNL     1       8.057  -1.897  -2.863  0.00  0.00    -0.077 C 
ATOM      7  N   UNL     1       8.106  -2.246  -4.281  0.00  0.00    +0.386 N 
ATOM      8  C   UNL     1       6.846  -2.344  -4.914  0.00  0.00    -0.059 C 
ATOM      9  C   UNL     1       6.141  -0.974  -4.911  0.00  0.00    +0.089 C 
ATOM     10  H   UNL     1       8.650  -1.547  -4.763  0.00  0.00    -0.081 HD
ENDROOT
BRANCH   1  11
ATOM     11  C   UNL     1       4.037  -0.664  -1.758  0.00  0.00    +0.203 C 
BRANCH  11  14
ATOM     12  C   UNL     1       2.060  -0.988  -0.371  0.00  0.00    +0.401 C 
ATOM     13  O   UNL     1       2.626  -0.391   0.524  0.00  0.00    -0.226 OA
ATOM     14  N   UNL     1       2.681  -1.177  -1.552  0.00  0.00    -0.273 N 
ATOM     15  H   UNL     1       2.229  -1.654  -2.266  0.00  0.00    +0.153 HD
BRANCH  12  16
ATOM     16  O   UNL     1       0.814  -1.460  -0.181  0.00  0.00    -0.445 OA
BRANCH  16  18
ATOM     17  C   UNL     1       0.128   0.284   1.345  0.00  0.00    +0.055 C 
ATOM     18  C   UNL     1       0.217  -1.223   1.095  0.00  0.00    +0.107 C 
ATOM     19  C   UNL     1       1.072  -1.871   2.186  0.00  0.00    +0.055 C 
ATOM     20  C   UNL     1      -1.188  -1.828   1.121  0.00  0.00    +0.055 C 
ENDBRANCH  16  18
ENDBRANCH  12  16
ENDBRANCH  11  14
ENDBRANCH   1  11
BRANCH   7  21
ATOM     21  C   UNL     1       8.794  -3.537  -4.418  0.00  0.00    +0.018 C 
BRANCH  21  22
ATOM     22  C   UNL     1      10.239  -3.380  -4.018  0.00  0.00    +0.194 C 
ATOM     23  O   UNL     1      10.680  -2.280  -3.759  0.00  0.00    -0.278 OA
ATOM     24  N   UNL     1      11.040  -4.461  -3.949  0.00  0.00    -0.331 N 
ATOM     25  H   UNL     1      10.687  -5.341  -4.157  0.00  0.00    +0.145 HD
ATOM     26  H   UNL     1      11.970  -4.360  -3.692  0.00  0.00    +0.145 HD
ENDBRANCH  21  22
ENDBRANCH   7  21
TORSDOF 6
