REMARK  Name = ZINC13474052
REMARK  12 active torsions:
REMARK  status: ('A' for Active; 'I' for Inactive)
REMARK    1  A    between atoms: C_1  and  C_2
REMARK    2  A    between atoms: C_4  and  O_21
REMARK    3  A    between atoms: C_6  and  O_9
REMARK    4  A    between atoms: O_9  and  C_10
REMARK    5  A    between atoms: C_12  and  C_19
REMARK    6  A    between atoms: C_14  and  O_18
REMARK    7  A    between atoms: C_15  and  O_16
REMARK    8  A    between atoms: O_16  and  C_17
REMARK    9  A    between atoms: O_21  and  C_22
REMARK   10  A    between atoms: C_26  and  C_28
REMARK   11  A    between atoms: N_30  and  C_31
REMARK   12  A    between atoms: N_30  and  C_32
REMARK                            x       y       z     vdW  Elec       q    Type
REMARK                         _______ _______ _______ _____ _____    ______ ____
ROOT
ATOM      1  C   UNL     1       0.590   1.130   0.159  0.00  0.00    +0.050 C 
ATOM      2  C   UNL     1       2.034   1.246  -0.257  0.00  0.00    +0.030 A 
ATOM      3  C   UNL     1       2.386   1.265  -1.598  0.00  0.00    +0.191 A 
ATOM      4  C   UNL     1       3.727   1.373  -1.946  0.00  0.00    +0.260 A 
ATOM      5  N   UNL     1       4.663   1.456  -1.013  0.00  0.00    -0.172 NA
ATOM      6  C   UNL     1       4.361   1.442   0.275  0.00  0.00    +0.260 A 
ATOM      7  C   UNL     1       3.040   1.336   0.694  0.00  0.00    +0.191 A 
ATOM      8  F   UNL     1       2.740   1.327   2.011  0.00  0.00    -0.200 F 
ATOM      9  F   UNL     1       1.437   1.178  -2.556  0.00  0.00    -0.200 F 
ENDROOT
BRANCH   6  10
ATOM     10  O   UNL     1       5.353   1.532   1.197  0.00  0.00    -0.432 OA
BRANCH  10  11
ATOM     11  C   UNL     1       5.066   2.123   2.388  0.00  0.00    +0.176 A 
ATOM     12  C   UNL     1       4.647   1.354   3.459  0.00  0.00    +0.061 A 
ATOM     13  C   UNL     1       4.353   1.962   4.680  0.00  0.00    +0.019 A 
ATOM     14  C   UNL     1       4.483   3.344   4.818  0.00  0.00    +0.060 A 
ATOM     15  C   UNL     1       4.903   4.110   3.745  0.00  0.00    +0.163 A 
ATOM     16  C   UNL     1       5.200   3.501   2.530  0.00  0.00    +0.204 A 
BRANCH  13  17
ATOM     17  C   UNL     1       3.905   1.141   5.827  0.00  0.00    +0.095 C 
ATOM     18  N   UNL     1       3.808   1.705   7.080  0.00  0.00    -0.345 N 
ATOM     19  H   UNL     1       3.315  -0.738   6.343  0.00  0.00    +0.157 HD
ATOM     20  H   UNL     1       3.954   2.656   7.197  0.00  0.00    +0.144 HD
ATOM     21  H   UNL     1       3.593   1.149   7.846  0.00  0.00    +0.144 HD
ATOM     22  N   UNL     1       3.611  -0.127   5.582  0.00  0.00    -0.387 N 
ATOM     23  H   UNL     1       3.681  -0.495   4.626  0.00  0.00    +0.157 HD
ENDBRANCH  13  17
BRANCH  16  24
ATOM     24  O   UNL     1       5.618   4.254   1.478  0.00  0.00    -0.488 OA
ATOM     25  C   UNL     1       4.608   4.769   0.607  0.00  0.00    +0.277 C 
ENDBRANCH  16  24
BRANCH  15  26
ATOM     26  O   UNL     1       5.029   5.457   3.880  0.00  0.00    -0.503 OA
ATOM     27  H   UNL     1       5.906   5.742   4.173  0.00  0.00    +0.292 HD
ENDBRANCH  15  26
ENDBRANCH  10  11
ENDBRANCH   6  10
BRANCH   4  28
ATOM     28  O   UNL     1       4.082   1.391  -3.256  0.00  0.00    -0.436 OA
BRANCH  28  29
ATOM     29  C   UNL     1       3.813   0.290  -4.006  0.00  0.00    +0.131 A 
ATOM     30  C   UNL     1       2.532   0.082  -4.499  0.00  0.00    +0.046 A 
ATOM     31  C   UNL     1       2.253  -1.036  -5.262  0.00  0.00    +0.004 A 
ATOM     32  C   UNL     1       3.246  -1.953  -5.539  0.00  0.00    +0.013 A 
ATOM     33  C   UNL     1       4.537  -1.753  -5.048  0.00  0.00    +0.040 A 
ATOM     34  C   UNL     1       4.819  -0.621  -4.282  0.00  0.00    +0.059 A 
BRANCH  33  35
ATOM     35  C   UNL     1       5.604  -2.733  -5.344  0.00  0.00    +0.246 C 
ATOM     36  O   UNL     1       5.676  -3.240  -6.446  0.00  0.00    -0.270 OA
ATOM     37  N   UNL     1       6.497  -3.064  -4.390  0.00  0.00    -0.304 N 
ATOM     38  C   UNL     1       7.569  -4.017  -4.690  0.00  0.00    +0.132 C 
ATOM     39  C   UNL     1       6.396  -2.472  -3.054  0.00  0.00    +0.132 C 
ENDBRANCH  33  35
ENDBRANCH  28  29
ENDBRANCH   4  28
TORSDOF 8
