REMARK  Name = ZINC45245374
REMARK  11 active torsions:
REMARK  status: ('A' for Active; 'I' for Inactive)
REMARK    1  A    between atoms: C_1  and  C_2
REMARK    2  A    between atoms: C_2  and  O_3
REMARK    3  A    between atoms: O_3  and  C_4
REMARK    4  A    between atoms: C_7  and  N_10
REMARK    5  A    between atoms: N_10  and  C_11
REMARK    6  A    between atoms: C_12  and  C_31
REMARK    7  A    between atoms: C_13  and  N_22
REMARK    8  A    between atoms: C_14  and  C_20
REMARK    9  A    between atoms: N_22  and  C_23
REMARK   10  A    between atoms: C_23  and  C_24
REMARK   11  A    between atoms: C_24  and  C_25
REMARK                            x       y       z     vdW  Elec       q    Type
REMARK                         _______ _______ _______ _____ _____    ______ ____
ROOT
ATOM      1  C   UNL     1       1.699  -6.370  -2.999  0.00  0.00    +0.130 A 
ATOM      2  C   UNL     1       1.759  -7.704  -3.256  0.00  0.00    +0.012 A 
ATOM      3  C   UNL     1       2.359  -8.190  -4.423  0.00  0.00    +0.053 A 
ATOM      4  C   UNL     1       2.905  -7.278  -5.340  0.00  0.00    +0.098 A 
ATOM      5  C   UNL     1       2.820  -5.848  -5.029  0.00  0.00    +0.088 A 
ATOM      6  N   UNL     1       2.213  -5.445  -3.868  0.00  0.00    -0.217 N 
ATOM      7  N   UNL     1       2.268  -4.045  -3.833  0.00  0.00    -0.173 NA
ATOM      8  C   UNL     1       2.871  -3.615  -4.916  0.00  0.00    +0.135 A 
ATOM      9  C   UNL     1       3.241  -4.710  -5.690  0.00  0.00    +0.050 A 
ATOM     10  C   UNL     1       1.170  -8.676  -2.265  0.00  0.00    +0.049 C 
ENDROOT
BRANCH   1  11
ATOM     11  N   UNL     1       1.099  -5.937  -1.836  0.00  0.00    -0.299 N 
ATOM     12  H   UNL     1       0.173  -6.165  -1.654  0.00  0.00    +0.154 HD
BRANCH  11  16
ATOM     13  C   UNL     1       3.259  -3.648   0.897  0.00  0.00    +0.121 A 
ATOM     14  C   UNL     1       1.900  -3.850   1.084  0.00  0.00    +0.047 A 
ATOM     15  C   UNL     1       1.183  -4.608   0.179  0.00  0.00    +0.027 A 
ATOM     16  C   UNL     1       1.824  -5.168  -0.919  0.00  0.00    +0.033 A 
ATOM     17  C   UNL     1       3.185  -4.965  -1.105  0.00  0.00    +0.027 A 
ATOM     18  C   UNL     1       3.899  -4.202  -0.202  0.00  0.00    +0.047 A 
BRANCH  13  19
ATOM     19  O   UNL     1       3.964  -2.901   1.789  0.00  0.00    -0.492 OA
BRANCH  19  21
ATOM     20  C   UNL     1       4.195  -1.558   3.784  0.00  0.00    +0.048 C 
ATOM     21  C   UNL     1       3.242  -2.361   2.897  0.00  0.00    +0.225 C 
ENDBRANCH  19  21
ENDBRANCH  13  19
ENDBRANCH  11  16
ENDBRANCH   1  11
BRANCH   4  22
ATOM     22  C   UNL     1       3.528  -7.732  -6.546  0.00  0.00    +0.103 C 
ATOM     23  N   UNL     1       4.022  -8.092  -7.504  0.00  0.00    -0.191 NA
ENDBRANCH   4  22
BRANCH   3  24
ATOM     24  N   UNL     1       2.413  -9.552  -4.670  0.00  0.00    -0.343 N 
ATOM     25  H   UNL     1       2.034 -10.176  -4.031  0.00  0.00    +0.146 HD
BRANCH  24  26
ATOM     26  C   UNL     1       3.044 -10.049  -5.895  0.00  0.00    +0.100 C 
BRANCH  26  27
ATOM     27  C   UNL     1       2.971 -11.577  -5.922  0.00  0.00    +0.003 C 
BRANCH  27  28
ATOM     28  C   UNL     1       3.629 -12.097  -7.202  0.00  0.00    -0.070 C 
ATOM     29  C   UNL     1       3.488 -13.632  -7.278  0.00  0.00    -0.018 C 
ATOM     30  C   UNL     1       4.850 -14.078  -7.872  0.00  0.00    -0.021 C 
ATOM     31  C   UNL     1       5.823 -13.063  -7.222  0.00  0.00    -0.082 C 
ATOM     32  N   UNL     1       5.070 -11.787  -7.186  0.00  0.00    +0.381 N 
ATOM     33  H   UNL     1       5.307 -11.228  -7.992  0.00  0.00    -0.086 HD
ATOM     34  H   UNL     1       5.300 -11.281  -6.343  0.00  0.00    -0.086 HD
ENDBRANCH  27  28
ENDBRANCH  26  27
ENDBRANCH  24  26
ENDBRANCH   3  24
TORSDOF 9
