REMARK  Name = ZINC34783364
REMARK  8 active torsions:
REMARK  status: ('A' for Active; 'I' for Inactive)
REMARK    1  A    between atoms: C_1  and  C_2
REMARK    2  A    between atoms: C_2  and  N_3
REMARK    3  A    between atoms: C_6  and  C_13
REMARK    4  A    between atoms: C_7  and  C_9
REMARK    5  A    between atoms: N_11  and  N_12
REMARK    6  A    between atoms: N_16  and  C_19
REMARK    7  A    between atoms: C_19  and  C_20
REMARK    8  A    between atoms: N_22  and  C_23
REMARK                            x       y       z     vdW  Elec       q    Type
REMARK                         _______ _______ _______ _____ _____    ______ ____
ROOT
ATOM      1  N   UNL     1       0.688  -0.476  -1.203  0.00  0.00    -0.287 N 
ATOM      2  C   UNL     1      -0.030  -0.700  -2.345  0.00  0.00    +0.097 A 
ATOM      3  C   UNL     1       0.595  -1.151  -3.516  0.00  0.00    +0.074 A 
ATOM      4  C   UNL     1      -0.247  -1.344  -4.619  0.00  0.00    -0.017 A 
ATOM      5  C   UNL     1      -1.574  -1.075  -4.443  0.00  0.00    +0.081 A 
ATOM      6  S   UNL     1      -1.646  -0.554  -2.741  0.00  0.00    -0.065 S 
ATOM      7  C   UNL     1       0.289  -1.826  -5.942  0.00  0.00    +0.046 C 
ATOM      8  C   UNL     1       2.060  -1.363  -3.421  0.00  0.00    +0.266 A 
ATOM      9  O   UNL     1       2.689  -1.753  -4.387  0.00  0.00    -0.267 OA
ATOM     10  N   UNL     1       2.684  -1.117  -2.256  0.00  0.00    -0.251 N 
ATOM     11  C   UNL     1       2.018  -0.680  -1.175  0.00  0.00    +0.333 A 
ATOM     12  O   UNL     1       2.630  -0.468  -0.146  0.00  0.00    -0.246 OA
ENDROOT
BRANCH   5  13
ATOM     13  C   UNL     1      -2.666  -1.187  -5.413  0.00  0.00    +0.264 C 
ATOM     14  O   UNL     1      -2.436  -1.564  -6.548  0.00  0.00    -0.268 OA
ATOM     15  N   UNL     1      -3.925  -0.873  -5.049  0.00  0.00    -0.249 N 
ATOM     16  H   UNL     1      -4.108  -0.573  -4.145  0.00  0.00    +0.169 HD
BRANCH  15  17
ATOM     17  N   UNL     1      -4.943  -0.978  -5.954  0.00  0.00    -0.254 NA
ATOM     18  H   UNL     1      -5.824  -0.710  -5.540  0.00  0.00    +0.140 HD
ATOM     19  H   UNL     1      -4.751  -0.430  -6.779  0.00  0.00    +0.140 HD
ENDBRANCH  15  17
ENDBRANCH   5  13
BRANCH   1  21
ATOM     20  C   UNL     1      -0.019   1.526   0.010  0.00  0.00    +0.027 C 
ATOM     21  C   UNL     1       0.002  -0.004   0.002  0.00  0.00    +0.124 C 
ENDBRANCH   1  21
BRANCH  10  22
ATOM     22  C   UNL     1       4.131  -1.326  -2.165  0.00  0.00    +0.225 C 
BRANCH  22  23
ATOM     23  C   UNL     1       4.847  -0.052  -2.535  0.00  0.00    +0.233 C 
ATOM     24  O   UNL     1       4.211   0.933  -2.845  0.00  0.00    -0.274 OA
ATOM     25  N   UNL     1       6.194  -0.009  -2.522  0.00  0.00    -0.311 N 
ATOM     26  H   UNL     1       6.703  -0.796  -2.275  0.00  0.00    +0.149 HD
BRANCH  25  27
ATOM     27  C   UNL     1       6.890   1.229  -2.882  0.00  0.00    +0.073 C 
ATOM     28  C   UNL     1       7.048   1.302  -4.402  0.00  0.00    +0.022 C 
ATOM     29  C   UNL     1       7.775   2.595  -4.779  0.00  0.00    +0.002 C 
ATOM     30  C   UNL     1       9.156   2.613  -4.120  0.00  0.00    +0.000 C 
ATOM     31  C   UNL     1       8.998   2.541  -2.600  0.00  0.00    +0.002 C 
ATOM     32  C   UNL     1       8.271   1.248  -2.224  0.00  0.00    +0.022 C 
ENDBRANCH  25  27
ENDBRANCH  22  23
ENDBRANCH  10  22
TORSDOF 6
