REMARK  Name = ZINC06189439
REMARK  4 active torsions:
REMARK  status: ('A' for Active; 'I' for Inactive)
REMARK    1  A    between atoms: C_6  and  N_7
REMARK    2  A    between atoms: N_7  and  C_8
REMARK    3  A    between atoms: C_8  and  C_9
REMARK    4  A    between atoms: N_11  and  N_12
REMARK                            x       y       z     vdW  Elec       q    Type
REMARK                         _______ _______ _______ _____ _____    ______ ____
ROOT
ATOM      1  C   UNL     1      -2.589  -2.708   0.013  0.00  0.00    +0.246 C 
ATOM      2  O   UNL     1      -3.522  -1.934   0.027  0.00  0.00    -0.273 OA
ATOM      3  N   UNL     1      -2.816  -4.037   0.008  0.00  0.00    -0.234 N 
ATOM      4  H   UNL     1      -2.069  -4.656  -0.002  0.00  0.00    +0.173 HD
ENDROOT
BRANCH   3   5
ATOM      5  N   UNL     1      -4.129  -4.524   0.019  0.00  0.00    -0.254 N 
ATOM      6  C   UNL     1      -4.360  -5.874   0.014  0.00  0.00    +0.084 C 
ATOM      7  C   UNL     1      -5.733  -6.509   0.018  0.00  0.00    +0.072 C 
ATOM      8  C   UNL     1      -5.466  -7.973  -0.405  0.00  0.00    +0.028 C 
ATOM      9  C   UNL     1      -3.983  -8.133   0.004  0.00  0.00    +0.114 C 
ATOM     10  N   UNL     1      -3.437  -6.771  -0.001  0.00  0.00    -0.375 N 
ATOM     11  H   UNL     1      -4.876  -3.904   0.029  0.00  0.00    +0.171 HD
ATOM     12  H   UNL     1      -2.488  -6.569  -0.011  0.00  0.00    +0.161 HD
ENDBRANCH   3   5
BRANCH   1  13
ATOM     13  C   UNL     1      -1.176  -2.185   0.002  0.00  0.00    +0.199 C 
BRANCH  13  14
ATOM     14  N   UNL     1      -1.197  -0.720   0.010  0.00  0.00    -0.335 N 
ATOM     15  H   UNL     1      -2.044  -0.248   0.021  0.00  0.00    +0.147 HD
BRANCH  14  21
ATOM     16  C   UNL     1      -0.017   1.385   0.010  0.00  0.00    +0.024 A 
ATOM     17  C   UNL     1       1.171   2.090   0.002  0.00  0.00    +0.016 A 
ATOM     18  C   UNL     1       2.378   1.415  -0.013  0.00  0.00    +0.013 A 
ATOM     19  C   UNL     1       2.400   0.032  -0.022  0.00  0.00    +0.016 A 
ATOM     20  C   UNL     1       1.216  -0.679  -0.014  0.00  0.00    +0.024 A 
ATOM     21  C   UNL     1       0.002  -0.004   0.002  0.00  0.00    +0.028 A 
ATOM     22  I   UNL     1       4.176   2.489  -0.026  0.00  0.00    -0.044 I 
ENDBRANCH  14  21
ENDBRANCH  13  14
ENDBRANCH   1  13
TORSDOF 4
