REMARK  Name = ZINC44645085
REMARK  3 active torsions:
REMARK  status: ('A' for Active; 'I' for Inactive)
REMARK    1  A    between atoms: C_1  and  C_2
REMARK    2  A    between atoms: C_2  and  C_4
REMARK    3  A    between atoms: C_2  and  N_9
REMARK                            x       y       z     vdW  Elec       q    Type
REMARK                         _______ _______ _______ _____ _____    ______ ____
ROOT
ATOM      1  N   UNL     1       0.688  -0.476  -1.203  0.00  0.00    -0.157 N 
ATOM      2  C   UNL     1       0.346  -0.236  -2.478  0.00  0.00    +0.268 C 
ATOM      3  O   UNL     1      -0.627   0.440  -2.747  0.00  0.00    -0.268 OA
ATOM      4  C   UNL     1       1.182  -0.813  -3.541  0.00  0.00    +0.066 A 
ATOM      5  C   UNL     1       1.057  -0.723  -4.938  0.00  0.00    +0.030 A 
ATOM      6  C   UNL     1       1.966  -1.351  -5.759  0.00  0.00    +0.019 A 
ATOM      7  C   UNL     1       3.017  -2.082  -5.230  0.00  0.00    +0.017 A 
ATOM      8  C   UNL     1       3.155  -2.181  -3.853  0.00  0.00    +0.030 A 
ATOM      9  C   UNL     1       2.255  -1.559  -3.036  0.00  0.00    +0.121 A 
ATOM     10  S   UNL     1       2.065  -1.423  -1.279  0.00  0.00    +0.078 S 
ATOM     11  O   UNL     1       3.149  -0.648  -0.784  0.00  0.00    -0.150 OA
ATOM     12  O   UNL     1       1.732  -2.712  -0.782  0.00  0.00    -0.150 OA
ATOM     13 BR   UNL     1       1.776  -1.215  -7.636  0.00  0.00    -0.050 Br
ENDROOT
BRANCH   1  15
ATOM     14  C   UNL     1      -0.019   1.526   0.010  0.00  0.00    +0.038 C 
ATOM     15  C   UNL     1       0.002  -0.004   0.002  0.00  0.00    +0.164 C 
BRANCH  15  16
ATOM     16  C   UNL     1      -1.412  -0.526   0.013  0.00  0.00    +0.127 A 
ATOM     17  C   UNL     1      -2.076  -0.977   1.092  0.00  0.00    +0.046 A 
ATOM     18  C   UNL     1      -3.361  -1.364   0.650  0.00  0.00    +0.041 A 
ATOM     19  C   UNL     1      -3.406  -1.127  -0.673  0.00  0.00    +0.195 A 
ATOM     20  O   UNL     1      -2.224  -0.614  -1.053  0.00  0.00    -0.466 OA
ENDBRANCH  15  16
ENDBRANCH   1  15
TORSDOF 2
