REMARK  Name = ZINC17180112
REMARK  9 active torsions:
REMARK  status: ('A' for Active; 'I' for Inactive)
REMARK    1  A    between atoms: C_1  and  C_2
REMARK    2  A    between atoms: C_2  and  O_3
REMARK    3  A    between atoms: O_3  and  C_4
REMARK    4  A    between atoms: C_7  and  N_10
REMARK    5  A    between atoms: C_13  and  C_14
REMARK    6  A    between atoms: N_15  and  C_16
REMARK    7  A    between atoms: C_17  and  C_29
REMARK    8  A    between atoms: N_18  and  C_28
REMARK    9  A    between atoms: N_19  and  C_22
REMARK                            x       y       z     vdW  Elec       q    Type
REMARK                         _______ _______ _______ _____ _____    ______ ____
ROOT
ATOM      1  N   UNL     1       2.556  -6.032  -1.284  0.00  0.00    -0.256 N 
ATOM      2  C   UNL     1       2.921  -6.527  -2.485  0.00  0.00    +0.272 A 
ATOM      3  O   UNL     1       3.475  -5.819  -3.306  0.00  0.00    -0.266 OA
ATOM      4  C   UNL     1       2.636  -7.935  -2.782  0.00  0.00    +0.122 A 
ATOM      5  C   UNL     1       1.999  -8.695  -1.801  0.00  0.00    +0.265 A 
ATOM      6  O   UNL     1       1.714  -9.994  -2.020  0.00  0.00    -0.267 OA
ATOM      7  N   UNL     1       1.668  -8.105  -0.614  0.00  0.00    -0.302 N 
ATOM      8  C   UNL     1       1.949  -6.814  -0.376  0.00  0.00    +0.168 A 
ATOM      9  S   UNL     1       1.513  -6.138   1.136  0.00  0.00    -0.012 S 
ATOM     10  H   UNL     1       1.225  -8.629   0.071  0.00  0.00    +0.171 HD
ENDROOT
BRANCH   1  14
ATOM     11  C   UNL     1       3.337  -2.037  -0.377  0.00  0.00    +0.121 A 
ATOM     12  C   UNL     1       4.045  -3.044   0.263  0.00  0.00    +0.047 A 
ATOM     13  C   UNL     1       3.786  -4.367  -0.037  0.00  0.00    +0.030 A 
ATOM     14  C   UNL     1       2.818  -4.689  -0.979  0.00  0.00    +0.052 A 
ATOM     15  C   UNL     1       2.111  -3.680  -1.619  0.00  0.00    +0.030 A 
ATOM     16  C   UNL     1       2.367  -2.358  -1.315  0.00  0.00    +0.047 A 
BRANCH  11  17
ATOM     17  O   UNL     1       3.592  -0.735  -0.081  0.00  0.00    -0.492 OA
BRANCH  17  19
ATOM     18  C   UNL     1       4.748   1.034   1.093  0.00  0.00    +0.048 C 
ATOM     19  C   UNL     1       4.604  -0.477   0.894  0.00  0.00    +0.225 C 
ENDBRANCH  17  19
ENDBRANCH  11  17
ENDBRANCH   1  14
BRANCH   4  20
ATOM     20  C   UNL     1       3.011  -8.526  -4.070  0.00  0.00    +0.130 C 
ATOM     21  N   UNL     1       2.748  -9.781  -4.314  0.00  0.00    -0.247 NA
BRANCH  21  22
ATOM     22  C   UNL     1       3.098 -10.334  -5.519  0.00  0.00    +0.150 A 
ATOM     23  C   UNL     1       2.885 -11.620  -5.914  0.00  0.00    +0.064 A 
ATOM     24  N   UNL     1       3.379 -11.774  -7.178  0.00  0.00    -0.282 N 
ATOM     25  N   UNL     1       3.925 -10.562  -7.614  0.00  0.00    -0.215 N 
ATOM     26  C   UNL     1       3.770  -9.649  -6.633  0.00  0.00    +0.298 A 
ATOM     27  O   UNL     1       4.121  -8.484  -6.662  0.00  0.00    -0.264 OA
ATOM     28  C   UNL     1       3.342 -13.014  -7.956  0.00  0.00    +0.171 C 
ATOM     29  C   UNL     1       2.216 -12.693  -5.093  0.00  0.00    +0.067 C 
BRANCH  25  30
ATOM     30  C   UNL     1       4.524 -10.334  -8.857  0.00  0.00    +0.067 A 
ATOM     31  C   UNL     1       5.766  -9.716  -8.929  0.00  0.00    +0.028 A 
ATOM     32  C   UNL     1       6.354  -9.492 -10.158  0.00  0.00    +0.002 A 
ATOM     33  C   UNL     1       5.708  -9.882 -11.317  0.00  0.00    +0.000 A 
ATOM     34  C   UNL     1       4.472 -10.497 -11.249  0.00  0.00    +0.002 A 
ATOM     35  C   UNL     1       3.880 -10.729 -10.023  0.00  0.00    +0.028 A 
ENDBRANCH  25  30
ENDBRANCH  21  22
ENDBRANCH   4  20
TORSDOF 6
