REMARK  Name = ZINC43736568
REMARK  10 active torsions:
REMARK  status: ('A' for Active; 'I' for Inactive)
REMARK    1  A    between atoms: C_1  and  C_2
REMARK    2  A    between atoms: C_2  and  C_3
REMARK    3  A    between atoms: C_3  and  C_4
REMARK    4  A    between atoms: C_4  and  N_5
REMARK    5  A    between atoms: C_6  and  C_7
REMARK    6  A    between atoms: C_10  and  O_38
REMARK    7  A    between atoms: C_13  and  O_37
REMARK    8  A    between atoms: C_22  and  C_36
REMARK    9  A    between atoms: C_23  and  O_35
REMARK   10  A    between atoms: C_26  and  C_28
REMARK                            x       y       z     vdW  Elec       q    Type
REMARK                         _______ _______ _______ _____ _____    ______ ____
ROOT
ATOM      1  C   UNL     1       3.361  -3.675  -3.620  0.00  0.00    +0.036 C 
ATOM      2  C   UNL     1       3.474  -5.206  -3.571  0.00  0.00    +0.018 C 
ATOM      3  C   UNL     1       2.103  -5.862  -3.704  0.00  0.00    +0.032 C 
ATOM      4  C   UNL     1       1.450  -5.438  -5.019  0.00  0.00    +0.117 C 
ATOM      5  C   UNL     1       1.310  -3.918  -5.059  0.00  0.00    +0.067 C 
ATOM      6  C   UNL     1       2.680  -3.251  -4.915  0.00  0.00    +0.079 C 
ATOM      7  C   UNL     1       3.543  -3.635  -6.122  0.00  0.00    +0.036 C 
ATOM      8  C   UNL     1       4.895  -2.915  -6.003  0.00  0.00    +0.009 C 
ATOM      9  C   UNL     1       5.598  -3.414  -4.751  0.00  0.00    +0.025 C 
ATOM     10  C   UNL     1       4.769  -3.100  -3.498  0.00  0.00    +0.009 C 
ATOM     11  C   UNL     1       4.807  -1.622  -3.156  0.00  0.00    +0.005 C 
ATOM     12  C   UNL     1       6.261  -1.163  -2.918  0.00  0.00    +0.010 C 
ATOM     13  C   UNL     1       7.059  -1.408  -4.175  0.00  0.00    +0.003 C 
ATOM     14  C   UNL     1       6.993  -2.902  -4.554  0.00  0.00    +0.075 C 
ATOM     15  C   UNL     1       7.961  -2.945  -5.747  0.00  0.00    +0.036 C 
ATOM     16  C   UNL     1       9.141  -2.067  -5.237  0.00  0.00    +0.011 C 
ATOM     17  C   UNL     1       8.586  -1.234  -4.050  0.00  0.00    +0.043 C 
ATOM     18  C   UNL     1       6.603  -0.472  -5.291  0.00  0.00    +0.014 C 
ENDROOT
BRANCH  17  19
ATOM     19  C   UNL     1       8.957   0.241  -4.212  0.00  0.00    +0.204 C 
ATOM     20  C   UNL     1      10.450   0.420  -4.071  0.00  0.00    +0.024 C 
ATOM     21  C   UNL     1      10.645   1.228  -3.031  0.00  0.00    +0.091 C 
ATOM     22  C   UNL     1       9.345   1.602  -2.466  0.00  0.00    +0.332 C 
ATOM     23  O   UNL     1       9.183   2.331  -1.508  0.00  0.00    -0.246 OA
ATOM     24  O   UNL     1       8.356   1.016  -3.169  0.00  0.00    -0.454 OA
ENDBRANCH  17  19
BRANCH   1  26
ATOM     25  N   UNL     1       2.199  -4.061  -1.534  0.00  0.00    -0.393 N 
ATOM     26  C   UNL     1       2.532  -3.223  -2.441  0.00  0.00    +0.060 C 
ATOM     27  H   UNL     1       2.544  -4.967  -1.560  0.00  0.00    +0.159 HD
BRANCH  25  28
ATOM     28  C   UNL     1       1.294  -3.653  -0.456  0.00  0.00    +0.112 C 
BRANCH  28  29
ATOM     29  C   UNL     1      -0.013  -4.441  -0.561  0.00  0.00    +0.021 C 
BRANCH  29  31
ATOM     30  C   UNL     1      -2.264  -4.803   0.460  0.00  0.00    +0.004 C 
ATOM     31  C   UNL     1      -0.957  -4.015   0.565  0.00  0.00    -0.002 C 
ENDBRANCH  29  31
ENDBRANCH  28  29
ENDBRANCH  25  28
ENDBRANCH   1  26
BRANCH  14  32
ATOM     32  O   UNL     1       7.604  -3.670  -3.485  0.00  0.00    -0.388 OA
ATOM     33  H   UNL     1       7.646  -4.620  -3.658  0.00  0.00    +0.210 HD
ENDBRANCH  14  32
BRANCH   6  34
ATOM     34  O   UNL     1       2.487  -1.831  -4.915  0.00  0.00    -0.388 OA
ATOM     35  H   UNL     1       2.058  -1.492  -5.712  0.00  0.00    +0.210 HD
ENDBRANCH   6  34
BRANCH   4  36
ATOM     36  O   UNL     1       0.153  -6.036  -5.117  0.00  0.00    -0.392 OA
ATOM     37  H   UNL     1       0.165  -7.003  -5.100  0.00  0.00    +0.210 HD
ENDBRANCH   4  36
TORSDOF 8
