REMARK  Name = ZINC22463609
REMARK  9 active torsions:
REMARK  status: ('A' for Active; 'I' for Inactive)
REMARK    1  A    between atoms: C_4  and  C_7
REMARK    2  A    between atoms: C_7  and  C_9
REMARK    3  A    between atoms: C_7  and  N_25
REMARK    4  A    between atoms: C_9  and  N_10
REMARK    5  A    between atoms: C_11  and  C_13
REMARK    6  A    between atoms: C_13  and  C_14
REMARK    7  A    between atoms: C_14  and  C_15
REMARK    8  A    between atoms: C_18  and  S_21
REMARK    9  A    between atoms: S_21  and  N_24
REMARK                            x       y       z     vdW  Elec       q    Type
REMARK                         _______ _______ _______ _____ _____    ______ ____
ROOT
ATOM      1  N   UNL     1      -0.549   1.367  -3.691  0.00  0.00    -0.317 N 
ATOM      2  C   UNL     1      -0.097   0.994  -2.478  0.00  0.00    +0.213 C 
ATOM      3  O   UNL     1       0.875   0.273  -2.388  0.00  0.00    -0.276 OA
ATOM      4  H   UNL     1      -1.431   2.021  -3.771  0.00  0.00    +0.149 HD
ENDROOT
BRANCH   1   5
ATOM      5  C   UNL     1       0.132   0.903  -4.902  0.00  0.00    +0.093 C 
BRANCH   5   6
ATOM      6  C   UNL     1      -0.578   1.467  -6.134  0.00  0.00    -0.020 C 
BRANCH   6  10
ATOM      7  C   UNL     1       1.606   0.402  -9.647  0.00  0.00    +0.000 A 
ATOM      8  C   UNL     1       2.282   0.734  -8.487  0.00  0.00    +0.000 A 
ATOM      9  C   UNL     1       1.575   1.078  -7.351  0.00  0.00    +0.002 A 
ATOM     10  C   UNL     1       0.193   1.091  -7.373  0.00  0.00    -0.059 A 
ATOM     11  C   UNL     1      -0.483   0.754  -8.532  0.00  0.00    +0.002 A 
ATOM     12  C   UNL     1       0.224   0.414  -9.670  0.00  0.00    +0.000 A 
ENDBRANCH   6  10
BRANCH   6  13
ATOM     13  N   UNL     1      -0.653   2.930  -6.029  0.00  0.00    +0.385 N 
ATOM     14  C   UNL     1       0.697   3.541  -6.127  0.00  0.00    -0.078 C 
ATOM     15  C   UNL     1       0.394   5.008  -6.525  0.00  0.00    -0.020 C 
ATOM     16  C   UNL     1      -0.805   4.864  -7.490  0.00  0.00    -0.020 C 
ATOM     17  C   UNL     1      -1.437   3.502  -7.145  0.00  0.00    -0.078 C 
ATOM     18  H   UNL     1      -1.126   3.137  -5.057  0.00  0.00    -0.081 HD
ENDBRANCH   6  13
ENDBRANCH   5   6
ENDBRANCH   1   5
BRANCH   2  19
ATOM     19  C   UNL     1      -0.797   1.471  -1.232  0.00  0.00    +0.100 C 
BRANCH  19  20
ATOM     20  C   UNL     1      -0.087   0.907   0.001  0.00  0.00    +0.044 C 
BRANCH  20  21
ATOM     21  C   UNL     1      -0.788   1.385   1.246  0.00  0.00    -0.047 A 
ATOM     22  C   UNL     1      -0.395   2.564   1.852  0.00  0.00    +0.005 A 
ATOM     23  C   UNL     1      -1.040   3.004   2.992  0.00  0.00    +0.029 A 
ATOM     24  C   UNL     1      -2.073   2.261   3.532  0.00  0.00    +0.105 A 
ATOM     25  C   UNL     1      -2.463   1.080   2.930  0.00  0.00    +0.029 A 
ATOM     26  C   UNL     1      -1.821   0.642   1.787  0.00  0.00    +0.005 A 
BRANCH  24  27
ATOM     27  S   UNL     1      -2.893   2.820   4.988  0.00  0.00    +0.056 S 
ATOM     28  O   UNL     1      -2.703   4.227   5.046  0.00  0.00    -0.153 OA
ATOM     29  O   UNL     1      -4.184   2.226   4.981  0.00  0.00    -0.153 OA
BRANCH  27  30
ATOM     30  N   UNL     1      -2.084   2.179   6.283  0.00  0.00    -0.204 NA
ATOM     31  H   UNL     1      -2.567   2.506   7.215  0.00  0.00    +0.144 HD
ATOM     32  H   UNL     1      -1.040   2.525   6.270  0.00  0.00    +0.144 HD
ENDBRANCH  27  30
ENDBRANCH  24  27
ENDBRANCH  20  21
ENDBRANCH  19  20
ENDBRANCH   2  19
TORSDOF 9
