REMARK  Name = ZINC52859077
REMARK  11 active torsions:
REMARK  status: ('A' for Active; 'I' for Inactive)
REMARK    1  A    between atoms: C_1  and  C_2
REMARK    2  A    between atoms: C_2  and  N_3
REMARK    3  A    between atoms: N_3  and  C_4
REMARK    4  A    between atoms: N_3  and  C_6
REMARK    5  A    between atoms: C_4  and  C_5
REMARK    6  A    between atoms: C_6  and  C_7
REMARK    7  A    between atoms: C_7  and  C_9
REMARK    8  A    between atoms: C_7  and  N_10
REMARK    9  A    between atoms: N_10  and  C_11
REMARK   10  A    between atoms: C_16  and  C_17
REMARK   11  A    between atoms: C_17  and  N_19
REMARK                            x       y       z     vdW  Elec       q    Type
REMARK                         _______ _______ _______ _____ _____    ______ ____
ROOT
ATOM      1  C   UNL     1      -5.383  -2.239  -1.510  0.00  0.00    +0.037 A 
ATOM      2  C   UNL     1      -5.983  -1.872  -0.312  0.00  0.00    +0.025 A 
ATOM      3  C   UNL     1      -7.358  -1.805  -0.219  0.00  0.00    +0.022 A 
ATOM      4  C   UNL     1      -8.152  -2.102  -1.318  0.00  0.00    +0.042 A 
ATOM      5  C   UNL     1      -7.574  -2.468  -2.515  0.00  0.00    +0.032 A 
ATOM      6  C   UNL     1      -6.182  -2.535  -2.626  0.00  0.00    +0.025 A 
ATOM      7 CL   UNL     1      -9.880  -2.014  -1.184  0.00  0.00    -0.084 Cl
ENDROOT
BRANCH   1   8
ATOM      8  N   UNL     1      -3.998  -2.307  -1.605  0.00  0.00    -0.343 N 
ATOM      9  H   UNL     1      -3.544  -1.908  -2.364  0.00  0.00    +0.146 HD
BRANCH   8  10
ATOM     10  C   UNL     1      -3.224  -2.982  -0.561  0.00  0.00    +0.051 C 
ATOM     11  C   UNL     1      -3.136  -4.477  -0.877  0.00  0.00    +0.026 C 
BRANCH  10  12
ATOM     12  C   UNL     1      -1.815  -2.389  -0.506  0.00  0.00    -0.057 C 
BRANCH  12  13
ATOM     13  N   UNL     1      -1.903  -0.940  -0.276  0.00  0.00    +0.381 N 
ATOM     14  H   UNL     1      -2.496  -0.524  -0.977  0.00  0.00    -0.082 HD
BRANCH  13  16
ATOM     15  C   UNL     1      -2.676   0.814   1.248  0.00  0.00    -0.017 C 
ATOM     16  C   UNL     1      -2.469  -0.689   1.056  0.00  0.00    -0.082 C 
ENDBRANCH  13  16
BRANCH  13  17
ATOM     17  C   UNL     1      -0.560  -0.350  -0.356  0.00  0.00    -0.082 C 
ATOM     18  C   UNL     1      -0.030  -0.481  -1.786  0.00  0.00    -0.017 C 
ENDBRANCH  13  17
ENDBRANCH  12  13
ENDBRANCH  10  12
ENDBRANCH   8  10
ENDBRANCH   1   8
BRANCH   6  19
ATOM     19  C   UNL     1      -5.558  -2.920  -3.903  0.00  0.00    +0.079 C 
ATOM     20  S   UNL     1      -3.868  -3.178  -3.986  0.00  0.00    -0.035 S 
BRANCH  19  21
ATOM     21  N   UNL     1      -6.318  -3.068  -5.006  0.00  0.00    -0.352 N 
ATOM     22  H   UNL     1      -7.276  -2.922  -4.959  0.00  0.00    +0.143 HD
ATOM     23  H   UNL     1      -5.907  -3.321  -5.848  0.00  0.00    +0.143 HD
ENDBRANCH  19  21
ENDBRANCH   6  19
TORSDOF 8
