REMARK  Name = ZINC21231239
REMARK  9 active torsions:
REMARK  status: ('A' for Active; 'I' for Inactive)
REMARK    1  A    between atoms: C_1  and  C_2
REMARK    2  A    between atoms: C_11  and  N_32
REMARK    3  A    between atoms: C_13  and  S_15
REMARK    4  A    between atoms: S_15  and  C_16
REMARK    5  A    between atoms: C_16  and  C_17
REMARK    6  A    between atoms: N_19  and  C_20
REMARK    7  A    between atoms: N_19  and  C_21
REMARK    8  A    between atoms: C_21  and  C_22
REMARK    9  A    between atoms: N_24  and  C_25
REMARK                            x       y       z     vdW  Elec       q    Type
REMARK                         _______ _______ _______ _____ _____    ______ ____
ROOT
ATOM      1  S   UNL     1      -1.189   3.341  -0.041  0.00  0.00    -0.077 S 
ENDROOT
BRANCH   1  13
ATOM      2  C   UNL     1      -9.763   8.890   0.594  0.00  0.00    +0.008 C 
ATOM      3  C   UNL     1      -8.586   7.938   0.816  0.00  0.00    -0.009 C 
ATOM      4  C   UNL     1      -8.813   6.646   0.025  0.00  0.00    +0.008 C 
ATOM      5  C   UNL     1      -7.775   5.600   0.430  0.00  0.00    +0.037 C 
ATOM      6  C   UNL     1      -6.383   6.213   0.305  0.00  0.00    -0.025 A 
ATOM      7  C   UNL     1      -6.220   7.550   0.260  0.00  0.00    -0.004 A 
ATOM      8  S   UNL     1      -4.471   7.798   0.113  0.00  0.00    -0.073 S 
ATOM      9  C   UNL     1      -3.958   6.100   0.114  0.00  0.00    +0.115 A 
ATOM     10  C   UNL     1      -5.171   5.393   0.227  0.00  0.00    +0.051 A 
ATOM     11  C   UNL     1      -5.055   3.975   0.252  0.00  0.00    +0.129 A 
ATOM     12  N   UNL     1      -3.856   3.423   0.164  0.00  0.00    -0.207 NA
ATOM     13  C   UNL     1      -2.750   4.151   0.064  0.00  0.00    +0.191 A 
ATOM     14  N   UNL     1      -2.799   5.477   0.036  0.00  0.00    -0.214 NA
ATOM     15  C   UNL     1      -7.290   8.597   0.320  0.00  0.00    +0.046 C 
BRANCH  11  16
ATOM     16  N   UNL     1      -6.183   3.182   0.361  0.00  0.00    -0.343 N 
ATOM     17  H   UNL     1      -6.086   2.087   0.379  0.00  0.00    +0.144 HD
ATOM     18  H   UNL     1      -7.178   3.647   0.429  0.00  0.00    +0.144 HD
ENDBRANCH  11  16
ENDBRANCH   1  13
BRANCH   1  19
ATOM     19  C   UNL     1      -1.724   1.614   0.043  0.00  0.00    +0.173 C 
BRANCH  19  20
ATOM     20  C   UNL     1      -0.520   0.711  -0.032  0.00  0.00    +0.226 C 
ATOM     21  O   UNL     1       0.590   1.188  -0.137  0.00  0.00    -0.275 OA
ATOM     22  N   UNL     1      -0.678  -0.627   0.013  0.00  0.00    -0.295 N 
ATOM     23  C   UNL     1      -2.019  -1.203   0.139  0.00  0.00    +0.132 C 
BRANCH  22  24
ATOM     24  C   UNL     1       0.492  -1.505  -0.066  0.00  0.00    +0.203 C 
BRANCH  24  25
ATOM     25  C   UNL     1       1.012  -1.774   1.323  0.00  0.00    +0.235 C 
ATOM     26  O   UNL     1       0.461  -1.280   2.284  0.00  0.00    -0.274 OA
ATOM     27  N   UNL     1       2.091  -2.562   1.498  0.00  0.00    -0.283 N 
ATOM     28  H   UNL     1       2.551  -3.065   0.634  0.00  0.00    +0.155 HD
BRANCH  27  29
ATOM     29  C   UNL     1       2.627  -2.742   2.778  0.00  0.00    +0.052 A 
ATOM     30  C   UNL     1       1.790  -2.771   3.885  0.00  0.00    +0.025 A 
ATOM     31  C   UNL     1       2.321  -2.954   5.147  0.00  0.00    +0.002 A 
ATOM     32  C   UNL     1       3.687  -3.097   5.310  0.00  0.00    +0.002 A 
ATOM     33  C   UNL     1       4.525  -3.062   4.211  0.00  0.00    +0.022 A 
ATOM     34  C   UNL     1       3.999  -2.885   2.945  0.00  0.00    +0.062 A 
ATOM     35 CL   UNL     1       5.052  -2.842   1.565  0.00  0.00    -0.082 Cl
ENDBRANCH  27  29
ENDBRANCH  24  25
ENDBRANCH  22  24
ENDBRANCH  19  20
ENDBRANCH   1  19
TORSDOF 7
