REMARK  Name = ZINC59200117
REMARK  14 active torsions:
REMARK  status: ('A' for Active; 'I' for Inactive)
REMARK    1  A    between atoms: C_1  and  C_2
REMARK    2  A    between atoms: C_2  and  O_3
REMARK    3  A    between atoms: O_3  and  C_4
REMARK    4  A    between atoms: C_9  and  C_10
REMARK    5  A    between atoms: C_10  and  N_11
REMARK    6  A    between atoms: N_11  and  C_12
REMARK    7  A    between atoms: N_11  and  C_22
REMARK    8  A    between atoms: C_14  and  C_20
REMARK    9  A    between atoms: C_14  and  C_21
REMARK   10  A    between atoms: C_16  and  C_18
REMARK   11  A    between atoms: C_16  and  C_19
REMARK   12  A    between atoms: C_22  and  N_24
REMARK   13  A    between atoms: N_24  and  C_25
REMARK   14  A    between atoms: C_30  and  C_31
REMARK                            x       y       z     vdW  Elec       q    Type
REMARK                         _______ _______ _______ _____ _____    ______ ____
ROOT
ATOM      1  N   UNL     1       3.330  -0.536  -3.449  0.00  0.00    -0.305 N 
ENDROOT
BRANCH   1   2
ATOM      2  C   UNL     1       4.428  -1.505  -3.558  0.00  0.00    +0.073 C 
ATOM      3  C   UNL     1       4.594  -2.229  -2.221  0.00  0.00    +0.009 C 
ATOM      4  C   UNL     1       5.742  -3.234  -2.315  0.00  0.00    -0.072 C 
ATOM      5  N   UNL     1       6.977  -2.614  -2.770  0.00  0.00    +0.386 N 
ATOM      6  C   UNL     1       6.904  -1.730  -3.923  0.00  0.00    -0.072 C 
ATOM      7  C   UNL     1       5.728  -0.762  -3.865  0.00  0.00    +0.009 C 
ATOM      8  C   UNL     1       6.870  -2.515  -5.237  0.00  0.00    -0.010 C 
ATOM      9  C   UNL     1       8.197  -0.881  -3.939  0.00  0.00    -0.010 C 
ATOM     10  C   UNL     1       5.336  -4.420  -3.190  0.00  0.00    -0.010 C 
ATOM     11  C   UNL     1       5.991  -3.780  -0.890  0.00  0.00    -0.010 C 
ATOM     12  H   UNL     1       7.380  -2.091  -1.989  0.00  0.00    -0.084 HD
ATOM     13  H   UNL     1       7.652  -3.355  -2.974  0.00  0.00    -0.084 HD
ENDBRANCH   1   2
BRANCH   1  14
ATOM     14  C   UNL     1       3.407   0.471  -2.556  0.00  0.00    +0.138 C 
ATOM     15  S   UNL     1       2.212   1.697  -2.544  0.00  0.00    -0.018 S 
BRANCH  14  16
ATOM     16  N   UNL     1       4.424   0.512  -1.672  0.00  0.00    -0.296 N 
ATOM     17  H   UNL     1       5.142  -0.137  -1.729  0.00  0.00    +0.154 HD
BRANCH  16  18
ATOM     18  C   UNL     1       4.443   1.491  -0.673  0.00  0.00    +0.037 A 
ATOM     19  C   UNL     1       3.251   1.974  -0.149  0.00  0.00    +0.043 A 
ATOM     20  C   UNL     1       3.273   2.941   0.838  0.00  0.00    +0.043 A 
ATOM     21  C   UNL     1       4.482   3.428   1.304  0.00  0.00    +0.020 A 
ATOM     22  C   UNL     1       5.670   2.949   0.784  0.00  0.00    +0.006 A 
ATOM     23  C   UNL     1       5.654   1.978  -0.199  0.00  0.00    -0.029 A 
ATOM     24  C   UNL     1       6.950   1.451  -0.759  0.00  0.00    +0.045 C 
ATOM     25 CL   UNL     1       1.784   3.547   1.493  0.00  0.00    -0.083 Cl
ENDBRANCH  16  18
ENDBRANCH  14  16
ENDBRANCH   1  14
BRANCH   1  26
ATOM     26  C   UNL     1       2.152  -0.663  -4.310  0.00  0.00    +0.145 C 
BRANCH  26  32
ATOM     27  C   UNL     1       0.296  -1.397  -2.793  0.00  0.00    +0.125 A 
ATOM     28  C   UNL     1      -0.548  -2.377  -2.290  0.00  0.00    +0.046 A 
ATOM     29  C   UNL     1      -0.445  -3.677  -2.745  0.00  0.00    +0.004 A 
ATOM     30  C   UNL     1       0.499  -4.002  -3.702  0.00  0.00    +0.001 A 
ATOM     31  C   UNL     1       1.342  -3.028  -4.205  0.00  0.00    +0.009 A 
ATOM     32  C   UNL     1       1.238  -1.725  -3.757  0.00  0.00    +0.011 A 
BRANCH  27  33
ATOM     33  O   UNL     1       0.195  -0.118  -2.347  0.00  0.00    -0.492 OA
BRANCH  33  35
ATOM     34  C   UNL     1      -0.761   1.630  -0.979  0.00  0.00    +0.048 C 
ATOM     35  C   UNL     1      -0.798   0.147  -1.354  0.00  0.00    +0.225 C 
ENDBRANCH  33  35
ENDBRANCH  27  33
ENDBRANCH  26  32
ENDBRANCH   1  26
TORSDOF 8
