REMARK  Name = ZINC03411998
REMARK  3 active torsions:
REMARK  status: ('A' for Active; 'I' for Inactive)
REMARK    1  A    between atoms: C_5  and  C_7
REMARK    2  A    between atoms: C_10  and  C_12
REMARK    3  A    between atoms: C_12  and  N_13
REMARK                            x       y       z     vdW  Elec       q    Type
REMARK                         _______ _______ _______ _____ _____    ______ ____
ROOT
ATOM      1  C   UNL     1       1.249  -2.160  -0.023  0.00  0.00    +0.249 A 
ATOM      2  N   UNL     1       2.320  -2.919  -0.032  0.00  0.00    -0.107 NA
ATOM      3  N   UNL     1       1.964  -4.156  -0.037  0.00  0.00    -0.110 NA
ATOM      4  C   UNL     1       0.662  -4.234  -0.032  0.00  0.00    +0.239 A 
ATOM      5  O   UNL     1       0.179  -2.980  -0.017  0.00  0.00    -0.418 OA
ENDROOT
BRANCH   1  10
ATOM      6  C   UNL     1      -0.017   1.375   0.010  0.00  0.00    +0.001 A 
ATOM      7  C   UNL     1       1.170   2.087   0.002  0.00  0.00    +0.001 A 
ATOM      8  C   UNL     1       2.383   1.422  -0.013  0.00  0.00    +0.016 A 
ATOM      9  C   UNL     1       2.416   0.041  -0.021  0.00  0.00    +0.030 A 
ATOM     10  C   UNL     1       1.222  -0.682  -0.014  0.00  0.00    +0.052 A 
ATOM     11  C   UNL     1       0.002  -0.004   0.002  0.00  0.00    +0.014 A 
ATOM     12 BR   UNL     1       4.074  -0.867  -0.043  0.00  0.00    -0.050 Br
ENDBRANCH   1  10
BRANCH   4  13
ATOM     13  C   UNL     1      -0.152  -5.502  -0.035  0.00  0.00    +0.245 C 
BRANCH  13  14
ATOM     14  N   UNL     1      -0.410  -5.920   1.346  0.00  0.00    -0.219 N 
ATOM     15  C   UNL     1      -1.518  -5.476   1.969  0.00  0.00    +0.288 A 
ATOM     16  O   UNL     1      -2.296  -4.734   1.391  0.00  0.00    -0.265 OA
ATOM     17  C   UNL     1      -1.770  -5.877   3.299  0.00  0.00    +0.126 A 
ATOM     18  C   UNL     1      -0.863  -6.710   3.897  0.00  0.00    +0.084 A 
ATOM     19  C   UNL     1       0.261  -7.114   3.154  0.00  0.00    +0.154 A 
ATOM     20  N   UNL     1       0.423  -6.705   1.927  0.00  0.00    -0.175 NA
ATOM     21 CL   UNL     1      -1.093  -7.252   5.530  0.00  0.00    -0.080 Cl
ATOM     22 CL   UNL     1      -3.183  -5.332   4.148  0.00  0.00    -0.076 Cl
ENDBRANCH  13  14
ENDBRANCH   4  13
TORSDOF 3
