REMARK  Name = ZINC65406302
REMARK  8 active torsions:
REMARK  status: ('A' for Active; 'I' for Inactive)
REMARK    1  A    between atoms: C_1  and  C_2
REMARK    2  A    between atoms: C_6  and  O_9
REMARK    3  A    between atoms: C_7  and  C_8
REMARK    4  A    between atoms: O_9  and  C_10
REMARK    5  A    between atoms: C_10  and  C_11
REMARK    6  A    between atoms: C_11  and  N_12
REMARK    7  A    between atoms: C_15  and  C_18
REMARK    8  A    between atoms: C_15  and  N_21
REMARK                            x       y       z     vdW  Elec       q    Type
REMARK                         _______ _______ _______ _____ _____    ______ ____
ROOT
ATOM      1  N   UNL     1      -1.862  -4.504   3.602  0.00  0.00    -0.299 NA
ATOM      2  C   UNL     1      -3.138  -5.207   3.421  0.00  0.00    +0.083 C 
ATOM      3  C   UNL     1      -4.146  -4.713   4.462  0.00  0.00    +0.012 C 
ATOM      4  C   UNL     1      -3.592  -4.975   5.865  0.00  0.00    +0.015 C 
ATOM      5  C   UNL     1      -2.239  -4.272   6.011  0.00  0.00    +0.012 C 
ATOM      6  C   UNL     1      -1.287  -4.778   4.925  0.00  0.00    +0.083 C 
ENDROOT
BRANCH   4   7
ATOM      7  N   UNL     1      -4.528  -4.450   6.869  0.00  0.00    +0.389 N 
ATOM      8  C   UNL     1      -5.822  -5.130   6.731  0.00  0.00    -0.077 C 
ATOM      9  C   UNL     1      -6.825  -4.531   7.719  0.00  0.00    -0.019 C 
ATOM     10  C   UNL     1      -6.300  -4.714   9.146  0.00  0.00    -0.004 C 
ATOM     11  C   UNL     1      -4.917  -4.066   9.257  0.00  0.00    -0.019 C 
ATOM     12  C   UNL     1      -3.985  -4.682   8.212  0.00  0.00    -0.077 C 
ATOM     13  H   UNL     1      -4.654  -3.459   6.724  0.00  0.00    -0.080 HD
ENDBRANCH   4   7
BRANCH   4  14
ATOM     14  C   UNL     1      -3.413  -6.457   6.068  0.00  0.00    +0.200 C 
ATOM     15  O   UNL     1      -3.967  -7.242   5.328  0.00  0.00    -0.278 OA
ATOM     16  N   UNL     1      -2.638  -6.911   7.073  0.00  0.00    -0.330 N 
ATOM     17  H   UNL     1      -2.252  -6.288   7.708  0.00  0.00    +0.145 HD
ATOM     18  H   UNL     1      -2.465  -7.862   7.161  0.00  0.00    +0.145 HD
ENDBRANCH   4  14
BRANCH   1  19
ATOM     19  C   UNL     1      -0.914  -4.851   2.535  0.00  0.00    +0.125 C 
BRANCH  19  20
ATOM     20  C   UNL     1      -1.438  -4.326   1.196  0.00  0.00    +0.244 C 
BRANCH  20  21
ATOM     21  O   UNL     1      -1.470  -2.898   1.224  0.00  0.00    -0.490 OA
BRANCH  21  27
ATOM     22  C   UNL     1      -2.487   1.259  -1.123  0.00  0.00    +0.044 C 
ATOM     23  C   UNL     1      -2.424  -0.246  -1.076  0.00  0.00    -0.044 A 
ATOM     24  C   UNL     1      -2.820  -0.988  -2.174  0.00  0.00    +0.004 A 
ATOM     25  C   UNL     1      -2.764  -2.369  -2.135  0.00  0.00    +0.004 A 
ATOM     26  C   UNL     1      -2.312  -3.011  -0.998  0.00  0.00    +0.046 A 
ATOM     27  C   UNL     1      -1.915  -2.269   0.105  0.00  0.00    +0.124 A 
ATOM     28  C   UNL     1      -1.966  -0.883   0.060  0.00  0.00    -0.006 A 
ATOM     29  C   UNL     1      -1.529  -0.073   1.254  0.00  0.00    +0.048 C 
ENDBRANCH  21  27
ENDBRANCH  20  21
ENDBRANCH  19  20
ENDBRANCH   1  19
TORSDOF 6
