REMARK  Name = ZINC39467337
REMARK  4 active torsions:
REMARK  status: ('A' for Active; 'I' for Inactive)
REMARK    1  A    between atoms: C_4  and  C_7
REMARK    2  A    between atoms: C_7  and  C_8
REMARK    3  A    between atoms: P_24  and  C_27
REMARK    4  A    between atoms: C_32  and  O_33
REMARK                            x       y       z     vdW  Elec       q    Type
REMARK                         _______ _______ _______ _____ _____    ______ ____
ROOT
ATOM      1  C   UNL     1       4.164  -0.959   1.377  0.00  0.00    -0.012 C 
ATOM      2  C   UNL     1       3.892  -2.122   1.970  0.00  0.00    -0.018 C 
ATOM      3  C   UNL     1       4.370  -2.346   3.378  0.00  0.00    +0.005 C 
ATOM      4  C   UNL     1       4.485  -3.830   3.705  0.00  0.00    -0.046 C 
ATOM      5  N   UNL     1       4.914  -4.000   5.105  0.00  0.00    +0.398 N 
ATOM      6  C   UNL     1       6.214  -3.376   5.346  0.00  0.00    -0.020 C 
ATOM      7  C   UNL     1       6.187  -1.883   4.991  0.00  0.00    -0.002 C 
ATOM      8  C   UNL     1       5.761  -1.718   3.535  0.00  0.00    +0.018 C 
ATOM      9  C   UNL     1       5.686  -0.268   3.144  0.00  0.00    +0.015 C 
ATOM     10  C   UNL     1       4.916   0.077   2.110  0.00  0.00    +0.123 C 
ATOM     11  F   UNL     1       4.823   1.372   1.739  0.00  0.00    -0.206 F 
ATOM     12  C   UNL     1       6.614  -3.465   6.825  0.00  0.00    +0.157 C 
ATOM     13  O   UNL     1       6.734  -4.848   7.204  0.00  0.00    -0.316 OA
ATOM     14  P   UNL     1       5.500  -5.844   6.835  0.00  0.00    +0.291 P 
ATOM     15  O   UNL     1       4.414  -5.705   7.830  0.00  0.00    -0.269 OA
ATOM     16  N   UNL     1       4.984  -5.359   5.326  0.00  0.00    -0.288 NA
ATOM     17  H   UNL     1       4.728  -5.994   4.638  0.00  0.00    +0.111 HD
ATOM     18  H   UNL     1       4.224  -3.594   5.720  0.00  0.00    -0.055 HD
ENDROOT
BRANCH  14  19
ATOM     19  C   UNL     1       6.077  -7.562   6.770  0.00  0.00    +0.091 A 
ATOM     20  C   UNL     1       6.549  -8.089   5.583  0.00  0.00    +0.018 A 
ATOM     21  C   UNL     1       6.988  -9.399   5.533  0.00  0.00    +0.001 A 
ATOM     22  C   UNL     1       6.958 -10.185   6.671  0.00  0.00    +0.004 A 
ATOM     23  C   UNL     1       6.488  -9.663   7.860  0.00  0.00    +0.046 A 
ATOM     24  C   UNL     1       6.051  -8.347   7.914  0.00  0.00    +0.131 A 
BRANCH  24  25
ATOM     25  O   UNL     1       5.593  -7.829   9.084  0.00  0.00    -0.506 OA
ATOM     26  H   UNL     1       4.643  -7.946   9.221  0.00  0.00    +0.292 HD
ENDBRANCH  24  25
ENDBRANCH  14  19
BRANCH   1  27
ATOM     27  C   UNL     1       3.711  -0.707  -0.038  0.00  0.00    +0.072 C 
BRANCH  27  31
ATOM     28  C   UNL     1      -0.017   1.378   0.010  0.00  0.00    +0.000 A 
ATOM     29  C   UNL     1       1.171   2.086   0.002  0.00  0.00    +0.000 A 
ATOM     30  C   UNL     1       2.377   1.411  -0.013  0.00  0.00    +0.004 A 
ATOM     31  C   UNL     1       2.396   0.029  -0.020  0.00  0.00    -0.043 A 
ATOM     32  C   UNL     1       1.208  -0.679  -0.012  0.00  0.00    +0.004 A 
ATOM     33  C   UNL     1       0.002  -0.004   0.002  0.00  0.00    +0.000 A 
ENDBRANCH  27  31
ENDBRANCH   1  27
TORSDOF 4
