REMARK  Name = ZINC39696225
REMARK  9 active torsions:
REMARK  status: ('A' for Active; 'I' for Inactive)
REMARK    1  A    between atoms: C_1  and  C_2
REMARK    2  A    between atoms: C_2  and  C_3
REMARK    3  A    between atoms: C_6  and  C_9
REMARK    4  A    between atoms: C_9  and  C_11
REMARK    5  A    between atoms: C_9  and  N_12
REMARK    6  A    between atoms: C_13  and  C_15
REMARK    7  A    between atoms: C_26  and  C_28
REMARK    8  A    between atoms: C_30  and  C_37
REMARK    9  A    between atoms: C_32  and  C_33
REMARK                            x       y       z     vdW  Elec       q    Type
REMARK                         _______ _______ _______ _____ _____    ______ ____
ROOT
ATOM      1  C   UNL     1      -8.287  -0.598  -1.933  0.00  0.00    +0.100 C 
ATOM      2  C   UNL     1      -8.099  -1.252  -3.321  0.00  0.00    +0.121 C 
ATOM      3  N   UNL     1      -9.213  -2.223  -3.431  0.00  0.00    -0.296 N 
ATOM      4  C   UNL     1     -10.371  -1.525  -2.823  0.00  0.00    +0.115 C 
ATOM      5  C   UNL     1      -9.781  -0.776  -1.612  0.00  0.00    -0.004 C 
ATOM      6  C   UNL     1     -10.453   0.584  -1.453  0.00  0.00    -0.010 C 
ATOM      7  C   UNL     1     -11.924   0.381  -1.077  0.00  0.00    -0.082 C 
ATOM      8  N   UNL     1     -12.009  -0.379   0.176  0.00  0.00    +0.379 N 
ATOM      9  C   UNL     1     -11.444  -1.720  -0.012  0.00  0.00    -0.082 C 
ATOM     10  C   UNL     1      -9.953  -1.606  -0.344  0.00  0.00    -0.010 C 
ATOM     11  C   UNL     1      -9.180  -3.460  -3.964  0.00  0.00    +0.250 C 
ATOM     12  O   UNL     1      -8.122  -3.940  -4.323  0.00  0.00    -0.270 OA
ATOM     13  H   UNL     1     -11.494   0.104   0.897  0.00  0.00    -0.086 HD
ATOM     14  H   UNL     1     -12.976  -0.459   0.454  0.00  0.00    -0.086 HD
ENDROOT
BRANCH  11  15
ATOM     15  C   UNL     1     -10.427  -4.232  -4.112  0.00  0.00    +0.087 A 
ATOM     16  C   UNL     1     -11.798  -3.760  -3.871  0.00  0.00    +0.058 A 
ATOM     17  C   UNL     1     -12.599  -4.803  -4.135  0.00  0.00    +0.103 A 
ATOM     18  O   UNL     1     -11.848  -5.851  -4.508  0.00  0.00    -0.455 OA
ATOM     19  C   UNL     1     -10.550  -5.532  -4.507  0.00  0.00    +0.220 A 
ATOM     20  C   UNL     1     -14.103  -4.800  -4.028  0.00  0.00    +0.086 C 
BRANCH  19  21
ATOM     21  C   UNL     1      -9.416  -6.452  -4.877  0.00  0.00    +0.451 C 
ATOM     22  F   UNL     1      -8.972  -7.127  -3.735  0.00  0.00    -0.163 F 
ATOM     23  F   UNL     1      -9.858  -7.380  -5.825  0.00  0.00    -0.163 F 
ATOM     24  F   UNL     1      -8.363  -5.703  -5.413  0.00  0.00    -0.163 F 
ENDBRANCH  19  21
ENDBRANCH  11  15
BRANCH   1  26
ATOM     25  N   UNL     1      -6.958  -0.615   0.153  0.00  0.00    -0.308 N 
ATOM     26  C   UNL     1      -7.441  -1.300  -0.903  0.00  0.00    +0.219 C 
ATOM     27  O   UNL     1      -7.195  -2.481  -1.023  0.00  0.00    -0.275 OA
ATOM     28  H   UNL     1      -7.155   0.330   0.249  0.00  0.00    +0.149 HD
BRANCH  25  29
ATOM     29  C   UNL     1      -6.136  -1.298   1.155  0.00  0.00    +0.100 C 
ATOM     30  C   UNL     1      -4.679  -1.321   0.689  0.00  0.00    +0.033 C 
BRANCH  29  34
ATOM     31  C   UNL     1      -6.407   0.780   4.877  0.00  0.00    -0.048 A 
ATOM     32  C   UNL     1      -6.400  -0.602   4.856  0.00  0.00    +0.004 A 
ATOM     33  C   UNL     1      -6.313  -1.275   3.651  0.00  0.00    +0.006 A 
ATOM     34  C   UNL     1      -6.232  -0.565   2.468  0.00  0.00    -0.027 A 
ATOM     35  C   UNL     1      -6.240   0.817   2.489  0.00  0.00    +0.006 A 
ATOM     36  C   UNL     1      -6.332   1.490   3.693  0.00  0.00    +0.004 A 
BRANCH  31  38
ATOM     37  C   UNL     1      -7.974   1.750   6.537  0.00  0.00    +0.009 C 
ATOM     38  C   UNL     1      -6.502   1.513   6.190  0.00  0.00    +0.032 C 
ENDBRANCH  31  38
ENDBRANCH  29  34
ENDBRANCH  25  29
ENDBRANCH   1  26
TORSDOF 6
