REMARK  Name = ZINC39631555
REMARK  13 active torsions:
REMARK  status: ('A' for Active; 'I' for Inactive)
REMARK    1  A    between atoms: C_1  and  C_2
REMARK    2  A    between atoms: C_3  and  C_14
REMARK    3  A    between atoms: C_4  and  C_7
REMARK    4  A    between atoms: C_18  and  C_27
REMARK    5  A    between atoms: N_29  and  C_30
REMARK    6  A    between atoms: C_30  and  C_32
REMARK    7  A    between atoms: C_30  and  C_33
REMARK    8  A    between atoms: C_33  and  C_34
REMARK    9  A    between atoms: C_34  and  C_35
REMARK   10  A    between atoms: C_35  and  C_36
REMARK   11  A    between atoms: C_36  and  C_37
REMARK   12  A    between atoms: C_36  and  C_38
REMARK   13  A    between atoms: C_36  and  O_39
REMARK                            x       y       z     vdW  Elec       q    Type
REMARK                         _______ _______ _______ _____ _____    ______ ____
ROOT
ATOM      1  C   UNL     1      -1.887   0.092  -0.337  0.00  0.00    +0.252 C 
ATOM      2  O   UNL     1      -2.607   0.198  -1.312  0.00  0.00    -0.270 OA
ATOM      3  N   UNL     1      -2.409   0.201   0.901  0.00  0.00    -0.296 N 
ATOM      4  C   UNL     1      -1.686   0.201   2.194  0.00  0.00    +0.121 C 
ATOM      5  C   UNL     1      -2.414   1.262   3.049  0.00  0.00    +0.100 C 
ATOM      6  C   UNL     1      -3.824   1.354   2.443  0.00  0.00    -0.004 C 
ATOM      7  C   UNL     1      -3.835   0.356   1.276  0.00  0.00    +0.115 C 
ATOM      8  C   UNL     1      -4.086   2.765   1.925  0.00  0.00    -0.010 C 
ATOM      9  C   UNL     1      -5.514   2.846   1.379  0.00  0.00    -0.082 C 
ATOM     10  N   UNL     1      -6.467   2.509   2.444  0.00  0.00    +0.379 N 
ATOM     11  C   UNL     1      -6.269   1.119   2.872  0.00  0.00    -0.082 C 
ATOM     12  C   UNL     1      -4.872   0.965   3.481  0.00  0.00    -0.010 C 
ATOM     13  H   UNL     1      -6.323   3.126   3.230  0.00  0.00    -0.086 HD
ATOM     14  H   UNL     1      -7.409   2.623   2.099  0.00  0.00    -0.086 HD
ENDROOT
BRANCH   1  17
ATOM     15  C   UNL     1       0.290   2.261  -0.901  0.00  0.00    +0.090 C 
ATOM     16  C   UNL     1       0.516   0.778  -0.756  0.00  0.00    +0.147 A 
ATOM     17  C   UNL     1      -0.446  -0.156  -0.510  0.00  0.00    +0.106 A 
ATOM     18  C   UNL     1       0.233  -1.459  -0.450  0.00  0.00    +0.127 A 
ATOM     19  N   UNL     1       1.506  -1.234  -0.654  0.00  0.00    -0.077 NA
ATOM     20  O   UNL     1       1.693   0.153  -0.851  0.00  0.00    -0.359 OA
BRANCH  18  21
ATOM     21  C   UNL     1      -0.402  -2.776  -0.204  0.00  0.00    +0.023 A 
ATOM     22  C   UNL     1      -1.780  -2.863  -0.007  0.00  0.00    +0.011 A 
ATOM     23  C   UNL     1      -2.366  -4.091   0.221  0.00  0.00    +0.001 A 
ATOM     24  C   UNL     1      -1.590  -5.236   0.255  0.00  0.00    +0.001 A 
ATOM     25  C   UNL     1      -0.223  -5.157   0.061  0.00  0.00    +0.020 A 
ATOM     26  C   UNL     1       0.374  -3.934  -0.175  0.00  0.00    +0.050 A 
ATOM     27 CL   UNL     1       2.090  -3.838  -0.426  0.00  0.00    -0.083 Cl
ENDBRANCH  18  21
ENDBRANCH   1  17
BRANCH   5  28
ATOM     28  C   UNL     1      -1.710   2.590   2.949  0.00  0.00    +0.218 C 
ATOM     29  O   UNL     1      -1.054   2.856   1.963  0.00  0.00    -0.275 OA
ATOM     30  N   UNL     1      -1.808   3.483   3.953  0.00  0.00    -0.312 N 
ATOM     31  H   UNL     1      -2.272   3.244   4.771  0.00  0.00    +0.149 HD
BRANCH  30  32
ATOM     32  C   UNL     1      -1.214   4.815   3.811  0.00  0.00    +0.070 C 
ATOM     33  C   UNL     1      -2.228   5.758   3.160  0.00  0.00    +0.028 C 
BRANCH  32  34
ATOM     34  C   UNL     1      -0.830   5.352   5.191  0.00  0.00    +0.022 C 
BRANCH  34  35
ATOM     35  C   UNL     1       0.276   4.480   5.788  0.00  0.00    +0.005 C 
BRANCH  35  36
ATOM     36  C   UNL     1       0.577   4.943   7.215  0.00  0.00    +0.034 C 
BRANCH  36  37
ATOM     37  C   UNL     1       1.769   4.158   7.765  0.00  0.00    +0.061 C 
ATOM     38  C   UNL     1       1.993   4.533   9.232  0.00  0.00    +0.041 C 
ATOM     39  C   UNL     1       1.484   2.658   7.660  0.00  0.00    +0.041 C 
BRANCH  37  40
ATOM     40  O   UNL     1       2.939   4.475   7.008  0.00  0.00    -0.389 OA
ATOM     41  H   UNL     1       3.179   5.411   7.030  0.00  0.00    +0.210 HD
ENDBRANCH  37  40
ENDBRANCH  36  37
ENDBRANCH  35  36
ENDBRANCH  34  35
ENDBRANCH  32  34
ENDBRANCH  30  32
ENDBRANCH   5  28
TORSDOF 9
