REMARK  Name = ZINC16671662
REMARK  9 active torsions:
REMARK  status: ('A' for Active; 'I' for Inactive)
REMARK    1  A    between atoms: C_1  and  C_2
REMARK    2  A    between atoms: C_2  and  C_3
REMARK    3  A    between atoms: C_3  and  C_22
REMARK    4  A    between atoms: N_6  and  C_10
REMARK    5  A    between atoms: C_10  and  C_11
REMARK    6  A    between atoms: N_13  and  C_14
REMARK    7  A    between atoms: C_15  and  C_19
REMARK    8  A    between atoms: C_25  and  O_28
REMARK    9  A    between atoms: O_28  and  C_29
REMARK                            x       y       z     vdW  Elec       q    Type
REMARK                         _______ _______ _______ _____ _____    ______ ____
ROOT
ATOM      1  C   UNL     1      -1.433  -0.534   0.013  0.00  0.00    +0.138 C 
ATOM      2  C   UNL     1      -2.205   0.042   1.184  0.00  0.00    +0.251 C 
ATOM      3  O   UNL     1      -1.958  -0.098   2.363  0.00  0.00    -0.272 OA
ATOM      4  N   UNL     1      -3.222   0.740   0.642  0.00  0.00    -0.215 N 
ATOM      5  C   UNL     1      -3.200   0.687  -0.695  0.00  0.00    +0.310 C 
ATOM      6  O   UNL     1      -4.016   1.240  -1.406  0.00  0.00    -0.252 OA
ATOM      7  N   UNL     1      -2.175  -0.046  -1.163  0.00  0.00    -0.281 N 
ATOM      8  H   UNL     1      -1.964  -0.220  -2.094  0.00  0.00    +0.152 HD
ENDROOT
BRANCH   1   9
ATOM      9  C   UNL     1      -1.441  -2.040   0.057  0.00  0.00    -0.015 A 
ATOM     10  C   UNL     1      -0.411  -2.717   0.685  0.00  0.00    +0.010 A 
ATOM     11  C   UNL     1      -0.416  -4.098   0.727  0.00  0.00    +0.046 A 
ATOM     12  C   UNL     1      -1.454  -4.805   0.138  0.00  0.00    +0.120 A 
ATOM     13  C   UNL     1      -2.486  -4.123  -0.490  0.00  0.00    +0.046 A 
ATOM     14  C   UNL     1      -2.480  -2.743  -0.525  0.00  0.00    +0.010 A 
BRANCH  12  15
ATOM     15  O   UNL     1      -1.460  -6.164   0.178  0.00  0.00    -0.495 OA
ATOM     16  C   UNL     1      -2.561  -6.826  -0.449  0.00  0.00    +0.277 C 
ENDBRANCH  12  15
ENDBRANCH   1   9
BRANCH   1  18
ATOM     17  C   UNL     1      -0.019   1.526   0.010  0.00  0.00    +0.007 C 
ATOM     18  C   UNL     1       0.002  -0.004   0.002  0.00  0.00    +0.037 C 
ENDBRANCH   1  18
BRANCH   4  19
ATOM     19  C   UNL     1      -4.228   1.468   1.421  0.00  0.00    +0.214 C 
BRANCH  19  20
ATOM     20  C   UNL     1      -3.756   2.880   1.656  0.00  0.00    +0.236 C 
ATOM     21  O   UNL     1      -2.686   3.243   1.216  0.00  0.00    -0.274 OA
ATOM     22  N   UNL     1      -4.524   3.739   2.354  0.00  0.00    -0.278 N 
ATOM     23  H   UNL     1      -5.380   3.449   2.706  0.00  0.00    +0.155 HD
BRANCH  22  24
ATOM     24  C   UNL     1      -4.090   5.038   2.570  0.00  0.00    +0.084 A 
ATOM     25  C   UNL     1      -4.739   6.049   3.264  0.00  0.00    +0.065 A 
ATOM     26  C   UNL     1      -4.057   7.322   3.339  0.00  0.00    +0.022 A 
ATOM     27  C   UNL     1      -2.862   7.384   2.723  0.00  0.00    +0.048 A 
ATOM     28  S   UNL     1      -2.658   5.746   2.059  0.00  0.00    -0.081 S 
BRANCH  25  29
ATOM     29  C   UNL     1      -6.048   5.838   3.890  0.00  0.00    +0.244 C 
ATOM     30  O   UNL     1      -6.594   4.754   3.807  0.00  0.00    -0.270 OA
ATOM     31  N   UNL     1      -6.647   6.845   4.556  0.00  0.00    -0.325 N 
ATOM     32  H   UNL     1      -6.212   7.710   4.622  0.00  0.00    +0.145 HD
ATOM     33  H   UNL     1      -7.513   6.706   4.970  0.00  0.00    +0.145 HD
ENDBRANCH  25  29
ENDBRANCH  22  24
ENDBRANCH  19  20
ENDBRANCH   4  19
TORSDOF 7
