REMARK  Name = ZINC43262761
REMARK  13 active torsions:
REMARK  status: ('A' for Active; 'I' for Inactive)
REMARK    1  A    between atoms: C_1  and  C_2
REMARK    2  A    between atoms: C_2  and  C_3
REMARK    3  A    between atoms: C_3  and  C_5
REMARK    4  A    between atoms: C_3  and  N_21
REMARK    5  A    between atoms: C_5  and  C_7
REMARK    6  A    between atoms: C_5  and  N_13
REMARK    7  A    between atoms: N_13  and  C_14
REMARK    8  A    between atoms: N_13  and  C_18
REMARK    9  A    between atoms: C_14  and  C_15
REMARK   10  A    between atoms: C_15  and  C_16
REMARK   11  A    between atoms: C_16  and  O_17
REMARK   12  A    between atoms: C_18  and  C_19
REMARK   13  A    between atoms: C_18  and  C_20
REMARK                            x       y       z     vdW  Elec       q    Type
REMARK                         _______ _______ _______ _____ _____    ______ ____
ROOT
ATOM      1  C   UNL     1      -1.637  -2.120  -0.929  0.00  0.00    +0.079 C 
ENDROOT
BRANCH   1   2
ATOM      2  C   UNL     1      -2.986  -2.763  -0.736  0.00  0.00    +0.006 A 
ATOM      3  C   UNL     1      -3.751  -2.824   0.381  0.00  0.00    +0.014 A 
ATOM      4  C   UNL     1      -4.970  -3.474   0.326  0.00  0.00    +0.023 A 
ATOM      5  C   UNL     1      -5.364  -4.033  -0.846  0.00  0.00    +0.055 A 
ATOM      6  S   UNL     1      -3.995  -3.637  -1.922  0.00  0.00    -0.085 S 
ATOM      7 BR   UNL     1      -6.953  -4.979  -1.239  0.00  0.00    -0.043 Br
ENDBRANCH   1   2
BRANCH   1   8
ATOM      8  C   UNL     1      -1.732  -1.054  -2.023  0.00  0.00    -0.053 C 
BRANCH   8   9
ATOM      9  N   UNL     1      -2.623   0.026  -1.578  0.00  0.00    +0.381 N 
ATOM     10  H   UNL     1      -2.686   0.729  -2.299  0.00  0.00    -0.090 HD
ATOM     11  H   UNL     1      -3.541  -0.350  -1.394  0.00  0.00    -0.090 HD
ATOM     12  H   UNL     1      -2.254   0.441  -0.736  0.00  0.00    -0.090 HD
ENDBRANCH   8   9
BRANCH   8  14
ATOM     13  C   UNL     1      -0.428   0.548  -3.428  0.00  0.00    +0.002 C 
ATOM     14  C   UNL     1      -0.340  -0.484  -2.302  0.00  0.00    -0.018 C 
ENDBRANCH   8  14
ENDBRANCH   1   8
BRANCH   1  15
ATOM     15  N   UNL     1      -0.660  -3.142  -1.325  0.00  0.00    -0.294 NA
BRANCH  15  16
ATOM     16  C   UNL     1      -0.164  -3.878  -0.154  0.00  0.00    +0.051 C 
ATOM     17  C   UNL     1       0.675  -2.943   0.718  0.00  0.00    +0.024 C 
ATOM     18  C   UNL     1      -1.350  -4.405   0.656  0.00  0.00    +0.024 C 
ENDBRANCH  15  16
BRANCH  15  19
ATOM     19  C   UNL     1      -1.231  -4.059  -2.321  0.00  0.00    +0.087 C 
BRANCH  19  20
ATOM     20  C   UNL     1      -0.100  -4.784  -3.054  0.00  0.00    +0.043 C 
BRANCH  20  21
ATOM     21  C   UNL     1      -0.688  -5.638  -4.180  0.00  0.00    +0.157 C 
BRANCH  21  22
ATOM     22  O   UNL     1       0.368  -6.315  -4.864  0.00  0.00    -0.395 OA
ATOM     23  H   UNL     1       0.069  -6.876  -5.593  0.00  0.00    +0.209 HD
ENDBRANCH  21  22
ENDBRANCH  20  21
ENDBRANCH  19  20
ENDBRANCH  15  19
ENDBRANCH   1  15
TORSDOF 10
