REMARK  Name = ZINC04147564
REMARK  8 active torsions:
REMARK  status: ('A' for Active; 'I' for Inactive)
REMARK    1  A    between atoms: C_1  and  N_2
REMARK    2  A    between atoms: N_2  and  C_3
REMARK    3  A    between atoms: N_2  and  C_4
REMARK    4  A    between atoms: C_7  and  C_10
REMARK    5  A    between atoms: N_14  and  C_15
REMARK    6  A    between atoms: C_25  and  N_27
REMARK    7  A    between atoms: N_27  and  S_28
REMARK    8  A    between atoms: S_28  and  C_31
REMARK                            x       y       z     vdW  Elec       q    Type
REMARK                         _______ _______ _______ _____ _____    ______ ____
ROOT
ATOM      1  C   UNL     1       0.400  -0.851   0.062  0.00  0.00    +0.168 C 
ATOM      2  C   UNL     1       0.754   0.607  -0.275  0.00  0.00    +0.190 C 
ATOM      3  O   UNL     1       2.172   0.750  -0.177  0.00  0.00    -0.370 OA
ATOM      4  C   UNL     1       2.706  -0.315   0.624  0.00  0.00    +0.170 C 
ATOM      5  C   UNL     1       1.743  -1.515   0.412  0.00  0.00    +0.175 C 
ATOM      6  O   UNL     1       2.263  -2.198  -0.746  0.00  0.00    -0.370 OA
ATOM      7  C   UNL     1       3.697  -2.198  -0.569  0.00  0.00    +0.183 C 
ATOM      8  C   UNL     1       4.028  -0.792  -0.022  0.00  0.00    +0.133 C 
ENDROOT
BRANCH   1  13
ATOM      9  C   UNL     1      -1.809  -1.286   1.216  0.00  0.00    +0.182 A 
ATOM     10  N   UNL     1      -2.238  -1.178   2.457  0.00  0.00    -0.108 NA
ATOM     11  N   UNL     1      -1.297  -0.756   3.222  0.00  0.00    -0.023 NA
ATOM     12  N   UNL     1      -0.216  -0.570   2.545  0.00  0.00    -0.043 NA
ATOM     13  N   UNL     1      -0.508  -0.902   1.211  0.00  0.00    -0.217 N 
BRANCH   9  17
ATOM     14  C   UNL     1      -4.074  -2.587  -2.136  0.00  0.00    +0.029 A 
ATOM     15  C   UNL     1      -4.345  -3.103  -0.873  0.00  0.00    +0.024 A 
ATOM     16  C   UNL     1      -3.612  -2.683   0.215  0.00  0.00    +0.013 A 
ATOM     17  C   UNL     1      -2.597  -1.739   0.050  0.00  0.00    +0.021 A 
ATOM     18  C   UNL     1      -2.332  -1.219  -1.218  0.00  0.00    +0.013 A 
ATOM     19  C   UNL     1      -3.064  -1.647  -2.304  0.00  0.00    +0.024 A 
BRANCH  14  21
ATOM     20  C   UNL     1      -5.957  -3.915  -3.045  0.00  0.00    +0.129 C 
ATOM     21  N   UNL     1      -4.817  -3.014  -3.236  0.00  0.00    -0.336 N 
ATOM     22  C   UNL     1      -4.458  -2.563  -4.582  0.00  0.00    +0.129 C 
ENDBRANCH  14  21
ENDBRANCH   9  17
ENDBRANCH   1  13
BRANCH   8  23
ATOM     23  N   UNL     1       5.091  -0.870   0.983  0.00  0.00    -0.182 NA
ATOM     24  H   UNL     1       4.873  -1.087   1.903  0.00  0.00    +0.148 HD
BRANCH  23  25
ATOM     25  S   UNL     1       6.663  -0.586   0.549  0.00  0.00    +0.059 S 
ATOM     26  O   UNL     1       7.440  -0.709   1.732  0.00  0.00    -0.153 OA
ATOM     27  O   UNL     1       6.912  -1.370  -0.610  0.00  0.00    -0.153 OA
BRANCH  25  28
ATOM     28  C   UNL     1       6.770   1.100   0.048  0.00  0.00    +0.106 A 
ATOM     29  C   UNL     1       7.069   2.079   0.994  0.00  0.00    +0.029 A 
ATOM     30  C   UNL     1       7.158   3.390   0.641  0.00  0.00    +0.010 A 
ATOM     31  C   UNL     1       6.948   3.766  -0.697  0.00  0.00    -0.018 A 
ATOM     32  C   UNL     1       7.033   5.110  -1.099  0.00  0.00    +0.008 A 
ATOM     33  C   UNL     1       6.822   5.437  -2.403  0.00  0.00    +0.001 A 
ATOM     34  C   UNL     1       6.524   4.458  -3.349  0.00  0.00    +0.001 A 
ATOM     35  C   UNL     1       6.434   3.146  -2.996  0.00  0.00    +0.008 A 
ATOM     36  C   UNL     1       6.645   2.771  -1.658  0.00  0.00    -0.016 A 
ATOM     37  C   UNL     1       6.565   1.426  -1.257  0.00  0.00    +0.037 A 
ENDBRANCH  25  28
ENDBRANCH  23  25
ENDBRANCH   8  23
TORSDOF 6
