REMARK  Name = ZINC49646467
REMARK  3 active torsions:
REMARK  status: ('A' for Active; 'I' for Inactive)
REMARK    1  A    between atoms: N_9  and  S_10
REMARK    2  A    between atoms: S_10  and  C_13
REMARK    3  A    between atoms: C_13  and  C_14
REMARK                            x       y       z     vdW  Elec       q    Type
REMARK                         _______ _______ _______ _____ _____    ______ ____
ROOT
ATOM      1  C   UNL     1      -0.019   1.524   0.010  0.00  0.00    +0.006 C 
ATOM      2  C   UNL     1       1.415   2.064  -0.000  0.00  0.00    +0.006 C 
ATOM      3  C   UNL     1       2.062   1.757   1.358  0.00  0.00    +0.044 C 
ATOM      4  C   UNL     1       1.786   0.329   1.703  0.00  0.00    +0.012 A 
ATOM      5  C   UNL     1       0.893  -0.495   1.141  0.00  0.00    +0.028 A 
ATOM      6  N   UNL     1       0.819  -1.782   1.631  0.00  0.00    -0.336 N 
ATOM      7  C   UNL     1       1.647  -2.169   2.658  0.00  0.00    +0.191 A 
ATOM      8  S   UNL     1       2.567  -0.665   2.949  0.00  0.00    -0.053 S 
ATOM      9  N   UNL     1       1.736  -3.328   3.261  0.00  0.00    -0.108 NA
ATOM     10  C   UNL     1       0.002  -0.004   0.002  0.00  0.00    +0.054 C 
ATOM     11  H   UNL     1       0.185  -2.411   1.253  0.00  0.00    +0.168 HD
ENDROOT
BRANCH   9  12
ATOM     12  S   UNL     1       2.829  -3.541   4.487  0.00  0.00    +0.070 S 
ATOM     13  O   UNL     1       4.100  -3.378   3.872  0.00  0.00    -0.152 OA
ATOM     14  O   UNL     1       2.402  -2.655   5.512  0.00  0.00    -0.152 OA
BRANCH  12  15
ATOM     15  C   UNL     1       2.607  -5.262   5.016  0.00  0.00    +0.177 C 
BRANCH  15  16
ATOM     16  C   UNL     1       3.577  -5.574   6.157  0.00  0.00    -0.049 C 
ATOM     17  C   UNL     1       3.457  -7.061   6.575  0.00  0.00    -0.016 C 
ATOM     18  C   UNL     1       4.848  -7.321   7.211  0.00  0.00    -0.021 C 
ATOM     19  C   UNL     1       5.794  -6.469   6.339  0.00  0.00    -0.082 C 
ATOM     20  N   UNL     1       4.975  -5.420   5.701  0.00  0.00    +0.382 N 
ATOM     21  H   UNL     1       5.018  -5.518   4.698  0.00  0.00    -0.085 HD
ATOM     22  H   UNL     1       5.320  -4.509   5.967  0.00  0.00    -0.085 HD
ENDBRANCH  15  16
ENDBRANCH  12  15
ENDBRANCH   9  12
TORSDOF 3
