REMARK  Name = ZINC02274535
REMARK  14 active torsions:
REMARK  status: ('A' for Active; 'I' for Inactive)
REMARK    1  A    between atoms: C_1  and  C_2
REMARK    2  A    between atoms: C_2  and  N_60
REMARK    3  A    between atoms: C_3  and  C_4
REMARK    4  A    between atoms: C_3  and  N_60
REMARK    5  A    between atoms: C_5  and  C_7
REMARK    6  A    between atoms: C_5  and  C_8
REMARK    7  A    between atoms: C_5  and  N_60
REMARK    8  A    between atoms: N_10  and  N_11
REMARK    9  A    between atoms: C_12  and  C_14
REMARK   10  A    between atoms: C_14  and  C_15
REMARK   11  A    between atoms: C_14  and  C_22
REMARK   12  A    between atoms: C_14  and  O_29
REMARK   13  A    between atoms: C_19  and  C_21
REMARK   14  A    between atoms: C_26  and  C_28
REMARK                            x       y       z     vdW  Elec       q    Type
REMARK                         _______ _______ _______ _____ _____    ______ ____
ROOT
ATOM      1  C   UNL     1      -1.598   5.278  -0.577  0.00  0.00    +0.194 C 
ENDROOT
BRANCH   1   2
ATOM      2  C   UNL     1      -2.519   4.240   0.010  0.00  0.00    -0.002 A 
ATOM      3  C   UNL     1      -2.251   3.703   1.255  0.00  0.00    +0.007 A 
ATOM      4  C   UNL     1      -3.096   2.751   1.794  0.00  0.00    +0.001 A 
ATOM      5  C   UNL     1      -4.210   2.336   1.087  0.00  0.00    +0.003 A 
ATOM      6  C   UNL     1      -4.475   2.870  -0.160  0.00  0.00    -0.050 A 
ATOM      7  C   UNL     1      -3.633   3.826  -0.696  0.00  0.00    +0.010 A 
ATOM      8  C   UNL     1      -5.686   2.413  -0.932  0.00  0.00    +0.044 C 
ENDBRANCH   1   2
BRANCH   1   9
ATOM      9  C   UNL     1      -0.342   5.361   0.251  0.00  0.00    -0.002 A 
ATOM     10  C   UNL     1       0.604   4.355   0.176  0.00  0.00    +0.007 A 
ATOM     11  C   UNL     1       1.758   4.434   0.933  0.00  0.00    +0.001 A 
ATOM     12  C   UNL     1       1.962   5.513   1.772  0.00  0.00    +0.003 A 
ATOM     13  C   UNL     1       1.014   6.516   1.851  0.00  0.00    -0.050 A 
ATOM     14  C   UNL     1      -0.138   6.440   1.091  0.00  0.00    +0.010 A 
ATOM     15  C   UNL     1       1.237   7.693   2.766  0.00  0.00    +0.044 C 
ENDBRANCH   1   9
BRANCH   1  17
ATOM     16  N   UNL     1      -0.876   5.840  -2.876  0.00  0.00    -0.231 N 
ATOM     17  C   UNL     1      -1.242   4.892  -1.990  0.00  0.00    +0.270 C 
ATOM     18  O   UNL     1      -1.287   3.729  -2.331  0.00  0.00    -0.270 OA
ATOM     19  H   UNL     1      -0.840   6.771  -2.603  0.00  0.00    +0.173 HD
BRANCH  16  22
ATOM     20  C   UNL     1      -0.179   6.430  -5.074  0.00  0.00    +0.215 C 
ATOM     21  O   UNL     1      -0.134   7.593  -4.734  0.00  0.00    -0.276 OA
ATOM     22  N   UNL     1      -0.546   5.482  -4.189  0.00  0.00    -0.236 N 
ATOM     23  H   UNL     1      -0.581   4.551  -4.461  0.00  0.00    +0.173 HD
BRANCH  20  24
ATOM     24  C   UNL     1       0.176   6.044  -6.487  0.00  0.00    +0.018 C 
ATOM     25  C   UNL     1       1.598   5.479  -6.520  0.00  0.00    -0.004 C 
BRANCH  24  26
ATOM     26  N   UNL     1       0.077   7.243  -7.345  0.00  0.00    +0.387 N 
ATOM     27  H   UNL     1      -0.785   7.751  -7.111  0.00  0.00    -0.081 HD
BRANCH  26  29
ATOM     28  C   UNL     1       0.997   9.456  -7.836  0.00  0.00    -0.017 C 
ATOM     29  C   UNL     1       1.235   8.130  -7.110  0.00  0.00    -0.081 C 
ENDBRANCH  26  29
BRANCH  26  30
ATOM     30  C   UNL     1       0.027   6.844  -8.768  0.00  0.00    -0.081 C 
ATOM     31  C   UNL     1      -1.387   6.355  -9.089  0.00  0.00    -0.017 C 
ENDBRANCH  26  30
ENDBRANCH  24  26
ENDBRANCH  20  24
ENDBRANCH  16  22
ENDBRANCH   1  17
BRANCH   1  32
ATOM     32  O   UNL     1      -2.251   6.548  -0.580  0.00  0.00    -0.371 OA
ATOM     33  H   UNL     1      -3.069   6.569  -1.096  0.00  0.00    +0.212 HD
ENDBRANCH   1  32
TORSDOF 9
