REMARK  Name = ZINC59170408
REMARK  11 active torsions:
REMARK  status: ('A' for Active; 'I' for Inactive)
REMARK    1  A    between atoms: C_1  and  C_2
REMARK    2  A    between atoms: C_2  and  N_3
REMARK    3  A    between atoms: N_3  and  C_4
REMARK    4  A    between atoms: N_3  and  C_6
REMARK    5  A    between atoms: C_4  and  C_5
REMARK    6  A    between atoms: C_11  and  C_27
REMARK    7  A    between atoms: N_13  and  C_14
REMARK    8  A    between atoms: C_17  and  S_20
REMARK    9  A    between atoms: S_20  and  N_23
REMARK   10  A    between atoms: N_29  and  C_30
REMARK   11  A    between atoms: C_33  and  C_36
REMARK                            x       y       z     vdW  Elec       q    Type
REMARK                         _______ _______ _______ _____ _____    ______ ____
ROOT
ATOM      1  C   UNL     1      -2.219  -0.860   0.919  0.00  0.00    +0.033 A 
ATOM      2  C   UNL     1      -1.955   0.095   1.903  0.00  0.00    +0.024 A 
ATOM      3  C   UNL     1      -2.741   0.179   3.013  0.00  0.00    +0.013 A 
ATOM      4  C   UNL     1      -3.819  -0.705   3.176  0.00  0.00    +0.018 A 
ATOM      5  C   UNL     1      -4.621  -0.650   4.343  0.00  0.00    +0.030 A 
ATOM      6  C   UNL     1      -5.544  -1.666   4.553  0.00  0.00    +0.098 A 
ATOM      7  C   UNL     1      -5.597  -2.751   3.554  0.00  0.00    +0.212 A 
ATOM      8  N   UNL     1      -6.031  -3.952   3.874  0.00  0.00    -0.325 N 
ATOM      9  O   UNL     1      -5.183  -2.467   2.293  0.00  0.00    -0.438 OA
ATOM     10  C   UNL     1      -4.107  -1.650   2.171  0.00  0.00    +0.139 A 
ATOM     11  C   UNL     1      -3.298  -1.724   1.051  0.00  0.00    +0.070 A 
ATOM     12  H   UNL     1      -6.230  -4.165   4.800  0.00  0.00    +0.169 HD
ENDROOT
BRANCH   8  13
ATOM     13  C   UNL     1      -6.202  -4.899   2.903  0.00  0.00    +0.042 A 
ATOM     14  C   UNL     1      -6.826  -4.564   1.698  0.00  0.00    +0.027 A 
ATOM     15  C   UNL     1      -6.995  -5.524   0.723  0.00  0.00    +0.030 A 
ATOM     16  C   UNL     1      -6.548  -6.816   0.935  0.00  0.00    +0.105 A 
ATOM     17  C   UNL     1      -5.929  -7.155   2.125  0.00  0.00    +0.030 A 
ATOM     18  C   UNL     1      -5.748  -6.204   3.107  0.00  0.00    +0.027 A 
BRANCH  16  19
ATOM     19  S   UNL     1      -6.769  -8.037  -0.317  0.00  0.00    +0.056 S 
ATOM     20  O   UNL     1      -6.756  -9.297   0.338  0.00  0.00    -0.153 OA
ATOM     21  O   UNL     1      -7.862  -7.605  -1.116  0.00  0.00    -0.153 OA
BRANCH  19  22
ATOM     22  N   UNL     1      -5.428  -7.992  -1.286  0.00  0.00    -0.204 NA
ATOM     23  H   UNL     1      -5.126  -8.798  -1.734  0.00  0.00    +0.144 HD
ATOM     24  H   UNL     1      -4.943  -7.161  -1.407  0.00  0.00    +0.144 HD
ENDBRANCH  19  22
ENDBRANCH  16  19
ENDBRANCH   8  13
BRANCH   6  25
ATOM     25  C   UNL     1      -6.433  -1.662   5.726  0.00  0.00    +0.253 C 
ATOM     26  O   UNL     1      -6.274  -0.837   6.606  0.00  0.00    -0.270 OA
ATOM     27  N   UNL     1      -7.422  -2.571   5.824  0.00  0.00    -0.281 N 
ATOM     28  H   UNL     1      -7.505  -3.273   5.160  0.00  0.00    +0.155 HD
BRANCH  27  29
ATOM     29  C   UNL     1      -8.331  -2.504   6.886  0.00  0.00    +0.034 A 
ATOM     30  C   UNL     1      -7.919  -2.033   8.125  0.00  0.00    +0.023 A 
ATOM     31  C   UNL     1      -8.818  -1.967   9.171  0.00  0.00    +0.005 A 
ATOM     32  C   UNL     1     -10.128  -2.370   8.985  0.00  0.00    -0.050 A 
ATOM     33  C   UNL     1     -10.541  -2.840   7.752  0.00  0.00    +0.005 A 
ATOM     34  C   UNL     1      -9.648  -2.903   6.701  0.00  0.00    +0.023 A 
ATOM     35  C   UNL     1     -11.106  -2.298  10.129  0.00  0.00    +0.044 C 
ENDBRANCH  27  29
ENDBRANCH   6  25
BRANCH   1  36
ATOM     36  N   UNL     1      -1.401  -0.942  -0.201  0.00  0.00    -0.330 N 
BRANCH  36  38
ATOM     37  C   UNL     1      -0.707   1.233  -1.079  0.00  0.00    +0.024 C 
ATOM     38  C   UNL     1      -0.261  -0.033  -0.344  0.00  0.00    +0.102 C 
ENDBRANCH  36  38
BRANCH  36  39
ATOM     39  C   UNL     1      -1.677  -1.938  -1.238  0.00  0.00    +0.102 C 
ATOM     40  C   UNL     1      -0.930  -3.234  -0.914  0.00  0.00    +0.024 C 
ENDBRANCH  36  39
ENDBRANCH   1  36
TORSDOF 8
