REMARK  Name = ZINC22430293
REMARK  12 active torsions:
REMARK  status: ('A' for Active; 'I' for Inactive)
REMARK    1  A    between atoms: C_1  and  C_2
REMARK    2  A    between atoms: C_2  and  C_3
REMARK    3  A    between atoms: C_3  and  C_5
REMARK    4  A    between atoms: C_3  and  N_12
REMARK    5  A    between atoms: C_8  and  C_11
REMARK    6  A    between atoms: C_13  and  C_15
REMARK    7  A    between atoms: C_15  and  N_16
REMARK    8  A    between atoms: N_16  and  C_17
REMARK    9  A    between atoms: N_16  and  S_24
REMARK   10  A    between atoms: C_20  and  C_23
REMARK   11  A    between atoms: S_24  and  C_27
REMARK   12  A    between atoms: C_30  and  C_33
REMARK                            x       y       z     vdW  Elec       q    Type
REMARK                         _______ _______ _______ _____ _____    ______ ____
ROOT
ATOM      1  N   UNL     1       4.653   0.959   1.120  0.00  0.00    -0.194 N 
ENDROOT
BRANCH   1   2
ATOM      2  C   UNL     1       5.275  -0.160   1.680  0.00  0.00    +0.052 A 
ATOM      3  C   UNL     1       6.530  -0.554   1.235  0.00  0.00    +0.025 A 
ATOM      4  C   UNL     1       7.145  -1.657   1.794  0.00  0.00    +0.005 A 
ATOM      5  C   UNL     1       6.507  -2.376   2.789  0.00  0.00    -0.050 A 
ATOM      6  C   UNL     1       5.255  -1.989   3.231  0.00  0.00    +0.005 A 
ATOM      7  C   UNL     1       4.637  -0.884   2.680  0.00  0.00    +0.025 A 
ATOM      8  C   UNL     1       7.178  -3.582   3.393  0.00  0.00    +0.044 C 
ENDBRANCH   1   2
BRANCH   1   9
ATOM      9  S   UNL     1       4.370   1.019  -0.510  0.00  0.00    +0.075 S 
ATOM     10  O   UNL     1       4.460  -0.316  -0.988  0.00  0.00    -0.150 OA
ATOM     11  O   UNL     1       3.208   1.816  -0.691  0.00  0.00    -0.150 OA
BRANCH   9  12
ATOM     12  C   UNL     1       5.707   1.906  -1.238  0.00  0.00    +0.109 A 
ATOM     13  C   UNL     1       5.680   3.287  -1.279  0.00  0.00    +0.029 A 
ATOM     14  C   UNL     1       6.731   3.983  -1.846  0.00  0.00    +0.005 A 
ATOM     15  C   UNL     1       7.805   3.297  -2.382  0.00  0.00    -0.050 A 
ATOM     16  C   UNL     1       7.830   1.915  -2.345  0.00  0.00    +0.005 A 
ATOM     17  C   UNL     1       6.781   1.220  -1.774  0.00  0.00    +0.029 A 
ATOM     18  C   UNL     1       8.949   4.056  -3.004  0.00  0.00    +0.044 C 
ENDBRANCH   9  12
ENDBRANCH   1   9
BRANCH   1  19
ATOM     19  C   UNL     1       4.251   2.078   1.976  0.00  0.00    +0.227 C 
BRANCH  19  21
ATOM     20  N   UNL     1       2.317   2.694   3.390  0.00  0.00    -0.307 N 
ATOM     21  C   UNL     1       2.893   1.797   2.565  0.00  0.00    +0.233 C 
ATOM     22  O   UNL     1       2.317   0.764   2.297  0.00  0.00    -0.274 OA
ATOM     23  H   UNL     1       2.840   3.632   3.633  0.00  0.00    +0.149 HD
BRANCH  20  24
ATOM     24  C   UNL     1       0.997   2.421   3.963  0.00  0.00    +0.103 C 
BRANCH  24  25
ATOM     25  C   UNL     1       0.839   3.189   5.250  0.00  0.00    -0.027 A 
ATOM     26  C   UNL     1       1.322   4.481   5.347  0.00  0.00    +0.006 A 
ATOM     27  C   UNL     1       1.173   5.187   6.526  0.00  0.00    +0.004 A 
ATOM     28  C   UNL     1       0.550   4.598   7.611  0.00  0.00    -0.050 A 
ATOM     29  C   UNL     1       0.072   3.305   7.515  0.00  0.00    +0.004 A 
ATOM     30  C   UNL     1       0.217   2.600   6.334  0.00  0.00    +0.006 A 
ATOM     31  C   UNL     1       0.392   5.367   8.898  0.00  0.00    +0.044 C 
ENDBRANCH  24  25
BRANCH  24  33
ATOM     32  C   UNL     1      -0.005   1.989   1.715  0.00  0.00    +0.006 C 
ATOM     33  C   UNL     1      -0.087   2.855   2.974  0.00  0.00    +0.024 C 
ENDBRANCH  24  33
ENDBRANCH  20  24
ENDBRANCH  19  21
ENDBRANCH   1  19
TORSDOF 8
