REMARK  Name = ZINC08881832
REMARK  11 active torsions:
REMARK  status: ('A' for Active; 'I' for Inactive)
REMARK    1  A    between atoms: C_1  and  C_2
REMARK    2  A    between atoms: C_2  and  C_36
REMARK    3  A    between atoms: C_5  and  C_33
REMARK    4  A    between atoms: C_6  and  N_13
REMARK    5  A    between atoms: C_9  and  C_11
REMARK    6  A    between atoms: C_9  and  C_12
REMARK    7  A    between atoms: C_14  and  C_16
REMARK    8  A    between atoms: C_19  and  S_22
REMARK    9  A    between atoms: S_22  and  N_25
REMARK   10  A    between atoms: N_25  and  C_26
REMARK   11  A    between atoms: N_25  and  C_27
REMARK                            x       y       z     vdW  Elec       q    Type
REMARK                         _______ _______ _______ _____ _____    ______ ____
ROOT
ATOM      1  N   UNL     1       3.597  -0.669   0.985  0.00  0.00    -0.275 N 
ATOM      2  C   UNL     1       4.436   0.385   0.941  0.00  0.00    +0.249 C 
ATOM      3  O   UNL     1       4.005   1.511   1.098  0.00  0.00    -0.270 OA
ATOM      4  H   UNL     1       3.987  -1.688   0.843  0.00  0.00    +0.156 HD
ENDROOT
BRANCH   1  10
ATOM      5  C   UNL     1      -3.618  -1.914   2.684  0.00  0.00    -0.010 C 
ATOM      6  C   UNL     1      -2.309  -1.103   2.635  0.00  0.00    -0.069 C 
ATOM      7  C   UNL     1      -1.355  -1.813   1.667  0.00  0.00    +0.024 C 
ATOM      8  C   UNL     1      -0.109  -0.947   1.534  0.00  0.00    -0.026 A 
ATOM      9  C   UNL     1       1.235  -1.423   1.287  0.00  0.00    +0.068 A 
ATOM     10  C   UNL     1       2.245  -0.470   1.209  0.00  0.00    +0.085 A 
ATOM     11  S   UNL     1       1.402   1.023   1.457  0.00  0.00    -0.079 S 
ATOM     12  C   UNL     1      -0.240   0.395   1.657  0.00  0.00    -0.016 A 
ATOM     13  C   UNL     1      -1.508   1.146   1.899  0.00  0.00    -0.041 C 
ATOM     14  N   UNL     1      -2.618   0.250   2.206  0.00  0.00    +0.389 N 
ATOM     15  C   UNL     1      -1.296   2.144   3.047  0.00  0.00    -0.005 C 
ATOM     16  C   UNL     1      -1.847   1.948   0.629  0.00  0.00    -0.005 C 
ATOM     17  C   UNL     1      -1.699  -1.109   4.040  0.00  0.00    -0.010 C 
ATOM     18  H   UNL     1      -3.217   0.215   1.284  0.00  0.00    -0.084 HD
ATOM     19  H   UNL     1      -3.188   0.763   2.994  0.00  0.00    -0.084 HD
BRANCH   9  20
ATOM     20  C   UNL     1       1.533  -2.849   1.123  0.00  0.00    +0.244 C 
ATOM     21  O   UNL     1       1.497  -3.355   0.016  0.00  0.00    -0.270 OA
ATOM     22  N   UNL     1       1.847  -3.600   2.197  0.00  0.00    -0.325 N 
ATOM     23  H   UNL     1       2.070  -4.670   2.074  0.00  0.00    +0.145 HD
ATOM     24  H   UNL     1       1.879  -3.143   3.197  0.00  0.00    +0.145 HD
ENDBRANCH   9  20
ENDBRANCH   1  10
BRANCH   2  25
ATOM     25  C   UNL     1       5.878   0.173   0.703  0.00  0.00    +0.037 A 
ATOM     26  C   UNL     1       6.378  -1.119   0.528  0.00  0.00    +0.015 A 
ATOM     27  C   UNL     1       7.725  -1.310   0.301  0.00  0.00    +0.029 A 
ATOM     28  C   UNL     1       8.582  -0.225   0.256  0.00  0.00    +0.109 A 
ATOM     29  C   UNL     1       8.095   1.058   0.434  0.00  0.00    +0.029 A 
ATOM     30  C   UNL     1       6.749   1.263   0.657  0.00  0.00    +0.015 A 
BRANCH  28  31
ATOM     31  S   UNL     1      10.303  -0.478  -0.028  0.00  0.00    +0.074 S 
ATOM     32  O   UNL     1      10.424  -1.721  -0.705  0.00  0.00    -0.150 OA
ATOM     33  O   UNL     1      10.808   0.736  -0.567  0.00  0.00    -0.150 OA
BRANCH  31  34
ATOM     34  N   UNL     1      11.020  -0.673   1.452  0.00  0.00    -0.206 N 
ATOM     35  C   UNL     1      11.033  -1.991   2.091  0.00  0.00    +0.157 C 
BRANCH  34  36
ATOM     36  C   UNL     1      11.612   0.418   2.091  0.00  0.00    +0.051 A 
ATOM     37  C   UNL     1      12.664   1.093   1.484  0.00  0.00    +0.025 A 
ATOM     38  C   UNL     1      13.244   2.176   2.116  0.00  0.00    +0.002 A 
ATOM     39  C   UNL     1      12.787   2.581   3.356  0.00  0.00    +0.000 A 
ATOM     40  C   UNL     1      11.744   1.908   3.966  0.00  0.00    +0.002 A 
ATOM     41  C   UNL     1      11.155   0.828   3.337  0.00  0.00    +0.025 A 
ENDBRANCH  34  36
ENDBRANCH  31  34
ENDBRANCH  28  31
ENDBRANCH   2  25
TORSDOF 6
