REMARK  Name = ZINC05518854
REMARK  5 active torsions:
REMARK  status: ('A' for Active; 'I' for Inactive)
REMARK    1  A    between atoms: C_6  and  C_7
REMARK    2  A    between atoms: C_14  and  C_17
REMARK    3  A    between atoms: C_15  and  N_16
REMARK    4  A    between atoms: C_18  and  C_19
REMARK    5  A    between atoms: C_23  and  C_28
REMARK                            x       y       z     vdW  Elec       q    Type
REMARK                         _______ _______ _______ _____ _____    ______ ____
ROOT
ATOM      1  C   UNL     1      -0.035   1.232   0.020  0.00  0.00    +0.012 A 
ATOM      2  C   UNL     1       1.081   1.691  -0.611  0.00  0.00    +0.012 A 
ATOM      3  C   UNL     1       2.345   1.227  -0.225  0.00  0.00    +0.021 A 
ATOM      4  C   UNL     1       2.465   0.284   0.817  0.00  0.00    +0.049 A 
ATOM      5  C   UNL     1       1.322  -0.177   1.454  0.00  0.00    +0.037 A 
ATOM      6  C   UNL     1       0.072   0.295   1.057  0.00  0.00    +0.014 A 
ATOM      7  N   UNL     1       3.806   0.007   0.985  0.00  0.00    -0.353 N 
ATOM      8  H   UNL     1       4.170  -0.612   1.638  0.00  0.00    +0.166 HD
ATOM      9  C   UNL     1       4.554   0.742   0.083  0.00  0.00    +0.061 A 
ATOM     10  C   UNL     1       3.703   1.511  -0.687  0.00  0.00    +0.057 A 
ENDROOT
BRANCH   6  11
ATOM     11  C   UNL     1      -1.146  -0.195   1.733  0.00  0.00    +0.100 C 
ATOM     12  N   UNL     1      -1.157  -0.573   3.002  0.00  0.00    -0.371 N 
ATOM     13  C   UNL     1      -2.516  -1.003   3.368  0.00  0.00    +0.132 C 
ATOM     14  C   UNL     1      -3.317  -0.808   2.065  0.00  0.00    +0.124 C 
ATOM     15  N   UNL     1      -2.317  -0.286   1.121  0.00  0.00    -0.329 N 
ATOM     16  H   UNL     1      -2.487  -0.049   0.196  0.00  0.00    +0.147 HD
ATOM     17  H   UNL     1      -0.391  -0.567   3.597  0.00  0.00    +0.161 HD
ENDBRANCH   6  11
BRANCH  10  18
ATOM     18  N   UNL     1       4.069   2.390  -1.710  0.00  0.00    -0.356 N 
ATOM     19  H   UNL     1       3.387   2.885  -2.192  0.00  0.00    +0.142 HD
ATOM     20  H   UNL     1       5.005   2.506  -1.939  0.00  0.00    +0.142 HD
ENDBRANCH  10  18
BRANCH   9  21
ATOM     21  C   UNL     1       5.966   0.712  -0.033  0.00  0.00    +0.031 C 
ATOM     22  C   UNL     1       6.625  -0.469   0.035  0.00  0.00    +0.048 C 
BRANCH  22  23
ATOM     23  C   UNL     1       5.877  -1.725   0.036  0.00  0.00    +0.129 A 
ATOM     24  C   UNL     1       6.420  -2.961   0.222  0.00  0.00    +0.057 A 
ATOM     25  C   UNL     1       5.306  -3.907   0.143  0.00  0.00    +0.021 A 
ATOM     26  C   UNL     1       5.204  -5.293   0.249  0.00  0.00    +0.023 A 
ATOM     27  C   UNL     1       3.958  -5.899   0.122  0.00  0.00    +0.013 A 
ATOM     28  C   UNL     1       2.820  -5.117  -0.111  0.00  0.00    +0.015 A 
ATOM     29  C   UNL     1       2.920  -3.749  -0.216  0.00  0.00    +0.047 A 
ATOM     30  C   UNL     1       4.157  -3.126  -0.091  0.00  0.00    +0.136 A 
ATOM     31  O   UNL     1       4.545  -1.836  -0.142  0.00  0.00    -0.455 OA
BRANCH  27  32
ATOM     32  C   UNL     1       3.836  -7.368   0.232  0.00  0.00    +0.100 C 
ATOM     33  N   UNL     1       4.809  -8.194  -0.116  0.00  0.00    -0.371 N 
ATOM     34  C   UNL     1       4.373  -9.581   0.114  0.00  0.00    +0.132 C 
ATOM     35  C   UNL     1       2.943  -9.420   0.668  0.00  0.00    +0.124 C 
ATOM     36  N   UNL     1       2.746  -7.962   0.690  0.00  0.00    -0.329 N 
ATOM     37  H   UNL     1       1.944  -7.508   0.992  0.00  0.00    +0.147 HD
ATOM     38  H   UNL     1       5.673  -7.928  -0.466  0.00  0.00    +0.161 HD
ENDBRANCH  27  32
ENDBRANCH  22  23
ENDBRANCH   9  21
TORSDOF 5
