REMARK  Name = ZINC47274340
REMARK  7 active torsions:
REMARK  status: ('A' for Active; 'I' for Inactive)
REMARK    1  A    between atoms: C_7  and  N_11
REMARK    2  A    between atoms: C_8  and  C_9
REMARK    3  A    between atoms: C_12  and  C_14
REMARK    4  A    between atoms: C_14  and  N_15
REMARK    5  A    between atoms: N_15  and  C_16
REMARK    6  A    between atoms: N_15  and  C_20
REMARK    7  A    between atoms: C_16  and  C_17
REMARK                            x       y       z     vdW  Elec       q    Type
REMARK                         _______ _______ _______ _____ _____    ______ ____
ROOT
ATOM      1  N   UNL     1       5.591  -2.013  -1.325  0.00  0.00    -0.281 N 
ATOM      2  C   UNL     1       6.151  -3.216  -1.088  0.00  0.00    +0.201 C 
ATOM      3  O   UNL     1       5.875  -3.824  -0.075  0.00  0.00    -0.278 OA
ATOM      4  H   UNL     1       5.812  -1.527  -2.135  0.00  0.00    +0.155 HD
ENDROOT
BRANCH   1  11
ATOM      5  C   UNL     1       0.753   1.129   2.580  0.00  0.00    +0.001 C 
ATOM      6  C   UNL     1       2.059   1.762   2.106  0.00  0.00    +0.005 C 
ATOM      7  C   UNL     1       2.341   1.379   0.656  0.00  0.00    +0.037 C 
ATOM      8  C   UNL     1       3.144   0.087   0.610  0.00  0.00    -0.018 A 
ATOM      9  C   UNL     1       3.093  -0.843   1.588  0.00  0.00    -0.004 A 
ATOM     10  S   UNL     1       4.180  -2.130   1.042  0.00  0.00    -0.077 S 
ATOM     11  C   UNL     1       4.699  -1.470  -0.411  0.00  0.00    +0.090 A 
ATOM     12  C   UNL     1       4.035  -0.259  -0.488  0.00  0.00    +0.084 A 
ATOM     13  C   UNL     1       2.306  -0.790   2.860  0.00  0.00    +0.043 C 
ATOM     14  C   UNL     1       0.859  -0.393   2.541  0.00  0.00    +0.005 C 
BRANCH  12  15
ATOM     15  C   UNL     1       4.216   0.619  -1.604  0.00  0.00    +0.102 C 
ATOM     16  N   UNL     1       4.359   1.316  -2.490  0.00  0.00    -0.191 NA
ENDBRANCH  12  15
ENDBRANCH   1  11
BRANCH   2  17
ATOM     17  C   UNL     1       7.119  -3.806  -2.080  0.00  0.00    +0.020 C 
BRANCH  17  18
ATOM     18  N   UNL     1       7.461  -5.176  -1.676  0.00  0.00    +0.393 N 
ATOM     19  H   UNL     1       7.473  -5.237  -0.669  0.00  0.00    -0.080 HD
BRANCH  18  20
ATOM     20  C   UNL     1       6.460  -6.109  -2.211  0.00  0.00    -0.067 C 
ATOM     21  C   UNL     1       5.030  -5.636  -1.849  0.00  0.00    -0.015 C 
ATOM     22  C   UNL     1       4.160  -6.312  -2.937  0.00  0.00    -0.002 C 
ATOM     23  C   UNL     1       5.021  -6.229  -4.215  0.00  0.00    -0.002 C 
ATOM     24  C   UNL     1       6.483  -6.100  -3.753  0.00  0.00    -0.015 C 
ENDBRANCH  18  20
BRANCH  18  25
ATOM     25  C   UNL     1       8.787  -5.526  -2.203  0.00  0.00    +0.019 C 
BRANCH  25  26
ATOM     26  C   UNL     1       9.210  -6.863  -1.651  0.00  0.00    +0.194 C 
ATOM     27  O   UNL     1       8.470  -7.476  -0.911  0.00  0.00    -0.278 OA
ATOM     28  N   UNL     1      10.412  -7.378  -1.979  0.00  0.00    -0.331 N 
ATOM     29  H   UNL     1      11.004  -6.888  -2.571  0.00  0.00    +0.145 HD
ATOM     30  H   UNL     1      10.684  -8.239  -1.624  0.00  0.00    +0.145 HD
ENDBRANCH  25  26
ENDBRANCH  18  25
ENDBRANCH  17  18
ENDBRANCH   2  17
TORSDOF 7
