REMARK  Name = ZINC01821879
REMARK  6 active torsions:
REMARK  status: ('A' for Active; 'I' for Inactive)
REMARK    1  A    between atoms: C_1  and  O_2
REMARK    2  A    between atoms: O_2  and  C_3
REMARK    3  A    between atoms: C_8  and  C_9
REMARK    4  A    between atoms: N_11  and  C_12
REMARK    5  A    between atoms: C_12  and  C_30
REMARK    6  A    between atoms: N_18  and  C_23
REMARK                            x       y       z     vdW  Elec       q    Type
REMARK                         _______ _______ _______ _____ _____    ______ ____
ROOT
ATOM      1  C   UNL     1      -1.742  -5.758  -1.470  0.00  0.00    +0.240 C 
ATOM      2  C   UNL     1      -0.766  -6.797  -0.971  0.00  0.00    +0.097 A 
ATOM      3  C   UNL     1      -0.494  -7.325   0.297  0.00  0.00    +0.262 A 
ATOM      4  N   UNL     1       0.462  -8.268   0.429  0.00  0.00    -0.274 N 
ATOM      5  C   UNL     1       1.144  -8.695  -0.649  0.00  0.00    +0.335 A 
ATOM      6  O   UNL     1       2.002  -9.546  -0.513  0.00  0.00    -0.246 OA
ATOM      7  N   UNL     1       0.897  -8.201  -1.875  0.00  0.00    -0.249 N 
ATOM      8  C   UNL     1      -0.071  -7.234  -2.060  0.00  0.00    +0.125 A 
ATOM      9  N   UNL     1      -0.490  -6.593  -3.200  0.00  0.00    -0.269 N 
ATOM     10  C   UNL     1      -1.471  -5.704  -2.961  0.00  0.00    +0.256 C 
ATOM     11  O   UNL     1      -2.027  -5.000  -3.775  0.00  0.00    -0.272 OA
ATOM     12  O   UNL     1      -1.113  -6.936   1.272  0.00  0.00    -0.267 OA
ATOM     13  H   UNL     1      -0.120  -6.762  -4.081  0.00  0.00    +0.156 HD
ATOM     14  H   UNL     1       0.658  -8.640   1.304  0.00  0.00    +0.173 HD
ENDROOT
BRANCH   7  15
ATOM     15  C   UNL     1       1.628  -8.671  -2.973  0.00  0.00    +0.053 A 
ATOM     16  C   UNL     1       1.168  -9.761  -3.701  0.00  0.00    +0.026 A 
ATOM     17  C   UNL     1       1.891 -10.222  -4.783  0.00  0.00    +0.002 A 
ATOM     18  C   UNL     1       3.073  -9.600  -5.143  0.00  0.00    +0.000 A 
ATOM     19  C   UNL     1       3.534  -8.514  -4.420  0.00  0.00    +0.002 A 
ATOM     20  C   UNL     1       2.812  -8.045  -3.341  0.00  0.00    +0.026 A 
ENDBRANCH   7  15
BRANCH   1  23
ATOM     21  C   UNL     1      -2.176  -3.373  -1.229  0.00  0.00    +0.249 C 
ATOM     22  O   UNL     1      -3.034  -3.472  -2.085  0.00  0.00    -0.270 OA
ATOM     23  N   UNL     1      -1.473  -4.458  -0.850  0.00  0.00    -0.287 N 
ATOM     24  H   UNL     1      -0.789  -4.379  -0.167  0.00  0.00    +0.151 HD
BRANCH  21  30
ATOM     25  C   UNL     1      -2.634  -0.932  -0.994  0.00  0.00    +0.132 A 
ATOM     26  C   UNL     1      -2.375   0.292  -0.396  0.00  0.00    +0.046 A 
ATOM     27  C   UNL     1      -1.399   0.395   0.575  0.00  0.00    +0.004 A 
ATOM     28  C   UNL     1      -0.672  -0.720   0.959  0.00  0.00    +0.001 A 
ATOM     29  C   UNL     1      -0.917  -1.944   0.376  0.00  0.00    +0.017 A 
ATOM     30  C   UNL     1      -1.905  -2.064  -0.604  0.00  0.00    +0.078 A 
BRANCH  25  32
ATOM     31  C   UNL     1      -4.294   0.161  -2.296  0.00  0.00    +0.277 C 
ATOM     32  O   UNL     1      -3.592  -1.035  -1.949  0.00  0.00    -0.494 OA
ENDBRANCH  25  32
ENDBRANCH  21  30
ENDBRANCH   1  23
BRANCH   1  33
ATOM     33  C   UNL     1      -3.183  -6.194  -1.200  0.00  0.00    +0.424 C 
ATOM     34  F   UNL     1      -4.064  -5.238  -1.718  0.00  0.00    -0.167 F 
ATOM     35  F   UNL     1      -3.420  -7.428  -1.815  0.00  0.00    -0.167 F 
ATOM     36  F   UNL     1      -3.384  -6.314   0.179  0.00  0.00    -0.167 F 
ENDBRANCH   1  33
TORSDOF 5
