REMARK  Name = ZINC38636218
REMARK  13 active torsions:
REMARK  status: ('A' for Active; 'I' for Inactive)
REMARK    1  A    between atoms: C_1  and  N_2
REMARK    2  A    between atoms: N_2  and  C_3
REMARK    3  A    between atoms: N_2  and  C_4
REMARK    4  A    between atoms: C_7  and  C_10
REMARK    5  A    between atoms: C_10  and  C_12
REMARK    6  A    between atoms: C_10  and  N_29
REMARK    7  A    between atoms: C_12  and  N_13
REMARK    8  A    between atoms: C_14  and  C_16
REMARK    9  A    between atoms: N_18  and  C_19
REMARK   10  A    between atoms: C_21  and  O_27
REMARK   11  A    between atoms: C_24  and  O_25
REMARK   12  A    between atoms: O_25  and  C_26
REMARK   13  A    between atoms: O_27  and  C_28
REMARK                            x       y       z     vdW  Elec       q    Type
REMARK                         _______ _______ _______ _____ _____    ______ ____
ROOT
ATOM      1  N   UNL     1      -4.066  -3.925   2.072  0.00  0.00    -0.309 N 
ATOM      2  C   UNL     1      -4.180  -4.299   3.361  0.00  0.00    +0.299 C 
ATOM      3  O   UNL     1      -5.135  -3.937   4.016  0.00  0.00    -0.265 OA
ATOM      4  H   UNL     1      -3.303  -4.215   1.548  0.00  0.00    +0.149 HD
ENDROOT
BRANCH   2   5
ATOM      5  C   UNL     1      -3.131  -5.161   3.984  0.00  0.00    +0.303 C 
ATOM      6  O   UNL     1      -2.176  -5.524   3.329  0.00  0.00    -0.265 OA
ATOM      7  N   UNL     1      -3.246  -5.536   5.274  0.00  0.00    -0.275 N 
ATOM      8  H   UNL     1      -3.970  -5.188   5.818  0.00  0.00    +0.155 HD
BRANCH   7   9
ATOM      9  C   UNL     1      -2.320  -6.426   5.828  0.00  0.00    +0.079 A 
ATOM     10  C   UNL     1      -0.996  -6.398   5.416  0.00  0.00    +0.072 A 
ATOM     11  C   UNL     1      -0.081  -7.282   5.967  0.00  0.00    +0.122 A 
ATOM     12  C   UNL     1      -0.489  -8.193   6.930  0.00  0.00    +0.049 A 
ATOM     13  C   UNL     1      -1.808  -8.224   7.342  0.00  0.00    +0.051 A 
ATOM     14  C   UNL     1      -2.726  -7.340   6.799  0.00  0.00    +0.141 A 
BRANCH  14  15
ATOM     15  O   UNL     1      -4.022  -7.367   7.210  0.00  0.00    -0.493 OA
ATOM     16  C   UNL     1      -4.367  -8.329   8.208  0.00  0.00    +0.277 C 
ENDBRANCH  14  15
BRANCH  11  17
ATOM     17  O   UNL     1       1.217  -7.255   5.563  0.00  0.00    -0.495 OA
ATOM     18  C   UNL     1       2.106  -8.193   6.173  0.00  0.00    +0.277 C 
ENDBRANCH  11  17
ENDBRANCH   7   9
ENDBRANCH   2   5
BRANCH   1  19
ATOM     19  C   UNL     1      -5.095  -3.079   1.461  0.00  0.00    +0.094 C 
BRANCH  19  20
ATOM     20  C   UNL     1      -4.791  -2.903  -0.029  0.00  0.00    -0.020 C 
BRANCH  20  24
ATOM     21  C   UNL     1      -1.140  -0.731  -0.493  0.00  0.00    +0.029 A 
ATOM     22  C   UNL     1      -1.148  -2.114  -0.622  0.00  0.00    +0.023 A 
ATOM     23  C   UNL     1      -2.330  -2.813  -0.470  0.00  0.00    +0.004 A 
ATOM     24  C   UNL     1      -3.504  -2.137  -0.192  0.00  0.00    -0.059 A 
ATOM     25  C   UNL     1      -3.499  -0.760  -0.063  0.00  0.00    +0.004 A 
ATOM     26  C   UNL     1      -2.320  -0.056  -0.207  0.00  0.00    +0.023 A 
BRANCH  21  28
ATOM     27  C   UNL     1       0.062   1.437  -0.502  0.00  0.00    +0.129 C 
ATOM     28  N   UNL     1       0.054  -0.021  -0.644  0.00  0.00    -0.336 N 
ATOM     29  C   UNL     1       1.297  -0.735  -0.946  0.00  0.00    +0.129 C 
ENDBRANCH  21  28
ENDBRANCH  20  24
BRANCH  20  30
ATOM     30  N   UNL     1      -5.887  -2.161  -0.667  0.00  0.00    +0.385 N 
ATOM     31  C   UNL     1      -5.696  -2.131  -2.139  0.00  0.00    -0.078 C 
ATOM     32  C   UNL     1      -7.122  -1.853  -2.676  0.00  0.00    -0.020 C 
ATOM     33  C   UNL     1      -8.018  -2.665  -1.714  0.00  0.00    -0.020 C 
ATOM     34  C   UNL     1      -7.173  -2.855  -0.441  0.00  0.00    -0.078 C 
ATOM     35  H   UNL     1      -5.930  -1.221  -0.302  0.00  0.00    -0.081 HD
ENDBRANCH  20  30
ENDBRANCH  19  20
ENDBRANCH   1  19
TORSDOF 9
