REMARK  Name = ZINC62586510
REMARK  13 active torsions:
REMARK  status: ('A' for Active; 'I' for Inactive)
REMARK    1  A    between atoms: C_1  and  C_2
REMARK    2  A    between atoms: C_4  and  O_21
REMARK    3  A    between atoms: C_7  and  N_8
REMARK    4  A    between atoms: C_9  and  C_11
REMARK    5  A    between atoms: N_13  and  C_14
REMARK    6  A    between atoms: C_14  and  C_15
REMARK    7  A    between atoms: C_14  and  C_16
REMARK    8  A    between atoms: C_16  and  C_17
REMARK    9  A    between atoms: C_17  and  N_18
REMARK   10  A    between atoms: N_18  and  C_19
REMARK   11  A    between atoms: N_18  and  C_20
REMARK   12  A    between atoms: O_21  and  C_22
REMARK   13  A    between atoms: C_22  and  C_23
REMARK                            x       y       z     vdW  Elec       q    Type
REMARK                         _______ _______ _______ _____ _____    ______ ____
ROOT
ATOM      1  N   UNL     1       0.025  -0.013   2.416  0.00  0.00    -0.278 N 
ATOM      2  C   UNL     1      -0.057  -0.691   3.578  0.00  0.00    +0.303 C 
ATOM      3  O   UNL     1      -0.040  -1.905   3.575  0.00  0.00    -0.265 OA
ATOM      4  H   UNL     1       0.077   0.956   2.423  0.00  0.00    +0.155 HD
ENDROOT
BRANCH   1  11
ATOM      5  C   UNL     1      -1.267   1.182   0.182  0.00  0.00    +0.046 C 
ATOM      6  C   UNL     1      -0.586  -0.159   0.085  0.00  0.00    -0.026 A 
ATOM      7  C   UNL     1      -0.572  -0.841  -1.115  0.00  0.00    +0.050 A 
ATOM      8  C   UNL     1       0.055  -2.075  -1.206  0.00  0.00    +0.122 A 
ATOM      9  C   UNL     1       0.669  -2.625  -0.089  0.00  0.00    +0.047 A 
ATOM     10  C   UNL     1       0.656  -1.944   1.112  0.00  0.00    +0.027 A 
ATOM     11  C   UNL     1       0.033  -0.706   1.201  0.00  0.00    +0.037 A 
BRANCH   8  12
ATOM     12  O   UNL     1       0.068  -2.746  -2.388  0.00  0.00    -0.483 OA
BRANCH  12  13
ATOM     13  C   UNL     1       0.732  -4.011  -2.409  0.00  0.00    +0.324 C 
BRANCH  13  14
ATOM     14  C   UNL     1       0.644  -4.602  -3.792  0.00  0.00    +0.248 C 
ATOM     15  O   UNL     1       0.070  -3.999  -4.674  0.00  0.00    -0.272 OA
ATOM     16  N   UNL     1       1.204  -5.800  -4.050  0.00  0.00    -0.327 N 
ATOM     17  H   UNL     1       1.664  -6.282  -3.345  0.00  0.00    +0.145 HD
ATOM     18  H   UNL     1       1.148  -6.180  -4.941  0.00  0.00    +0.145 HD
ENDBRANCH  13  14
ENDBRANCH  12  13
ENDBRANCH   8  12
ENDBRANCH   1  11
BRANCH   2  19
ATOM     19  C   UNL     1      -0.168   0.050   4.870  0.00  0.00    +0.300 C 
ATOM     20  O   UNL     1      -0.184   1.264   4.873  0.00  0.00    -0.265 OA
ATOM     21  N   UNL     1      -0.249  -0.628   6.031  0.00  0.00    -0.305 N 
ATOM     22  H   UNL     1      -0.236  -1.598   6.029  0.00  0.00    +0.149 HD
BRANCH  21  23
ATOM     23  C   UNL     1      -0.358   0.100   7.298  0.00  0.00    +0.069 C 
ATOM     24  C   UNL     1      -1.825   0.443   7.565  0.00  0.00    +0.028 C 
BRANCH  23  25
ATOM     25  C   UNL     1       0.176  -0.773   8.435  0.00  0.00    +0.003 C 
BRANCH  25  26
ATOM     26  C   UNL     1       1.674  -1.013   8.233  0.00  0.00    -0.078 C 
BRANCH  26  27
ATOM     27  N   UNL     1       2.187  -1.851   9.325  0.00  0.00    +0.376 N 
ATOM     28  C   UNL     1       1.568  -3.181   9.254  0.00  0.00    -0.097 C 
ATOM     29  C   UNL     1       3.645  -1.982   9.198  0.00  0.00    -0.097 C 
ATOM     30  H   UNL     1       1.964  -1.423  10.211  0.00  0.00    -0.083 HD
ENDBRANCH  26  27
ENDBRANCH  25  26
ENDBRANCH  23  25
ENDBRANCH  21  23
ENDBRANCH   2  19
TORSDOF 9
