REMARK  Name = ZINC10351773
REMARK  9 active torsions:
REMARK  status: ('A' for Active; 'I' for Inactive)
REMARK    1  A    between atoms: C_1  and  C_2
REMARK    2  A    between atoms: C_2  and  C_4
REMARK    3  A    between atoms: C_2  and  N_47
REMARK    4  A    between atoms: N_9  and  C_10
REMARK    5  A    between atoms: C_11  and  C_13
REMARK    6  A    between atoms: C_11  and  C_19
REMARK    7  A    between atoms: C_11  and  N_47
REMARK    8  A    between atoms: C_22  and  O_25
REMARK    9  A    between atoms: O_25  and  C_26
REMARK                            x       y       z     vdW  Elec       q    Type
REMARK                         _______ _______ _______ _____ _____    ______ ____
ROOT
ATOM      1  C   UNL     1      -1.801   0.659   1.583  0.00  0.00    -0.009 C 
ENDROOT
BRANCH   1   2
ATOM      2  C   UNL     1      -1.265  -0.479   2.413  0.00  0.00    -0.057 A 
ATOM      3  C   UNL     1      -0.291  -0.241   3.365  0.00  0.00    +0.002 A 
ATOM      4  C   UNL     1       0.198  -1.284   4.129  0.00  0.00    +0.000 A 
ATOM      5  C   UNL     1      -0.280  -2.566   3.935  0.00  0.00    +0.000 A 
ATOM      6  C   UNL     1      -1.249  -2.805   2.978  0.00  0.00    +0.000 A 
ATOM      7  C   UNL     1      -1.741  -1.762   2.217  0.00  0.00    +0.002 A 
ENDBRANCH   1   2
BRANCH   1   8
ATOM      8  C   UNL     1      -2.829   1.420   2.380  0.00  0.00    -0.057 A 
ATOM      9  C   UNL     1      -2.424   2.341   3.328  0.00  0.00    +0.006 A 
ATOM     10  C   UNL     1      -3.364   3.044   4.056  0.00  0.00    +0.046 A 
ATOM     11  C   UNL     1      -4.716   2.818   3.843  0.00  0.00    +0.120 A 
ATOM     12  C   UNL     1      -5.120   1.889   2.895  0.00  0.00    +0.046 A 
ATOM     13  C   UNL     1      -4.176   1.193   2.165  0.00  0.00    +0.006 A 
BRANCH  11  14
ATOM     14  O   UNL     1      -5.643   3.504   4.562  0.00  0.00    -0.495 OA
ATOM     15  C   UNL     1      -5.154   4.444   5.521  0.00  0.00    +0.277 C 
ENDBRANCH  11  14
ENDBRANCH   1   8
BRANCH   1  16
ATOM     16  N   UNL     1      -0.698   1.568   1.222  0.00  0.00    +0.394 N 
ATOM     17  H   UNL     1      -1.076   2.507   1.047  0.00  0.00    -0.083 HD
ATOM     18  H   UNL     1      -0.025   1.609   1.997  0.00  0.00    -0.083 HD
BRANCH  16  20
ATOM     19  C   UNL     1      -0.753   1.593  -1.232  0.00  0.00    -0.004 C 
ATOM     20  C   UNL     1      -0.013   1.086   0.008  0.00  0.00    +0.015 C 
BRANCH  20  21
ATOM     21  C   UNL     1       1.401   1.607  -0.003  0.00  0.00    +0.206 C 
ATOM     22  O   UNL     1       1.797   2.305   0.907  0.00  0.00    -0.277 OA
ATOM     23  N   UNL     1       2.226   1.299  -1.023  0.00  0.00    -0.242 N 
ATOM     24  C   UNL     1       3.490   1.765  -1.033  0.00  0.00    +0.306 C 
ATOM     25  O   UNL     1       3.887   2.464  -0.121  0.00  0.00    -0.252 OA
ATOM     26  N   UNL     1       4.315   1.456  -2.053  0.00  0.00    -0.302 N 
ATOM     27  C   UNL     1       5.689   1.963  -2.063  0.00  0.00    +0.129 C 
ATOM     28  H   UNL     1       1.909   0.741  -1.751  0.00  0.00    +0.159 HD
ATOM     29  H   UNL     1       3.998   0.898  -2.781  0.00  0.00    +0.150 HD
ENDBRANCH  20  21
ENDBRANCH  16  20
ENDBRANCH   1  16
TORSDOF 6
