REMARK  Name = ZINC65520513
REMARK  7 active torsions:
REMARK  status: ('A' for Active; 'I' for Inactive)
REMARK    1  A    between atoms: C_1  and  C_2
REMARK    2  A    between atoms: C_2  and  C_3
REMARK    3  A    between atoms: C_2  and  N_4
REMARK    4  A    between atoms: C_7  and  C_9
REMARK    5  A    between atoms: C_9  and  N_10
REMARK    6  A    between atoms: N_13  and  N_14
REMARK    7  A    between atoms: N_14  and  C_15
REMARK                            x       y       z     vdW  Elec       q    Type
REMARK                         _______ _______ _______ _____ _____    ______ ____
ROOT
ATOM      1  N   UNL     1      -4.251  -4.226  -1.327  0.00  0.00    -0.298 N 
ATOM      2  C   UNL     1      -4.453  -5.358  -2.031  0.00  0.00    +0.316 C 
ATOM      3  O   UNL     1      -3.583  -6.205  -2.083  0.00  0.00    -0.251 OA
ATOM      4  N   UNL     1      -5.620  -5.550  -2.677  0.00  0.00    -0.220 N 
ATOM      5  H   UNL     1      -4.946  -3.551  -1.285  0.00  0.00    +0.150 HD
ATOM      6  H   UNL     1      -5.766  -6.364  -3.184  0.00  0.00    +0.174 HD
ENDROOT
BRANCH   4   7
ATOM      7  N   UNL     1      -6.623  -4.574  -2.616  0.00  0.00    -0.258 N 
ATOM      8  H   UNL     1      -6.451  -3.727  -2.175  0.00  0.00    +0.170 HD
BRANCH   7   9
ATOM      9  C   UNL     1      -7.877  -4.820  -3.193  0.00  0.00    +0.121 A 
ATOM     10  C   UNL     1      -8.421  -6.098  -3.155  0.00  0.00    +0.186 A 
ATOM     11  C   UNL     1      -9.660  -6.340  -3.725  0.00  0.00    +0.198 A 
ATOM     12  C   UNL     1     -10.357  -5.308  -4.334  0.00  0.00    +0.199 A 
ATOM     13  C   UNL     1      -9.816  -4.032  -4.373  0.00  0.00    +0.198 A 
ATOM     14  C   UNL     1      -8.579  -3.786  -3.799  0.00  0.00    +0.186 A 
ATOM     15  F   UNL     1      -8.055  -2.541  -3.833  0.00  0.00    -0.200 F 
ATOM     16  F   UNL     1     -10.497  -3.028  -4.966  0.00  0.00    -0.199 F 
ATOM     17  F   UNL     1     -11.565  -5.545  -4.890  0.00  0.00    -0.199 F 
ATOM     18  F   UNL     1     -10.189  -7.582  -3.689  0.00  0.00    -0.199 F 
ATOM     19  F   UNL     1      -7.742  -7.105  -2.563  0.00  0.00    -0.200 F 
ENDBRANCH   7   9
ENDBRANCH   4   7
BRANCH   1  20
ATOM     20  C   UNL     1      -2.982  -4.018  -0.624  0.00  0.00    +0.107 C 
BRANCH  20  24
ATOM     21  N   UNL     1      -1.621  -0.933   0.942  0.00  0.00    +0.381 N 
ATOM     22  C   UNL     1      -2.130  -0.422  -0.349  0.00  0.00    -0.078 C 
ATOM     23  C   UNL     1      -3.056  -1.506  -0.931  0.00  0.00    -0.015 C 
ATOM     24  C   UNL     1      -3.012  -2.666   0.091  0.00  0.00    -0.012 C 
ATOM     25  C   UNL     1      -1.681  -2.414   0.844  0.00  0.00    -0.074 C 
ATOM     26  H   UNL     1      -2.205  -0.611   1.700  0.00  0.00    -0.081 HD
BRANCH  21  28
ATOM     27  C   UNL     1      -0.191   1.031   1.249  0.00  0.00    -0.014 C 
ATOM     28  C   UNL     1      -0.235  -0.495   1.150  0.00  0.00    -0.075 C 
ATOM     29  C   UNL     1       0.305  -1.106   2.445  0.00  0.00    -0.014 C 
ENDBRANCH  21  28
ENDBRANCH  20  24
ENDBRANCH   1  20
TORSDOF 5
