REMARK  Name = ZINC59187174
REMARK  12 active torsions:
REMARK  status: ('A' for Active; 'I' for Inactive)
REMARK    1  A    between atoms: C_1  and  C_2
REMARK    2  A    between atoms: C_5  and  C_29
REMARK    3  A    between atoms: C_6  and  N_8
REMARK    4  A    between atoms: N_8  and  C_9
REMARK    5  A    between atoms: C_9  and  N_11
REMARK    6  A    between atoms: N_11  and  C_12
REMARK    7  A    between atoms: N_11  and  C_19
REMARK    8  A    between atoms: C_12  and  C_13
REMARK    9  A    between atoms: C_21  and  C_27
REMARK   10  A    between atoms: C_21  and  C_28
REMARK   11  A    between atoms: C_23  and  C_25
REMARK   12  A    between atoms: C_23  and  C_26
REMARK                            x       y       z     vdW  Elec       q    Type
REMARK                         _______ _______ _______ _____ _____    ______ ____
ROOT
ATOM      1  N   UNL     1       0.567  -2.916   4.688  0.00  0.00    -0.304 N 
ENDROOT
BRANCH   1   2
ATOM      2  C   UNL     1       0.732  -4.373   4.632  0.00  0.00    +0.073 C 
ATOM      3  C   UNL     1       1.837  -4.715   3.631  0.00  0.00    +0.009 C 
ATOM      4  C   UNL     1       2.014  -6.232   3.552  0.00  0.00    -0.072 C 
ATOM      5  N   UNL     1       0.763  -6.914   3.257  0.00  0.00    +0.386 N 
ATOM      6  C   UNL     1      -0.416  -6.521   4.013  0.00  0.00    -0.072 C 
ATOM      7  C   UNL     1      -0.569  -5.010   4.146  0.00  0.00    +0.009 C 
ATOM      8  C   UNL     1      -1.655  -7.042   3.245  0.00  0.00    -0.010 C 
ATOM      9  C   UNL     1      -0.443  -7.173   5.398  0.00  0.00    -0.010 C 
ATOM     10  C   UNL     1       2.667  -6.755   4.831  0.00  0.00    -0.010 C 
ATOM     11  C   UNL     1       2.989  -6.520   2.388  0.00  0.00    -0.010 C 
ATOM     12  H   UNL     1       0.560  -6.796   2.261  0.00  0.00    -0.084 HD
ATOM     13  H   UNL     1       0.907  -7.919   3.384  0.00  0.00    -0.084 HD
ENDBRANCH   1   2
BRANCH   1  14
ATOM     14  C   UNL     1       0.356  -2.217   3.555  0.00  0.00    +0.138 C 
ATOM     15  S   UNL     1       0.280  -0.507   3.605  0.00  0.00    -0.018 S 
BRANCH  14  16
ATOM     16  N   UNL     1       0.206  -2.864   2.382  0.00  0.00    -0.297 N 
ATOM     17  H   UNL     1       0.159  -3.833   2.366  0.00  0.00    +0.154 HD
BRANCH  16  23
ATOM     18  C   UNL     1      -2.083   0.515  -0.358  0.00  0.00    +0.044 C 
ATOM     19  C   UNL     1      -0.981  -0.495  -0.166  0.00  0.00    -0.049 A 
ATOM     20  C   UNL     1      -0.054  -0.705  -1.171  0.00  0.00    +0.004 A 
ATOM     21  C   UNL     1       0.959  -1.631  -0.998  0.00  0.00    +0.005 A 
ATOM     22  C   UNL     1       1.048  -2.348   0.179  0.00  0.00    -0.029 A 
ATOM     23  C   UNL     1       0.119  -2.139   1.189  0.00  0.00    +0.036 A 
ATOM     24  C   UNL     1      -0.894  -1.205   1.015  0.00  0.00    +0.027 A 
ATOM     25  C   UNL     1       2.152  -3.357   0.365  0.00  0.00    +0.045 C 
ENDBRANCH  16  23
ENDBRANCH  14  16
ENDBRANCH   1  14
BRANCH   1  26
ATOM     26  C   UNL     1       0.630  -2.220   5.976  0.00  0.00    +0.162 C 
BRANCH  26  27
ATOM     27  C   UNL     1      -0.750  -2.147   6.576  0.00  0.00    +0.058 A 
ATOM     28  C   UNL     1      -1.149  -3.104   7.490  0.00  0.00    +0.025 A 
ATOM     29  C   UNL     1      -2.421  -3.028   8.036  0.00  0.00    +0.003 A 
ATOM     30  C   UNL     1      -3.248  -1.987   7.641  0.00  0.00    +0.020 A 
ATOM     31  C   UNL     1      -2.779  -1.067   6.723  0.00  0.00    +0.111 A 
ATOM     32  N   UNL     1      -1.561  -1.168   6.228  0.00  0.00    -0.258 NA
ENDBRANCH  26  27
ENDBRANCH   1  26
TORSDOF 6
