REMARK  Name = ZINC66243015
REMARK  6 active torsions:
REMARK  status: ('A' for Active; 'I' for Inactive)
REMARK    1  A    between atoms: C_4  and  C_8
REMARK    2  A    between atoms: C_8  and  C_10
REMARK    3  A    between atoms: C_8  and  N_21
REMARK    4  A    between atoms: C_10  and  N_11
REMARK    5  A    between atoms: N_13  and  C_14
REMARK    6  A    between atoms: C_14  and  C_15
REMARK                            x       y       z     vdW  Elec       q    Type
REMARK                         _______ _______ _______ _____ _____    ______ ____
ROOT
ATOM      1  C   UNL     1       3.702  -0.708  -0.038  0.00  0.00    -0.014 C 
ENDROOT
BRANCH   1   5
ATOM      2  C   UNL     1       0.122   1.605  -0.361  0.00  0.00    +0.004 A 
ATOM      3  C   UNL     1       1.349   2.238  -0.288  0.00  0.00    +0.038 A 
ATOM      4  C   UNL     1       2.509   1.490  -0.184  0.00  0.00    +0.126 A 
ATOM      5  C   UNL     1       2.440   0.108  -0.152  0.00  0.00    -0.006 A 
ATOM      6  C   UNL     1       1.212  -0.524  -0.224  0.00  0.00    +0.045 A 
ATOM      7  C   UNL     1       0.053   0.225  -0.329  0.00  0.00    +0.020 A 
ATOM      8 CL   UNL     1       1.124  -2.258  -0.184  0.00  0.00    -0.083 Cl
ATOM      9  F   UNL     1       3.708   2.109  -0.113  0.00  0.00    -0.205 F 
ENDBRANCH   1   5
BRANCH   1  10
ATOM     10  N   UNL     1       3.718  -1.734  -1.089  0.00  0.00    +0.385 N 
ATOM     11  C   UNL     1       3.603  -1.099  -2.427  0.00  0.00    -0.078 C 
ATOM     12  C   UNL     1       4.188  -2.171  -3.380  0.00  0.00    -0.020 C 
ATOM     13  C   UNL     1       5.354  -2.766  -2.557  0.00  0.00    -0.020 C 
ATOM     14  C   UNL     1       5.016  -2.443  -1.090  0.00  0.00    -0.078 C 
ATOM     15  H   UNL     1       2.964  -2.389  -0.948  0.00  0.00    -0.081 HD
ENDBRANCH   1  10
BRANCH   1  16
ATOM     16  C   UNL     1       3.752  -1.382   1.334  0.00  0.00    +0.105 C 
BRANCH  16  17
ATOM     17  N   UNL     1       3.878  -0.361   2.376  0.00  0.00    -0.359 N 
ATOM     18  C   UNL     1       3.830  -0.722   3.702  0.00  0.00    +0.169 C 
ATOM     19  N   UNL     1       3.943   0.188   4.629  0.00  0.00    -0.351 N 
ATOM     20  N   UNL     1       3.663  -2.041   4.050  0.00  0.00    -0.371 N 
ATOM     21  H   UNL     1       3.996   0.570   2.131  0.00  0.00    +0.162 HD
ATOM     22  H   UNL     1       3.579  -2.718   3.360  0.00  0.00    +0.159 HD
ATOM     23  H   UNL     1       3.630  -2.296   4.985  0.00  0.00    +0.159 HD
ATOM     24  H   UNL     1       4.061   1.119   4.384  0.00  0.00    +0.163 HD
BRANCH  19  25
ATOM     25  C   UNL     1       3.892  -0.197   6.042  0.00  0.00    +0.190 C 
BRANCH  25  26
ATOM     26  C   UNL     1       4.045   1.031   6.903  0.00  0.00    +0.124 A 
ATOM     27  C   UNL     1       3.042   1.805   7.354  0.00  0.00    +0.046 A 
ATOM     28  C   UNL     1       3.633   2.838   8.117  0.00  0.00    +0.041 A 
ATOM     29  C   UNL     1       4.962   2.634   8.086  0.00  0.00    +0.195 A 
ATOM     30  O   UNL     1       5.205   1.534   7.354  0.00  0.00    -0.466 OA
ENDBRANCH  25  26
ENDBRANCH  19  25
ENDBRANCH  16  17
ENDBRANCH   1  16
TORSDOF 6
