REMARK  Name = ZINC02805999
REMARK  9 active torsions:
REMARK  status: ('A' for Active; 'I' for Inactive)
REMARK    1  A    between atoms: C_1  and  C_2
REMARK    2  A    between atoms: C_5  and  N_8
REMARK    3  A    between atoms: C_9  and  C_11
REMARK    4  A    between atoms: C_11  and  N_12
REMARK    5  A    between atoms: C_16  and  C_17
REMARK    6  A    between atoms: C_19  and  C_32
REMARK    7  A    between atoms: N_20  and  C_23
REMARK    8  A    between atoms: C_21  and  C_22
REMARK    9  A    between atoms: C_26  and  C_29
REMARK                            x       y       z     vdW  Elec       q    Type
REMARK                         _______ _______ _______ _____ _____    ______ ____
ROOT
ATOM      1  N   UNL     1       0.420  -6.845   2.495  0.00  0.00    -0.219 N 
ATOM      2  C   UNL     1       1.616  -6.956   3.048  0.00  0.00    +0.261 C 
ATOM      3  O   UNL     1       2.629  -6.657   2.443  0.00  0.00    -0.269 OA
ATOM      4  C   UNL     1       1.662  -7.460   4.432  0.00  0.00    +0.080 C 
ATOM      5  C   UNL     1       2.733  -7.674   5.240  0.00  0.00    +0.030 C 
ATOM      6  S   UNL     1      -0.078  -7.710   4.755  0.00  0.00    -0.026 S 
ATOM      7  C   UNL     1      -0.701  -7.172   3.171  0.00  0.00    +0.286 C 
ATOM      8  O   UNL     1      -1.856  -7.115   2.792  0.00  0.00    -0.262 OA
ENDROOT
BRANCH   5   9
ATOM      9  C   UNL     1       2.534  -8.187   6.600  0.00  0.00    -0.003 A 
ATOM     10  C   UNL     1       1.256  -8.525   7.239  0.00  0.00    +0.031 A 
ATOM     11  C   UNL     1       1.548  -8.954   8.478  0.00  0.00    +0.022 A 
ATOM     12  N   UNL     1       2.902  -8.910   8.662  0.00  0.00    -0.317 N 
ATOM     13  C   UNL     1       3.512  -8.455   7.537  0.00  0.00    +0.028 A 
ATOM     14  C   UNL     1       4.996  -8.272   7.347  0.00  0.00    +0.064 C 
ATOM     15  C   UNL     1       0.542  -9.411   9.503  0.00  0.00    +0.064 C 
BRANCH  12  16
ATOM     16  C   UNL     1       3.562  -9.283   9.835  0.00  0.00    +0.047 A 
ATOM     17  C   UNL     1       4.248  -8.329  10.578  0.00  0.00    +0.027 A 
ATOM     18  C   UNL     1       4.900  -8.693  11.735  0.00  0.00    +0.017 A 
ATOM     19  C   UNL     1       4.872 -10.024  12.162  0.00  0.00    +0.063 A 
ATOM     20  C   UNL     1       4.181 -10.981  11.411  0.00  0.00    +0.017 A 
ATOM     21  C   UNL     1       3.527 -10.608  10.259  0.00  0.00    +0.027 A 
BRANCH  19  22
ATOM     22  C   UNL     1       5.569 -10.418  13.398  0.00  0.00    +0.387 C 
ATOM     23  O   UNL     1       6.173  -9.580  14.053  0.00  0.00    -0.241 OA
ATOM     24  O   UNL     1       5.544 -11.583  13.770  0.00  0.00    -0.241 OA
ENDBRANCH  19  22
ENDBRANCH  12  16
ENDBRANCH   5   9
BRANCH   1  25
ATOM     25  C   UNL     1       0.309  -6.349   1.121  0.00  0.00    +0.213 C 
BRANCH  25  27
ATOM     26  N   UNL     1       0.059  -4.170  -0.021  0.00  0.00    -0.284 N 
ATOM     27  C   UNL     1       0.175  -4.848   1.138  0.00  0.00    +0.235 C 
ATOM     28  O   UNL     1       0.173  -4.251   2.193  0.00  0.00    -0.274 OA
ATOM     29  H   UNL     1      -0.017  -4.651  -0.860  0.00  0.00    +0.155 HD
BRANCH  26  34
ATOM     30  C   UNL     1       0.008   1.503   0.007  0.00  0.00    +0.044 C 
ATOM     31  C   UNL     1       0.022  -0.004  -0.001  0.00  0.00    -0.050 A 
ATOM     32  C   UNL     1       0.777  -0.692   0.931  0.00  0.00    +0.005 A 
ATOM     33  C   UNL     1       0.791  -2.073   0.927  0.00  0.00    +0.023 A 
ATOM     34  C   UNL     1       0.046  -2.771  -0.014  0.00  0.00    +0.033 A 
ATOM     35  C   UNL     1      -0.712  -2.077  -0.948  0.00  0.00    +0.023 A 
ATOM     36  C   UNL     1      -0.726  -0.696  -0.936  0.00  0.00    +0.005 A 
ENDBRANCH  26  34
ENDBRANCH  25  27
ENDBRANCH   1  25
TORSDOF 6
