REMARK  Name = ZINC39559685
REMARK  8 active torsions:
REMARK  status: ('A' for Active; 'I' for Inactive)
REMARK    1  A    between atoms: C_1  and  C_2
REMARK    2  A    between atoms: C_2  and  O_3
REMARK    3  A    between atoms: O_3  and  C_4
REMARK    4  A    between atoms: C_10  and  N_28
REMARK    5  A    between atoms: C_14  and  N_18
REMARK    6  A    between atoms: C_19  and  C_20
REMARK    7  A    between atoms: C_25  and  O_26
REMARK    8  A    between atoms: O_26  and  C_27
REMARK                            x       y       z     vdW  Elec       q    Type
REMARK                         _______ _______ _______ _____ _____    ______ ____
ROOT
ATOM      1  C   UNL     1       0.777  -1.811  -1.336  0.00  0.00    +0.121 A 
ATOM      2  C   UNL     1       0.235  -2.669  -0.373  0.00  0.00    +0.048 A 
ATOM      3  C   UNL     1       0.325  -4.017  -0.507  0.00  0.00    +0.030 A 
ATOM      4  C   UNL     1       0.973  -4.573  -1.631  0.00  0.00    +0.049 A 
ATOM      5  C   UNL     1       1.521  -3.701  -2.607  0.00  0.00    +0.023 A 
ATOM      6  C   UNL     1       1.405  -2.310  -2.440  0.00  0.00    +0.057 A 
ATOM      7  C   UNL     1       2.173  -4.232  -3.740  0.00  0.00    +0.043 A 
ATOM      8  C   UNL     1       2.253  -5.631  -3.854  0.00  0.00    +0.020 A 
ATOM      9  C   UNL     1       2.885  -6.245  -4.950  0.00  0.00    +0.014 A 
ATOM     10  C   UNL     1       2.942  -7.598  -5.025  0.00  0.00    +0.028 A 
ATOM     11  C   UNL     1       2.379  -8.411  -4.024  0.00  0.00    +0.066 A 
ATOM     12  C   UNL     1       1.745  -7.861  -2.924  0.00  0.00    +0.054 A 
ATOM     13  C   UNL     1       1.661  -6.463  -2.803  0.00  0.00    +0.051 A 
ATOM     14  N   UNL     1       1.060  -5.897  -1.759  0.00  0.00    -0.354 N 
ATOM     15  H   UNL     1       0.675  -6.464  -1.072  0.00  0.00    +0.166 HD
ENDROOT
BRANCH   7  16
ATOM     16  N   UNL     1       2.714  -3.406  -4.703  0.00  0.00    -0.357 N 
ATOM     17  H   UNL     1       2.649  -2.443  -4.608  0.00  0.00    +0.142 HD
ATOM     18  H   UNL     1       3.159  -3.788  -5.476  0.00  0.00    +0.142 HD
ENDBRANCH   7  16
BRANCH  11  19
ATOM     19  N   UNL     1       2.460  -9.771  -4.141  0.00  0.00    -0.255 NA
ATOM     20  C   UNL     1       2.198 -10.344  -5.284  0.00  0.00    +0.123 C 
BRANCH  20  21
ATOM     21  C   UNL     1       2.285 -11.806  -5.409  0.00  0.00    +0.035 A 
ATOM     22  C   UNL     1       2.011 -12.424  -6.634  0.00  0.00    +0.013 A 
ATOM     23  C   UNL     1       2.094 -13.795  -6.744  0.00  0.00    +0.001 A 
ATOM     24  C   UNL     1       2.449 -14.565  -5.648  0.00  0.00    +0.004 A 
ATOM     25  C   UNL     1       2.722 -13.967  -4.433  0.00  0.00    +0.046 A 
ATOM     26  C   UNL     1       2.649 -12.589  -4.303  0.00  0.00    +0.129 A 
BRANCH  26  27
ATOM     27  O   UNL     1       2.923 -12.001  -3.112  0.00  0.00    -0.494 OA
ATOM     28  C   UNL     1       3.287 -12.863  -2.031  0.00  0.00    +0.277 C 
ENDBRANCH  26  27
ENDBRANCH  20  21
ENDBRANCH  11  19
BRANCH   1  29
ATOM     29  O   UNL     1       0.671  -0.465  -1.174  0.00  0.00    -0.492 OA
BRANCH  29  31
ATOM     30  C   UNL     1      -0.019   1.526   0.010  0.00  0.00    +0.048 C 
ATOM     31  C   UNL     1       0.002  -0.004   0.002  0.00  0.00    +0.225 C 
ENDBRANCH  29  31
ENDBRANCH   1  29
TORSDOF 6
