REMARK  Name = ZINC67400569
REMARK  6 active torsions:
REMARK  status: ('A' for Active; 'I' for Inactive)
REMARK    1  A    between atoms: C_1  and  C_2
REMARK    2  A    between atoms: C_2  and  C_4
REMARK    3  A    between atoms: C_2  and  N_12
REMARK    4  A    between atoms: C_15  and  C_18
REMARK    5  A    between atoms: C_18  and  C_20
REMARK    6  A    between atoms: C_18  and  O_27
REMARK                            x       y       z     vdW  Elec       q    Type
REMARK                         _______ _______ _______ _____ _____    ______ ____
ROOT
ATOM      1  N   UNL     1      -0.974  -0.941   0.575  0.00  0.00    +0.387 N 
ATOM      2  C   UNL     1      -0.297  -2.193   0.931  0.00  0.00    -0.077 C 
ATOM      3  C   UNL     1      -1.323  -3.202   1.453  0.00  0.00    -0.012 C 
ATOM      4  C   UNL     1      -2.014  -2.623   2.691  0.00  0.00    +0.019 C 
ATOM      5  C   UNL     1      -2.654  -1.281   2.326  0.00  0.00    -0.012 C 
ATOM      6  C   UNL     1      -1.578  -0.344   1.772  0.00  0.00    -0.077 C 
ATOM      7  H   UNL     1      -1.695  -1.131  -0.105  0.00  0.00    -0.081 HD
ENDROOT
BRANCH   1   9
ATOM      8  C   UNL     1      -0.697   1.312  -0.344  0.00  0.00    -0.004 C 
ATOM      9  C   UNL     1       0.002  -0.004   0.002  0.00  0.00    +0.016 C 
BRANCH   9  10
ATOM     10  C   UNL     1       0.597  -0.600  -1.248  0.00  0.00    +0.205 C 
ATOM     11  O   UNL     1      -0.042  -1.396  -1.903  0.00  0.00    -0.277 OA
ATOM     12  N   UNL     1       1.839  -0.249  -1.637  0.00  0.00    -0.266 N 
ATOM     13  C   UNL     1       2.387  -0.799  -2.790  0.00  0.00    +0.164 A 
ATOM     14  N   UNL     1       1.846  -1.664  -3.621  0.00  0.00    -0.233 NA
ATOM     15  C   UNL     1       2.503  -2.094  -4.682  0.00  0.00    +0.120 A 
ATOM     16  C   UNL     1       3.753  -1.605  -4.872  0.00  0.00    +0.068 A 
ATOM     17  S   UNL     1       3.902  -0.516  -3.465  0.00  0.00    -0.061 S 
ATOM     18  H   UNL     1       2.349   0.387  -1.113  0.00  0.00    +0.157 HD
ENDBRANCH   9  10
ENDBRANCH   1   9
BRANCH   4  19
ATOM     19  C   UNL     1      -3.097  -3.592   3.171  0.00  0.00    +0.147 C 
BRANCH  19  20
ATOM     20  C   UNL     1      -3.776  -3.022   4.390  0.00  0.00    -0.019 A 
ATOM     21  C   UNL     1      -3.173  -3.126   5.630  0.00  0.00    +0.007 A 
ATOM     22  C   UNL     1      -3.796  -2.603   6.747  0.00  0.00    +0.020 A 
ATOM     23  C   UNL     1      -5.023  -1.975   6.625  0.00  0.00    +0.041 A 
ATOM     24  C   UNL     1      -5.625  -1.871   5.385  0.00  0.00    +0.020 A 
ATOM     25  C   UNL     1      -4.999  -2.389   4.266  0.00  0.00    +0.007 A 
ATOM     26 CL   UNL     1      -5.805  -1.319   8.029  0.00  0.00    -0.084 Cl
ENDBRANCH  19  20
BRANCH  19  27
ATOM     27  O   UNL     1      -2.500  -4.847   3.503  0.00  0.00    -0.387 OA
ATOM     28  H   UNL     1      -1.834  -4.794   4.202  0.00  0.00    +0.210 HD
ENDBRANCH  19  27
ENDBRANCH   4  19
TORSDOF 5
