REMARK  Name = ZINC39369725
REMARK  11 active torsions:
REMARK  status: ('A' for Active; 'I' for Inactive)
REMARK    1  A    between atoms: C_1  and  C_2
REMARK    2  A    between atoms: C_2  and  O_3
REMARK    3  A    between atoms: O_3  and  C_4
REMARK    4  A    between atoms: C_4  and  C_6
REMARK    5  A    between atoms: C_6  and  O_7
REMARK    6  A    between atoms: O_7  and  C_8
REMARK    7  A    between atoms: C_11  and  C_15
REMARK    8  A    between atoms: C_16  and  C_17
REMARK    9  A    between atoms: C_16  and  C_19
REMARK   10  A    between atoms: C_25  and  O_29
REMARK   11  A    between atoms: O_29  and  C_30
REMARK                            x       y       z     vdW  Elec       q    Type
REMARK                         _______ _______ _______ _____ _____    ______ ____
ROOT
ATOM      1  C   UNL     1       3.884  -6.478  -6.753  0.00  0.00    +0.026 C 
ATOM      2  C   UNL     1       5.202  -6.761  -6.712  0.00  0.00    +0.072 C 
ENDROOT
BRANCH   2   3
ATOM      3  C   UNL     1       6.016  -6.387  -5.500  0.00  0.00    +0.216 C 
ATOM      4  N   UNL     1       7.012  -5.369  -5.855  0.00  0.00    -0.359 N 
ATOM      5  C   UNL     1       8.189  -5.871  -5.615  0.00  0.00    +0.061 A 
ATOM      6  C   UNL     1       9.546  -5.328  -5.772  0.00  0.00    +0.031 A 
ATOM      7  C   UNL     1      10.611  -6.081  -5.438  0.00  0.00    +0.048 A 
ATOM      8  C   UNL     1      10.463  -7.435  -4.918  0.00  0.00    +0.122 A 
ATOM      9  C   UNL     1       9.246  -8.005  -4.744  0.00  0.00    +0.073 A 
ATOM     10  C   UNL     1       8.037  -7.253  -5.085  0.00  0.00    +0.064 A 
ATOM     11  N   UNL     1       6.766  -7.553  -5.017  0.00  0.00    -0.359 N 
ATOM     12  H   UNL     1       6.827  -4.484  -6.207  0.00  0.00    +0.162 HD
ATOM     13  H   UNL     1       6.389  -8.390  -4.706  0.00  0.00    +0.162 HD
BRANCH   8  14
ATOM     14  O   UNL     1      11.575  -8.143  -4.599  0.00  0.00    -0.495 OA
ATOM     15  C   UNL     1      12.834  -7.499  -4.800  0.00  0.00    +0.277 C 
ENDBRANCH   8  14
ENDBRANCH   2   3
BRANCH   1  19
ATOM     16  C   UNL     1       2.128  -4.097  -3.711  0.00  0.00    +0.158 A 
ATOM     17  C   UNL     1       1.407  -5.144  -4.274  0.00  0.00    +0.085 A 
ATOM     18  C   UNL     1       1.973  -5.920  -5.263  0.00  0.00    +0.031 A 
ATOM     19  C   UNL     1       3.275  -5.653  -5.699  0.00  0.00    -0.021 A 
ATOM     20  C   UNL     1       3.997  -4.598  -5.130  0.00  0.00    +0.031 A 
ATOM     21  C   UNL     1       3.421  -3.824  -4.146  0.00  0.00    +0.085 A 
ATOM     22 CL   UNL     1       4.312  -2.511  -3.443  0.00  0.00    -0.080 Cl
ATOM     23 CL   UNL     1      -0.208  -5.474  -3.731  0.00  0.00    -0.080 Cl
BRANCH  16  24
ATOM     24  O   UNL     1       1.566  -3.334  -2.738  0.00  0.00    -0.478 OA
BRANCH  24  25
ATOM     25  C   UNL     1       0.834  -2.182  -3.158  0.00  0.00    +0.349 C 
BRANCH  25  26
ATOM     26  C   UNL     1       0.287  -1.465  -1.950  0.00  0.00    +0.345 C 
ATOM     27  O   UNL     1       0.503  -1.898  -0.843  0.00  0.00    -0.247 OA
BRANCH  26  28
ATOM     28  O   UNL     1      -0.439  -0.347  -2.104  0.00  0.00    -0.463 OA
BRANCH  28  30
ATOM     29  C   UNL     1      -1.724   1.530  -1.289  0.00  0.00    +0.048 C 
ATOM     30  C   UNL     1      -0.925   0.280  -0.916  0.00  0.00    +0.229 C 
ENDBRANCH  28  30
ENDBRANCH  26  28
ENDBRANCH  25  26
ENDBRANCH  24  25
ENDBRANCH  16  24
ENDBRANCH   1  19
BRANCH   2  31
ATOM     31  C   UNL     1       5.829  -7.417  -7.820  0.00  0.00    +0.099 C 
ATOM     32  N   UNL     1       6.327  -7.937  -8.699  0.00  0.00    -0.191 NA
ENDBRANCH   2  31
TORSDOF 9
