REMARK  Name = ZINC52242338
REMARK  8 active torsions:
REMARK  status: ('A' for Active; 'I' for Inactive)
REMARK    1  A    between atoms: C_1  and  C_2
REMARK    2  A    between atoms: C_4  and  C_8
REMARK    3  A    between atoms: C_5  and  C_7
REMARK    4  A    between atoms: N_13  and  C_16
REMARK    5  A    between atoms: C_16  and  C_18
REMARK    6  A    between atoms: C_16  and  C_19
REMARK    7  A    between atoms: N_24  and  C_25
REMARK    8  A    between atoms: C_25  and  C_26
REMARK                            x       y       z     vdW  Elec       q    Type
REMARK                         _______ _______ _______ _____ _____    ______ ____
ROOT
ATOM      1  C   UNL     1      -2.164  -4.598   1.336  0.00  0.00    +0.250 C 
ATOM      2  O   UNL     1      -1.855  -5.775   1.334  0.00  0.00    -0.270 OA
ATOM      3  N   UNL     1      -3.436  -4.236   1.078  0.00  0.00    -0.295 N 
ATOM      4  C   UNL     1      -3.810  -2.817   0.971  0.00  0.00    +0.123 C 
ATOM      5  C   UNL     1      -4.579  -2.614  -0.339  0.00  0.00    +0.104 C 
ATOM      6  N   UNL     1      -5.703  -3.558  -0.395  0.00  0.00    -0.289 NA
ATOM      7  C   UNL     1      -5.230  -4.949  -0.411  0.00  0.00    +0.104 C 
ATOM      8  C   UNL     1      -4.486  -5.248   0.889  0.00  0.00    +0.123 C 
ENDROOT
BRANCH   1  12
ATOM      9  C   UNL     1       0.123  -0.295   2.845  0.00  0.00    +0.086 C 
ATOM     10  C   UNL     1      -0.158  -1.668   2.291  0.00  0.00    +0.103 A 
ATOM     11  C   UNL     1      -1.365  -2.251   2.233  0.00  0.00    +0.057 A 
ATOM     12  C   UNL     1      -1.148  -3.570   1.620  0.00  0.00    +0.078 A 
ATOM     13  C   UNL     1       0.192  -3.642   1.371  0.00  0.00    +0.114 A 
ATOM     14  O   UNL     1       0.758  -2.500   1.772  0.00  0.00    -0.464 OA
ATOM     15  C   UNL     1       0.909  -4.809   0.743  0.00  0.00    +0.087 C 
ENDBRANCH   1  12
BRANCH   6  16
ATOM     16  C   UNL     1      -6.566  -3.282  -1.551  0.00  0.00    +0.140 C 
ATOM     17  C   UNL     1      -5.700  -3.080  -2.797  0.00  0.00    +0.034 C 
BRANCH  16  18
ATOM     18  C   UNL     1      -7.370  -2.034  -1.291  0.00  0.00    +0.237 C 
ATOM     19  O   UNL     1      -7.044  -1.277  -0.402  0.00  0.00    -0.274 OA
ATOM     20  N   UNL     1      -8.452  -1.760  -2.046  0.00  0.00    -0.239 N 
ATOM     21  C   UNL     1      -9.171  -0.644  -1.813  0.00  0.00    +0.306 C 
ATOM     22  O   UNL     1      -8.845   0.114  -0.922  0.00  0.00    -0.252 OA
ATOM     23  N   UNL     1     -10.253  -0.370  -2.569  0.00  0.00    -0.296 N 
ATOM     24  H   UNL     1      -8.713  -2.366  -2.758  0.00  0.00    +0.159 HD
ATOM     25  H   UNL     1     -10.514  -0.976  -3.280  0.00  0.00    +0.151 HD
BRANCH  23  26
ATOM     26  C   UNL     1     -11.035   0.842  -2.316  0.00  0.00    +0.132 C 
BRANCH  26  27
ATOM     27  C   UNL     1     -12.182   0.913  -3.291  0.00  0.00    -0.016 C 
ATOM     28  C   UNL     1     -13.410   1.034  -2.850  0.00  0.00    +0.005 C 
ENDBRANCH  26  27
ENDBRANCH  23  26
ENDBRANCH  16  18
ENDBRANCH   6  16
TORSDOF 5
