REMARK  Name = ZINC63573194
REMARK  4 active torsions:
REMARK  status: ('A' for Active; 'I' for Inactive)
REMARK    1  A    between atoms: C_1  and  O_2
REMARK    2  A    between atoms: O_2  and  C_3
REMARK    3  A    between atoms: C_10  and  C_28
REMARK    4  A    between atoms: N_20  and  C_21
REMARK                            x       y       z     vdW  Elec       q    Type
REMARK                         _______ _______ _______ _____ _____    ______ ____
ROOT
ATOM      1  C   UNL     1       1.402  -0.741  -0.552  0.00  0.00    +0.121 A 
ATOM      2  C   UNL     1       2.422   0.017  -1.153  0.00  0.00    +0.047 A 
ATOM      3  C   UNL     1       3.233  -0.486  -2.107  0.00  0.00    +0.029 A 
ATOM      4  C   UNL     1       3.065  -1.872  -2.552  0.00  0.00    +0.043 A 
ATOM      5  N   UNL     1       3.719  -2.595  -3.431  0.00  0.00    -0.375 N 
ATOM      6  C   UNL     1       3.073  -3.902  -3.529  0.00  0.00    +0.131 C 
ATOM      7  C   UNL     1       4.049  -5.046  -3.228  0.00  0.00    +0.134 C 
ATOM      8  N   UNL     1       3.256  -6.254  -2.951  0.00  0.00    -0.276 N 
ATOM      9  C   UNL     1       2.295  -6.279  -1.843  0.00  0.00    +0.114 C 
ATOM     10  C   UNL     1       1.258  -5.159  -2.043  0.00  0.00    +0.052 C 
ATOM     11  C   UNL     1       2.009  -3.908  -2.443  0.00  0.00    -0.035 C 
ATOM     12  C   UNL     1       1.994  -2.677  -1.914  0.00  0.00    +0.003 A 
ATOM     13  C   UNL     1       1.169  -2.033  -0.884  0.00  0.00    +0.055 A 
ATOM     14  C   UNL     1       3.415  -7.348  -3.721  0.00  0.00    +0.307 C 
ATOM     15  O   UNL     1       4.311  -7.388  -4.543  0.00  0.00    -0.252 OA
ATOM     16  N   UNL     1       2.582  -8.398  -3.581  0.00  0.00    -0.268 N 
ATOM     17  H   UNL     1       1.825  -8.339  -2.978  0.00  0.00    +0.156 HD
ATOM     18  H   UNL     1       4.499  -2.310  -3.932  0.00  0.00    +0.160 HD
ENDROOT
BRANCH  16  19
ATOM     19  C   UNL     1       2.808  -9.573  -4.307  0.00  0.00    +0.049 A 
ATOM     20  C   UNL     1       3.499  -9.526  -5.511  0.00  0.00    +0.024 A 
ATOM     21  C   UNL     1       3.721 -10.687  -6.224  0.00  0.00    +0.002 A 
ATOM     22  C   UNL     1       3.258 -11.897  -5.741  0.00  0.00    +0.001 A 
ATOM     23  C   UNL     1       2.570 -11.949  -4.543  0.00  0.00    +0.017 A 
ATOM     24  C   UNL     1       2.349 -10.791  -3.821  0.00  0.00    +0.039 A 
ATOM     25 BR   UNL     1       1.414 -10.863  -2.179  0.00  0.00    -0.048 Br
ENDBRANCH  16  19
BRANCH   7  26
ATOM     26  C   UNL     1       4.941  -5.282  -4.420  0.00  0.00    -0.025 A 
ATOM     27  C   UNL     1       4.403  -5.295  -5.693  0.00  0.00    +0.008 A 
ATOM     28  C   UNL     1       5.220  -5.511  -6.787  0.00  0.00    +0.038 A 
ATOM     29  C   UNL     1       6.577  -5.714  -6.606  0.00  0.00    +0.123 A 
ATOM     30  C   UNL     1       7.115  -5.700  -5.330  0.00  0.00    +0.038 A 
ATOM     31  C   UNL     1       6.297  -5.479  -4.239  0.00  0.00    +0.008 A 
ATOM     32  F   UNL     1       7.377  -5.926  -7.675  0.00  0.00    -0.205 F 
ENDBRANCH   7  26
BRANCH   1  34
ATOM     33  C   UNL     1       0.906   1.205   0.721  0.00  0.00    +0.277 C 
ATOM     34  O   UNL     1       0.626  -0.159   0.400  0.00  0.00    -0.495 OA
ENDBRANCH   1  34
TORSDOF 3
