REMARK  Name = ZINC62211764
REMARK  5 active torsions:
REMARK  status: ('A' for Active; 'I' for Inactive)
REMARK    1  A    between atoms: C_1  and  O_2
REMARK    2  A    between atoms: O_2  and  C_3
REMARK    3  A    between atoms: C_7  and  C_9
REMARK    4  A    between atoms: C_11  and  N_21
REMARK    5  A    between atoms: N_17  and  C_18
REMARK                            x       y       z     vdW  Elec       q    Type
REMARK                         _______ _______ _______ _____ _____    ______ ____
ROOT
ATOM      1  C   UNL     1       1.327  -4.096  -2.292  0.00  0.00    +0.092 C 
ATOM      2  C   UNL     1       2.699  -4.577  -1.821  0.00  0.00    -0.049 C 
ATOM      3  C   UNL     1       3.746  -4.176  -2.868  0.00  0.00    -0.005 C 
ATOM      4  C   UNL     1       3.488  -4.982  -4.143  0.00  0.00    +0.094 C 
ATOM      5  C   UNL     1       2.034  -4.902  -4.513  0.00  0.00    +0.216 C 
ATOM      6  O   UNL     1       1.712  -5.199  -5.644  0.00  0.00    -0.276 OA
ATOM      7  N   UNL     1       1.084  -4.522  -3.664  0.00  0.00    -0.293 N 
ENDROOT
BRANCH   1  12
ATOM      8  C   UNL     1       0.616  -0.585  -1.087  0.00  0.00    +0.120 A 
ATOM      9  C   UNL     1       1.186   0.173  -2.100  0.00  0.00    +0.045 A 
ATOM     10  C   UNL     1       1.798  -0.452  -3.168  0.00  0.00    +0.004 A 
ATOM     11  C   UNL     1       1.843  -1.833  -3.230  0.00  0.00    +0.005 A 
ATOM     12  C   UNL     1       1.276  -2.591  -2.222  0.00  0.00    -0.025 A 
ATOM     13  C   UNL     1       0.668  -1.970  -1.148  0.00  0.00    +0.051 A 
BRANCH   8  15
ATOM     14  C   UNL     1      -0.001   1.457  -0.037  0.00  0.00    +0.277 C 
ATOM     15  O   UNL     1       0.014   0.028  -0.034  0.00  0.00    -0.495 OA
ENDBRANCH   8  15
ENDBRANCH   1  12
BRANCH   2  16
ATOM     16  N   UNL     1       3.024  -3.955  -0.531  0.00  0.00    +0.381 N 
ATOM     17  H   UNL     1       2.326  -4.212   0.152  0.00  0.00    -0.090 HD
ATOM     18  H   UNL     1       3.930  -4.274  -0.222  0.00  0.00    -0.090 HD
ATOM     19  H   UNL     1       3.039  -2.952  -0.635  0.00  0.00    -0.090 HD
ENDBRANCH   2  16
BRANCH   7  20
ATOM     20  C   UNL     1      -0.300  -4.535  -4.144  0.00  0.00    +0.077 C 
ATOM     21  C   UNL     1      -1.384  -4.029  -3.190  0.00  0.00    +0.024 C 
ATOM     22  C   UNL     1      -1.266  -5.525  -3.489  0.00  0.00    +0.024 C 
ENDBRANCH   7  20
TORSDOF 4
