REMARK  Name = ZINC55063998
REMARK  11 active torsions:
REMARK  status: ('A' for Active; 'I' for Inactive)
REMARK    1  A    between atoms: C_1  and  C_2
REMARK    2  A    between atoms: C_2  and  C_3
REMARK    3  A    between atoms: C_2  and  N_4
REMARK    4  A    between atoms: C_5  and  C_7
REMARK    5  A    between atoms: C_15  and  C_17
REMARK    6  A    between atoms: C_17  and  S_18
REMARK    7  A    between atoms: S_18  and  C_19
REMARK    8  A    between atoms: N_20  and  C_21
REMARK    9  A    between atoms: C_21  and  C_22
REMARK   10  A    between atoms: C_21  and  C_23
REMARK   11  A    between atoms: C_21  and  C_24
REMARK                            x       y       z     vdW  Elec       q    Type
REMARK                         _______ _______ _______ _____ _____    ______ ____
ROOT
ATOM      1  C   UNL     1      -2.322  -2.492  -1.223  0.00  0.00    +0.302 C 
ATOM      2  O   UNL     1      -3.131  -1.704  -0.778  0.00  0.00    -0.265 OA
ATOM      3  N   UNL     1      -2.726  -3.703  -1.654  0.00  0.00    -0.291 N 
ATOM      4  C   UNL     1      -1.744  -4.737  -2.009  0.00  0.00    +0.127 C 
ATOM      5  C   UNL     1      -2.044  -5.999  -1.190  0.00  0.00    +0.127 C 
ATOM      6  N   UNL     1      -3.475  -6.310  -1.313  0.00  0.00    -0.298 N 
ATOM      7  C   UNL     1      -4.457  -5.276  -0.958  0.00  0.00    +0.127 C 
ATOM      8  C   UNL     1      -4.157  -4.015  -1.771  0.00  0.00    +0.127 C 
ATOM      9  C   UNL     1      -3.880  -7.521  -1.744  0.00  0.00    +0.226 C 
ATOM     10  O   UNL     1      -3.060  -8.366  -2.035  0.00  0.00    -0.275 OA
ENDROOT
BRANCH   1  12
ATOM     11  N   UNL     1      -0.451  -0.965  -0.739  0.00  0.00    -0.305 N 
ATOM     12  C   UNL     1      -0.876  -2.119  -1.292  0.00  0.00    +0.299 C 
ATOM     13  O   UNL     1      -0.086  -2.854  -1.846  0.00  0.00    -0.265 OA
ATOM     14  H   UNL     1      -1.083  -0.378  -0.296  0.00  0.00    +0.149 HD
BRANCH  11  16
ATOM     15  C   UNL     1       1.106   0.921  -0.703  0.00  0.00    +0.027 C 
ATOM     16  C   UNL     1       0.966  -0.600  -0.807  0.00  0.00    +0.067 C 
ATOM     17  C   UNL     1       1.720  -1.261   0.348  0.00  0.00    +0.027 C 
ENDBRANCH  11  16
ENDBRANCH   1  12
BRANCH   9  18
ATOM     18  C   UNL     1      -5.351  -7.825  -1.865  0.00  0.00    +0.173 C 
BRANCH  18  19
ATOM     19  S   UNL     1      -5.570  -9.523  -2.466  0.00  0.00    -0.084 S 
BRANCH  19  20
ATOM     20  C   UNL     1      -7.319  -9.722  -2.553  0.00  0.00    +0.126 C 
ATOM     21  N   UNL     1      -7.827 -10.853  -2.957  0.00  0.00    -0.363 N 
ATOM     22  N   UNL     1      -8.148  -8.684  -2.195  0.00  0.00    -0.339 N 
ATOM     23  H   UNL     1      -7.779  -7.893  -1.770  0.00  0.00    +0.144 HD
ATOM     24  H   UNL     1      -9.100  -8.743  -2.366  0.00  0.00    +0.144 HD
ATOM     25  H   UNL     1      -7.242 -11.588  -3.200  0.00  0.00    +0.162 HD
BRANCH  21  26
ATOM     26  C   UNL     1      -9.281 -11.014  -3.042  0.00  0.00    +0.032 C 
ATOM     27  C   UNL     1      -9.846 -10.017  -4.056  0.00  0.00    +0.033 C 
ATOM     28  C   UNL     1      -9.611 -12.439  -3.489  0.00  0.00    +0.033 C 
ATOM     29  C   UNL     1      -9.904 -10.752  -1.669  0.00  0.00    +0.033 C 
ENDBRANCH  21  26
ENDBRANCH  19  20
ENDBRANCH  18  19
ENDBRANCH   9  18
TORSDOF 6
