REMARK  Name = ZINC42360233
REMARK  8 active torsions:
REMARK  status: ('A' for Active; 'I' for Inactive)
REMARK    1  A    between atoms: C_1  and  C_2
REMARK    2  A    between atoms: C_4  and  N_21
REMARK    3  A    between atoms: C_7  and  N_8
REMARK    4  A    between atoms: C_9  and  C_11
REMARK    5  A    between atoms: C_11  and  N_12
REMARK    6  A    between atoms: N_12  and  C_13
REMARK    7  A    between atoms: N_12  and  C_14
REMARK    8  A    between atoms: C_14  and  C_15
REMARK                            x       y       z     vdW  Elec       q    Type
REMARK                         _______ _______ _______ _____ _____    ______ ____
ROOT
ATOM      1  N   UNL     1       0.025  -0.010   2.418  0.00  0.00    -0.287 N 
ATOM      2  C   UNL     1      -0.057  -0.688   3.580  0.00  0.00    +0.201 C 
ATOM      3  O   UNL     1      -0.040  -1.901   3.578  0.00  0.00    -0.278 OA
ATOM      4  H   UNL     1       0.078   0.958   2.424  0.00  0.00    +0.155 HD
ENDROOT
BRANCH   1  11
ATOM      5  C   UNL     1      -1.265   1.183   0.182  0.00  0.00    +0.046 C 
ATOM      6  C   UNL     1      -0.585  -0.158   0.085  0.00  0.00    -0.028 A 
ATOM      7  C   UNL     1      -0.572  -0.840  -1.116  0.00  0.00    +0.028 A 
ATOM      8  C   UNL     1       0.055  -2.076  -1.205  0.00  0.00    +0.025 A 
ATOM      9  C   UNL     1       0.669  -2.626  -0.087  0.00  0.00    +0.024 A 
ATOM     10  C   UNL     1       0.656  -1.944   1.113  0.00  0.00    +0.025 A 
ATOM     11  C   UNL     1       0.034  -0.705   1.201  0.00  0.00    +0.036 A 
BRANCH   8  12
ATOM     12  N   UNL     1       0.068  -2.767  -2.422  0.00  0.00    -0.358 N 
ATOM     13  H   UNL     1      -0.361  -2.383  -3.202  0.00  0.00    +0.142 HD
ATOM     14  H   UNL     1       0.506  -3.630  -2.484  0.00  0.00    +0.142 HD
ENDBRANCH   8  12
ENDBRANCH   1  11
BRANCH   2  15
ATOM     15  C   UNL     1      -0.168   0.062   4.883  0.00  0.00    +0.019 C 
BRANCH  15  16
ATOM     16  N   UNL     1      -0.242  -0.896   5.994  0.00  0.00    +0.386 N 
ATOM     17  C   UNL     1       1.021  -1.643   6.082  0.00  0.00    -0.095 C 
ATOM     18  H   UNL     1      -1.002  -1.540   5.834  0.00  0.00    -0.081 HD
BRANCH  16  19
ATOM     19  C   UNL     1      -0.470  -0.172   7.251  0.00  0.00    -0.042 C 
BRANCH  19  20
ATOM     20  C   UNL     1      -0.668  -1.159   8.372  0.00  0.00    -0.056 A 
ATOM     21  C   UNL     1      -1.932  -1.627   8.679  0.00  0.00    +0.024 A 
ATOM     22  C   UNL     1      -2.075  -2.516   9.694  0.00  0.00    +0.055 A 
ATOM     23  S   UNL     1      -0.391  -2.716  10.250  0.00  0.00    -0.090 S 
ATOM     24  C   UNL     1       0.391  -1.607   9.089  0.00  0.00    +0.048 A 
ATOM     25 BR   UNL     1      -3.651  -3.331  10.350  0.00  0.00    -0.043 Br
ENDBRANCH  19  20
ENDBRANCH  16  19
ENDBRANCH  15  16
ENDBRANCH   2  15
TORSDOF 6
