REMARK  Name = ZINC27099947
REMARK  12 active torsions:
REMARK  status: ('A' for Active; 'I' for Inactive)
REMARK    1  A    between atoms: C_1  and  C_2
REMARK    2  A    between atoms: C_2  and  O_3
REMARK    3  A    between atoms: O_3  and  C_4
REMARK    4  A    between atoms: C_4  and  C_6
REMARK    5  A    between atoms: C_9  and  O_12
REMARK    6  A    between atoms: O_12  and  C_13
REMARK    7  A    between atoms: C_19  and  O_39
REMARK    8  A    between atoms: C_20  and  C_28
REMARK    9  A    between atoms: C_23  and  C_24
REMARK   10  A    between atoms: C_28  and  N_29
REMARK   11  A    between atoms: C_31  and  C_38
REMARK   12  A    between atoms: C_34  and  C_37
REMARK                            x       y       z     vdW  Elec       q    Type
REMARK                         _______ _______ _______ _____ _____    ______ ____
ROOT
ATOM      1  C   UNL     1      -5.450   2.405   2.051  0.00  0.00    +0.222 A 
ATOM      2  C   UNL     1      -5.585   1.109   2.623  0.00  0.00    +0.235 A 
ATOM      3  O   UNL     1      -6.657   0.527   2.633  0.00  0.00    -0.283 OA
ATOM      4  C   UNL     1      -4.380   0.506   3.218  0.00  0.00    +0.068 A 
ATOM      5  C   UNL     1      -4.417  -0.755   3.816  0.00  0.00    +0.019 A 
ATOM      6  C   UNL     1      -3.279  -1.281   4.357  0.00  0.00    +0.046 A 
ATOM      7  C   UNL     1      -2.083  -0.567   4.315  0.00  0.00    +0.122 A 
ATOM      8  C   UNL     1      -2.030   0.685   3.726  0.00  0.00    +0.020 A 
ATOM      9  C   UNL     1      -3.179   1.236   3.176  0.00  0.00    +0.144 A 
ATOM     10  O   UNL     1      -3.156   2.455   2.600  0.00  0.00    -0.447 OA
ATOM     11  C   UNL     1      -4.247   3.015   2.061  0.00  0.00    +0.254 A 
ENDROOT
BRANCH  11  12
ATOM     12  C   UNL     1      -4.125   4.382   1.440  0.00  0.00    +0.454 C 
ATOM     13  F   UNL     1      -4.377   5.359   2.409  0.00  0.00    -0.163 F 
ATOM     14  F   UNL     1      -2.832   4.551   0.934  0.00  0.00    -0.163 F 
ATOM     15  F   UNL     1      -5.053   4.507   0.400  0.00  0.00    -0.163 F 
ENDBRANCH  11  12
BRANCH   7  16
ATOM     16  O   UNL     1      -0.960  -1.103   4.858  0.00  0.00    -0.506 OA
ATOM     17  H   UNL     1      -0.013  -0.543   4.828  0.00  0.00    +0.292 HD
ENDBRANCH   7  16
BRANCH   1  18
ATOM     18  O   UNL     1      -6.525   3.022   1.488  0.00  0.00    -0.448 OA
BRANCH  18  22
ATOM     19  C   UNL     1      -7.252   2.368  -2.522  0.00  0.00    +0.059 A 
ATOM     20  C   UNL     1      -8.098   3.201  -1.783  0.00  0.00    +0.018 A 
ATOM     21  C   UNL     1      -7.852   3.416  -0.446  0.00  0.00    +0.047 A 
ATOM     22  C   UNL     1      -6.764   2.807   0.170  0.00  0.00    +0.129 A 
ATOM     23  C   UNL     1      -5.918   1.982  -0.563  0.00  0.00    +0.047 A 
ATOM     24  C   UNL     1      -6.160   1.758  -1.900  0.00  0.00    +0.018 A 
BRANCH  19  25
ATOM     25  C   UNL     1      -7.513   2.135  -3.955  0.00  0.00    +0.339 C 
ATOM     26  O   UNL     1      -8.463   2.666  -4.494  0.00  0.00    -0.245 OA
BRANCH  25  27
ATOM     27  O   UNL     1      -6.696   1.332  -4.666  0.00  0.00    -0.461 OA
BRANCH  27  29
ATOM     28  C   UNL     1      -5.983   0.211  -6.707  0.00  0.00    +0.048 C 
ATOM     29  C   UNL     1      -7.013   1.147  -6.071  0.00  0.00    +0.229 C 
ENDBRANCH  27  29
ENDBRANCH  25  27
ENDBRANCH  19  25
ENDBRANCH  18  22
ENDBRANCH   1  18
BRANCH   8  30
ATOM     30  C   UNL     1      -0.731   1.448   3.687  0.00  0.00    -0.036 C 
BRANCH  30  31
ATOM     31  N   UNL     1      -0.001   1.110   2.458  0.00  0.00    +0.383 N 
ATOM     32  C   UNL     1      -0.725   1.580   1.269  0.00  0.00    -0.075 C 
ATOM     33  C   UNL     1      -0.013   1.086   0.008  0.00  0.00    -0.031 C 
ATOM     34  C   UNL     1       1.423   1.617  -0.003  0.00  0.00    +0.003 C 
ATOM     35  C   UNL     1       2.140   1.153   1.268  0.00  0.00    -0.031 C 
ATOM     36  C   UNL     1       1.366   1.645   2.493  0.00  0.00    -0.075 C 
ATOM     37  C   UNL     1       3.558   1.729   1.294  0.00  0.00    +0.005 C 
ATOM     38  C   UNL     1      -0.754   1.593  -1.230  0.00  0.00    +0.005 C 
ATOM     39  H   UNL     1       0.070   0.014   2.395  0.00  0.00    -0.081 HD
ENDBRANCH  30  31
ENDBRANCH   8  30
TORSDOF 9
