REMARK  Name = ZINC64600492
REMARK  8 active torsions:
REMARK  status: ('A' for Active; 'I' for Inactive)
REMARK    1  A    between atoms: C_1  and  O_2
REMARK    2  A    between atoms: O_2  and  C_3
REMARK    3  A    between atoms: C_9  and  C_12
REMARK    4  A    between atoms: C_12  and  C_13
REMARK    5  A    between atoms: C_13  and  N_14
REMARK    6  A    between atoms: C_15  and  C_17
REMARK    7  A    between atoms: C_17  and  N_18
REMARK    8  A    between atoms: C_19  and  O_30
REMARK                            x       y       z     vdW  Elec       q    Type
REMARK                         _______ _______ _______ _____ _____    ______ ____
ROOT
ATOM      1  N   UNL     1      -0.759  -6.798   1.434  0.00  0.00    -0.314 N 
ATOM      2  C   UNL     1      -0.408  -7.389   2.593  0.00  0.00    +0.231 C 
ATOM      3  O   UNL     1      -0.851  -6.975   3.644  0.00  0.00    -0.274 OA
ATOM      4  H   UNL     1      -0.405  -7.128   0.594  0.00  0.00    +0.149 HD
ENDROOT
BRANCH   1   5
ATOM      5  C   UNL     1      -1.676  -5.655   1.443  0.00  0.00    +0.108 C 
BRANCH   5   6
ATOM      6  C   UNL     1      -1.908  -5.176   0.009  0.00  0.00    +0.052 C 
BRANCH   6  13
ATOM      7  C   UNL     1      -1.200  -0.637   0.010  0.00  0.00    +0.121 A 
ATOM      8  C   UNL     1      -2.375   0.135   0.020  0.00  0.00    +0.047 A 
ATOM      9  C   UNL     1      -3.607  -0.415   0.028  0.00  0.00    +0.029 A 
ATOM     10  C   UNL     1      -3.753  -1.875   0.027  0.00  0.00    +0.043 A 
ATOM     11  N   UNL     1      -4.809  -2.650   0.034  0.00  0.00    -0.380 N 
ATOM     12  C   UNL     1      -4.362  -4.047   0.029  0.00  0.00    +0.144 C 
ATOM     13  C   UNL     1      -2.851  -4.000   0.018  0.00  0.00    -0.040 C 
ATOM     14  C   UNL     1      -2.516  -2.690   0.016  0.00  0.00    +0.002 A 
ATOM     15  C   UNL     1      -1.226  -1.992   0.003  0.00  0.00    +0.055 A 
ATOM     16  H   UNL     1      -5.731  -2.350   0.042  0.00  0.00    +0.160 HD
BRANCH   7  18
ATOM     17  C   UNL     1      -0.017   1.425   0.010  0.00  0.00    +0.277 C 
ATOM     18  O   UNL     1       0.002  -0.004   0.002  0.00  0.00    -0.495 OA
ENDBRANCH   7  18
ENDBRANCH   6  13
ENDBRANCH   5   6
ENDBRANCH   1   5
BRANCH   2  19
ATOM     19  C   UNL     1       0.535  -8.564   2.584  0.00  0.00    +0.207 C 
BRANCH  19  20
ATOM     20  N   UNL     1       0.757  -9.023   3.958  0.00  0.00    -0.248 N 
ATOM     21  C   UNL     1       1.853  -8.449   4.738  0.00  0.00    +0.300 C 
ATOM     22  N   UNL     1       2.376  -9.440   5.687  0.00  0.00    -0.303 N 
ATOM     23  C   UNL     1       1.470 -10.203   6.415  0.00  0.00    +0.042 A 
ATOM     24  C   UNL     1       1.766 -10.682   7.680  0.00  0.00    +0.024 A 
ATOM     25  C   UNL     1       0.829 -11.434   8.363  0.00  0.00    +0.002 A 
ATOM     26  C   UNL     1      -0.403 -11.711   7.792  0.00  0.00    +0.001 A 
ATOM     27  C   UNL     1      -0.714 -11.242   6.532  0.00  0.00    +0.015 A 
ATOM     28  C   UNL     1       0.222 -10.485   5.832  0.00  0.00    +0.058 A 
ATOM     29  C   UNL     1      -0.057  -9.963   4.482  0.00  0.00    +0.252 C 
ATOM     30  O   UNL     1      -1.007 -10.377   3.846  0.00  0.00    -0.270 OA
ATOM     31  H   UNL     1       3.331  -9.559   5.803  0.00  0.00    +0.150 HD
BRANCH  21  32
ATOM     32  O   UNL     1       1.375  -7.313   5.461  0.00  0.00    -0.359 OA
ATOM     33  H   UNL     1       2.049  -6.879   6.002  0.00  0.00    +0.213 HD
ENDBRANCH  21  32
ENDBRANCH  19  20
ENDBRANCH   2  19
TORSDOF 7
