REMARK  Name = ZINC33078175
REMARK  11 active torsions:
REMARK  status: ('A' for Active; 'I' for Inactive)
REMARK    1  A    between atoms: C_1  and  C_2
REMARK    2  A    between atoms: C_2  and  C_3
REMARK    3  A    between atoms: C_3  and  C_4
REMARK    4  A    between atoms: C_4  and  O_5
REMARK    5  A    between atoms: O_5  and  C_6
REMARK    6  A    between atoms: C_9  and  S_12
REMARK    7  A    between atoms: S_12  and  N_15
REMARK    8  A    between atoms: N_15  and  C_16
REMARK    9  A    between atoms: C_19  and  N_22
REMARK   10  A    between atoms: C_25  and  C_34
REMARK   11  A    between atoms: C_27  and  N_29
REMARK                            x       y       z     vdW  Elec       q    Type
REMARK                         _______ _______ _______ _____ _____    ______ ____
ROOT
ATOM      1  C   UNL     1       1.244  -0.718  -0.038  0.00  0.00    +0.048 A 
ATOM      2  C   UNL     1       0.032  -0.088   0.212  0.00  0.00    +0.026 A 
ATOM      3  C   UNL     1      -0.021   1.287   0.324  0.00  0.00    +0.025 A 
ATOM      4  C   UNL     1       1.137   2.040   0.186  0.00  0.00    +0.034 A 
ATOM      5  C   UNL     1       2.349   1.410  -0.064  0.00  0.00    +0.025 A 
ATOM      6  C   UNL     1       2.402   0.035  -0.176  0.00  0.00    +0.026 A 
ENDROOT
BRANCH   4   7
ATOM      7  N   UNL     1       1.083   3.435   0.300  0.00  0.00    -0.285 N 
ATOM      8  C   UNL     1       0.192   4.025   1.181  0.00  0.00    +0.199 A 
ATOM      9  N   UNL     1      -0.524   3.254   1.987  0.00  0.00    -0.331 N 
ATOM     10  C   UNL     1      -1.386   3.781   2.843  0.00  0.00    +0.019 A 
ATOM     11  C   UNL     1      -1.538   5.153   2.892  0.00  0.00    +0.064 A 
ATOM     12  C   UNL     1      -0.770   5.939   2.030  0.00  0.00    +0.126 A 
ATOM     13  N   UNL     1       0.081   5.344   1.200  0.00  0.00    -0.201 NA
ATOM     14  C   UNL     1      -2.194   2.893   3.754  0.00  0.00    +0.063 C 
ATOM     15  H   UNL     1       1.749   4.063  -0.311  0.00  0.00    +0.155 HD
ATOM     16  H   UNL     1      -0.406   2.161   1.951  0.00  0.00    +0.168 HD
BRANCH  12  17
ATOM     17  N   UNL     1      -0.889   7.320   2.044  0.00  0.00    -0.315 N 
ATOM     18  C   UNL     1      -0.488   7.875   3.362  0.00  0.00    +0.106 C 
ATOM     19  C   UNL     1      -0.176   9.359   3.041  0.00  0.00    +0.020 C 
ATOM     20  C   UNL     1       0.490   9.279   1.648  0.00  0.00    +0.020 C 
ATOM     21  C   UNL     1       0.017   7.940   1.053  0.00  0.00    +0.106 C 
ENDBRANCH  12  17
ENDBRANCH   4   7
BRANCH   1  22
ATOM     22  N   UNL     1       1.298  -2.112  -0.151  0.00  0.00    -0.216 N 
ATOM     23  H   UNL     1       1.710  -2.715   0.671  0.00  0.00    +0.174 HD
BRANCH  22  24
ATOM     24  S   UNL     1       0.740  -2.854  -1.522  0.00  0.00    +0.072 S 
ATOM     25  O   UNL     1       1.005  -4.242  -1.370  0.00  0.00    -0.150 OA
ATOM     26  O   UNL     1      -0.568  -2.349  -1.754  0.00  0.00    -0.150 OA
BRANCH  24  30
ATOM     27  C   UNL     1       3.311  -1.417  -4.962  0.00  0.00    +0.121 A 
ATOM     28  C   UNL     1       3.618  -2.604  -4.314  0.00  0.00    +0.047 A 
ATOM     29  C   UNL     1       2.832  -3.041  -3.265  0.00  0.00    +0.032 A 
ATOM     30  C   UNL     1       1.740  -2.295  -2.861  0.00  0.00    +0.109 A 
ATOM     31  C   UNL     1       1.429  -1.113  -3.509  0.00  0.00    +0.032 A 
ATOM     32  C   UNL     1       2.215  -0.670  -4.554  0.00  0.00    +0.047 A 
BRANCH  27  33
ATOM     33  O   UNL     1       4.083  -0.985  -5.994  0.00  0.00    -0.492 OA
BRANCH  33  34
ATOM     34  C   UNL     1       3.707   0.246  -6.614  0.00  0.00    +0.229 C 
BRANCH  34  35
ATOM     35  C   UNL     1       4.686   0.567  -7.746  0.00  0.00    +0.041 C 
BRANCH  35  37
ATOM     36  C   UNL     1       5.262   2.205  -9.541  0.00  0.00    +0.004 C 
ATOM     37  C   UNL     1       4.284   1.885  -8.410  0.00  0.00    -0.000 C 
ENDBRANCH  35  37
ENDBRANCH  34  35
ENDBRANCH  33  34
ENDBRANCH  27  33
ENDBRANCH  24  30
ENDBRANCH  22  24
ENDBRANCH   1  22
TORSDOF 9
