REMARK  Name = ZINC63726823
REMARK  11 active torsions:
REMARK  status: ('A' for Active; 'I' for Inactive)
REMARK    1  A    between atoms: C_1  and  C_2
REMARK    2  A    between atoms: C_5  and  O_29
REMARK    3  A    between atoms: C_6  and  N_8
REMARK    4  A    between atoms: C_9  and  C_11
REMARK    5  A    between atoms: C_11  and  N_12
REMARK    6  A    between atoms: C_13  and  C_15
REMARK    7  A    between atoms: C_15  and  S_16
REMARK    8  A    between atoms: S_16  and  C_17
REMARK    9  A    between atoms: C_23  and  O_27
REMARK   10  A    between atoms: O_27  and  C_28
REMARK   11  A    between atoms: O_29  and  C_30
REMARK                            x       y       z     vdW  Elec       q    Type
REMARK                         _______ _______ _______ _____ _____    ______ ____
ROOT
ATOM      1  N   UNL     1       0.369  -1.951   5.978  0.00  0.00    -0.306 N 
ATOM      2  C   UNL     1       0.491  -2.410   7.239  0.00  0.00    +0.223 C 
ATOM      3  O   UNL     1       0.527  -3.604   7.449  0.00  0.00    -0.275 OA
ATOM      4  H   UNL     1       0.340  -0.996   5.810  0.00  0.00    +0.149 HD
ENDROOT
BRANCH   1   5
ATOM      5  C   UNL     1       0.279  -2.894   4.860  0.00  0.00    +0.200 C 
BRANCH   5   7
ATOM      6  N   UNL     1       0.050  -2.795   2.399  0.00  0.00    -0.281 N 
ATOM      7  C   UNL     1       0.149  -2.130   3.568  0.00  0.00    +0.234 C 
ATOM      8  O   UNL     1       0.134  -0.917   3.579  0.00  0.00    -0.274 OA
ATOM      9  H   UNL     1      -0.018  -3.762   2.396  0.00  0.00    +0.155 HD
BRANCH   6  15
ATOM     10  C   UNL     1       1.263   1.227  -0.157  0.00  0.00    +0.044 C 
ATOM     11  C   UNL     1       0.627  -0.137  -0.079  0.00  0.00    -0.048 A 
ATOM     12  C   UNL     1       0.040  -0.689  -1.202  0.00  0.00    +0.007 A 
ATOM     13  C   UNL     1      -0.546  -1.940  -1.136  0.00  0.00    +0.048 A 
ATOM     14  C   UNL     1      -0.545  -2.643   0.058  0.00  0.00    +0.141 A 
ATOM     15  C   UNL     1       0.047  -2.088   1.189  0.00  0.00    +0.076 A 
ATOM     16  C   UNL     1       0.637  -0.835   1.114  0.00  0.00    +0.030 A 
BRANCH  14  17
ATOM     17  O   UNL     1      -1.121  -3.873   0.124  0.00  0.00    -0.493 OA
ATOM     18  C   UNL     1      -1.709  -4.380  -1.076  0.00  0.00    +0.277 C 
ENDBRANCH  14  17
ENDBRANCH   6  15
ENDBRANCH   5   7
ENDBRANCH   1   5
BRANCH   2  19
ATOM     19  C   UNL     1       0.584  -1.440   8.389  0.00  0.00    +0.168 C 
BRANCH  19  20
ATOM     20  S   UNL     1       0.740  -2.360   9.944  0.00  0.00    -0.106 S 
BRANCH  20  21
ATOM     21  C   UNL     1       0.839  -1.065  11.211  0.00  0.00    +0.236 C 
ATOM     22  N   UNL     1       1.974  -0.175  10.934  0.00  0.00    -0.355 N 
ATOM     23  C   UNL     1       1.497   1.023  10.755  0.00  0.00    +0.061 A 
ATOM     24  C   UNL     1       2.144   2.309  10.452  0.00  0.00    +0.031 A 
ATOM     25  C   UNL     1       1.394   3.419  10.316  0.00  0.00    +0.048 A 
ATOM     26  C   UNL     1      -0.056   3.391  10.461  0.00  0.00    +0.122 A 
ATOM     27  C   UNL     1      -0.724   2.245  10.741  0.00  0.00    +0.073 A 
ATOM     28  C   UNL     1       0.017   0.993  10.904  0.00  0.00    +0.064 A 
ATOM     29  N   UNL     1      -0.365  -0.227  11.171  0.00  0.00    -0.355 N 
ATOM     30  H   UNL     1       2.908  -0.433  10.893  0.00  0.00    +0.162 HD
ATOM     31  H   UNL     1      -1.277  -0.525  11.315  0.00  0.00    +0.162 HD
BRANCH  26  32
ATOM     32  O   UNL     1      -0.755   4.543  10.314  0.00  0.00    -0.495 OA
ATOM     33  C   UNL     1      -0.006   5.724  10.020  0.00  0.00    +0.277 C 
ENDBRANCH  26  32
ENDBRANCH  20  21
ENDBRANCH  19  20
ENDBRANCH   2  19
TORSDOF 8
