REMARK  Name = ZINC08492867
REMARK  11 active torsions:
REMARK  status: ('A' for Active; 'I' for Inactive)
REMARK    1  A    between atoms: C_1  and  C_2
REMARK    2  A    between atoms: C_2  and  C_3
REMARK    3  A    between atoms: C_8  and  N_9
REMARK    4  A    between atoms: C_10  and  C_12
REMARK    5  A    between atoms: C_12  and  N_13
REMARK    6  A    between atoms: N_13  and  C_14
REMARK    7  A    between atoms: N_13  and  C_15
REMARK    8  A    between atoms: C_15  and  C_16
REMARK    9  A    between atoms: N_21  and  C_22
REMARK   10  A    between atoms: C_26  and  C_29
REMARK   11  A    between atoms: C_27  and  C_28
REMARK                            x       y       z     vdW  Elec       q    Type
REMARK                         _______ _______ _______ _____ _____    ______ ____
ROOT
ATOM      1  C   UNL     1      -5.446  -0.600   5.040  0.00  0.00    +0.019 C 
ENDROOT
BRANCH   1   2
ATOM      2  C   UNL     1      -5.970  -1.047   6.380  0.00  0.00    +0.204 C 
ATOM      3  O   UNL     1      -5.199  -1.424   7.237  0.00  0.00    -0.277 OA
ATOM      4  N   UNL     1      -7.295  -1.028   6.627  0.00  0.00    -0.241 N 
ATOM      5  C   UNL     1      -7.763  -1.428   7.825  0.00  0.00    +0.310 C 
ATOM      6  O   UNL     1      -6.990  -1.806   8.684  0.00  0.00    -0.252 OA
ATOM      7  N   UNL     1      -9.088  -1.408   8.072  0.00  0.00    -0.269 N 
ATOM      8  H   UNL     1      -7.911  -0.726   5.941  0.00  0.00    +0.159 HD
ATOM      9  H   UNL     1      -9.709  -1.169   7.366  0.00  0.00    +0.156 HD
BRANCH   7  10
ATOM     10  C   UNL     1      -9.567  -1.733   9.346  0.00  0.00    +0.038 A 
ATOM     11  C   UNL     1      -8.924  -2.701  10.106  0.00  0.00    +0.023 A 
ATOM     12  C   UNL     1      -9.399  -3.020  11.362  0.00  0.00    +0.002 A 
ATOM     13  C   UNL     1     -10.516  -2.376  11.864  0.00  0.00    +0.004 A 
ATOM     14  C   UNL     1     -11.159  -1.412  11.110  0.00  0.00    -0.046 A 
ATOM     15  C   UNL     1     -10.684  -1.084   9.855  0.00  0.00    -0.026 A 
ATOM     16  C   UNL     1     -11.382  -0.029   9.036  0.00  0.00    +0.046 C 
ATOM     17  C   UNL     1     -12.376  -0.714  11.661  0.00  0.00    +0.044 C 
ENDBRANCH   7  10
ENDBRANCH   1   2
BRANCH   1  18
ATOM     18  N   UNL     1      -3.982  -0.715   5.023  0.00  0.00    +0.389 N 
ATOM     19  C   UNL     1      -3.406   0.222   5.997  0.00  0.00    -0.095 C 
ATOM     20  H   UNL     1      -3.716  -1.658   5.265  0.00  0.00    -0.081 HD
BRANCH  18  21
ATOM     21  C   UNL     1      -3.481  -0.394   3.680  0.00  0.00    +0.019 C 
BRANCH  21  23
ATOM     22  N   UNL     1      -1.313  -0.401   2.488  0.00  0.00    -0.287 N 
ATOM     23  C   UNL     1      -1.993  -0.630   3.629  0.00  0.00    +0.201 C 
ATOM     24  O   UNL     1      -1.408  -1.027   4.614  0.00  0.00    -0.278 OA
ATOM     25  H   UNL     1      -1.768  -0.022   1.720  0.00  0.00    +0.155 HD
BRANCH  22  31
ATOM     26  C   UNL     1       0.592  -1.176   1.222  0.00  0.00    -0.026 A 
ATOM     27  C   UNL     1       1.939  -1.474   1.149  0.00  0.00    +0.005 A 
ATOM     28  C   UNL     1       2.746  -1.313   2.260  0.00  0.00    +0.000 A 
ATOM     29  C   UNL     1       2.208  -0.852   3.448  0.00  0.00    +0.002 A 
ATOM     30  C   UNL     1       0.862  -0.552   3.527  0.00  0.00    +0.023 A 
ATOM     31  C   UNL     1       0.050  -0.709   2.412  0.00  0.00    +0.036 A 
BRANCH  26  33
ATOM     32  C   UNL     1      -0.400  -0.021  -0.735  0.00  0.00    +0.009 C 
ATOM     33  C   UNL     1      -0.287  -1.353   0.011  0.00  0.00    +0.033 C 
ENDBRANCH  26  33
ENDBRANCH  22  31
ENDBRANCH  21  23
ENDBRANCH  18  21
ENDBRANCH   1  18
TORSDOF 7
