REMARK  Name = ZINC40679409
REMARK  8 active torsions:
REMARK  status: ('A' for Active; 'I' for Inactive)
REMARK    1  A    between atoms: C_1  and  C_2
REMARK    2  A    between atoms: C_2  and  C_3
REMARK    3  A    between atoms: C_6  and  N_9
REMARK    4  A    between atoms: C_11  and  N_25
REMARK    5  A    between atoms: C_12  and  N_16
REMARK    6  A    between atoms: N_16  and  C_17
REMARK    7  A    between atoms: N_16  and  C_19
REMARK    8  A    between atoms: C_17  and  C_18
REMARK                            x       y       z     vdW  Elec       q    Type
REMARK                         _______ _______ _______ _____ _____    ______ ____
ROOT
ATOM      1  N   UNL     1       2.684  -1.893   4.594  0.00  0.00    -0.299 N 
ATOM      2  C   UNL     1       2.019  -2.039   5.806  0.00  0.00    +0.126 A 
ATOM      3  C   UNL     1       2.720  -2.393   6.961  0.00  0.00    +0.104 A 
ATOM      4  C   UNL     1       2.003  -2.527   8.152  0.00  0.00    +0.151 A 
ATOM      5  N   UNL     1       0.689  -2.314   8.141  0.00  0.00    -0.220 NA
ATOM      6  C   UNL     1       0.066  -1.981   7.028  0.00  0.00    +0.200 A 
ATOM      7  N   UNL     1       0.706  -1.839   5.885  0.00  0.00    -0.333 N 
ATOM      8  H   UNL     1       3.622  -2.129   4.523  0.00  0.00    +0.154 HD
ATOM      9  H   UNL     1       0.211  -1.589   5.088  0.00  0.00    +0.168 HD
ENDROOT
BRANCH   1  13
ATOM     10  C   UNL     1       0.649  -0.439   1.264  0.00  0.00    -0.048 A 
ATOM     11  C   UNL     1       0.419   0.117   2.510  0.00  0.00    +0.005 A 
ATOM     12  C   UNL     1       1.093  -0.363   3.616  0.00  0.00    +0.023 A 
ATOM     13  C   UNL     1       2.001  -1.405   3.476  0.00  0.00    +0.032 A 
ATOM     14  C   UNL     1       2.229  -1.961   2.224  0.00  0.00    +0.023 A 
ATOM     15  C   UNL     1       1.548  -1.479   1.123  0.00  0.00    +0.005 A 
BRANCH  10  17
ATOM     16  C   UNL     1      -1.398  -0.683  -0.114  0.00  0.00    +0.009 C 
ATOM     17  C   UNL     1      -0.088   0.088   0.059  0.00  0.00    +0.032 C 
ENDBRANCH  10  17
ENDBRANCH   1  13
BRANCH   3  18
ATOM     18  N   UNL     1       4.106  -2.609   6.926  0.00  0.00    -0.353 N 
ATOM     19  H   UNL     1       4.603  -2.439   6.110  0.00  0.00    +0.143 HD
ATOM     20  H   UNL     1       4.568  -2.927   7.717  0.00  0.00    +0.143 HD
ENDBRANCH   3  18
BRANCH   4  21
ATOM     21  N   UNL     1       2.652  -2.877   9.330  0.00  0.00    -0.284 N 
BRANCH  21  22
ATOM     22  C   UNL     1       2.698  -4.216   9.731  0.00  0.00    +0.035 A 
ATOM     23  C   UNL     1       3.234  -4.554  10.967  0.00  0.00    +0.023 A 
ATOM     24  C   UNL     1       3.278  -5.877  11.360  0.00  0.00    +0.002 A 
ATOM     25  C   UNL     1       2.790  -6.865  10.524  0.00  0.00    +0.000 A 
ATOM     26  C   UNL     1       2.257  -6.532   9.292  0.00  0.00    +0.002 A 
ATOM     27  C   UNL     1       2.204  -5.210   8.896  0.00  0.00    +0.023 A 
ENDBRANCH  21  22
BRANCH  21  28
ATOM     28  C   UNL     1       3.286  -1.844  10.153  0.00  0.00    +0.109 C 
ATOM     29  C   UNL     1       2.275  -1.309  11.169  0.00  0.00    +0.025 C 
ENDBRANCH  21  28
ENDBRANCH   4  21
TORSDOF 6
