REMARK  Name = ZINC39662922
REMARK  7 active torsions:
REMARK  status: ('A' for Active; 'I' for Inactive)
REMARK    1  A    between atoms: C_1  and  C_2
REMARK    2  A    between atoms: C_2  and  C_3
REMARK    3  A    between atoms: C_3  and  C_4
REMARK    4  A    between atoms: C_4  and  C_6
REMARK    5  A    between atoms: C_4  and  C_7
REMARK    6  A    between atoms: C_11  and  C_20
REMARK    7  A    between atoms: N_22  and  C_23
REMARK                            x       y       z     vdW  Elec       q    Type
REMARK                         _______ _______ _______ _____ _____    ______ ____
ROOT
ATOM      1  C   UNL     1       1.775  -2.724  -2.474  0.00  0.00    +0.218 C 
ATOM      2  O   UNL     1       2.441  -2.004  -3.187  0.00  0.00    -0.275 OA
ATOM      3  N   UNL     1       1.731  -4.051  -2.709  0.00  0.00    -0.300 N 
ATOM      4  C   UNL     1       0.898  -5.067  -2.024  0.00  0.00    +0.121 C 
ATOM      5  C   UNL     1       0.447  -6.024  -3.150  0.00  0.00    +0.100 C 
ATOM      6  C   UNL     1       1.505  -5.860  -4.253  0.00  0.00    -0.004 C 
ATOM      7  C   UNL     1       2.500  -4.821  -3.715  0.00  0.00    +0.115 C 
ATOM      8  C   UNL     1       0.857  -5.348  -5.535  0.00  0.00    -0.010 C 
ATOM      9  C   UNL     1       1.920  -5.247  -6.633  0.00  0.00    -0.082 C 
ATOM     10  N   UNL     1       2.520  -6.568  -6.859  0.00  0.00    +0.379 N 
ATOM     11  C   UNL     1       3.221  -7.013  -5.648  0.00  0.00    -0.082 C 
ATOM     12  C   UNL     1       2.213  -7.188  -4.508  0.00  0.00    -0.010 C 
ATOM     13  H   UNL     1       1.795  -7.231  -7.088  0.00  0.00    -0.086 HD
ATOM     14  H   UNL     1       3.175  -6.512  -7.624  0.00  0.00    -0.086 HD
ENDROOT
BRANCH   5  15
ATOM     15  C   UNL     1       0.421  -7.446  -2.651  0.00  0.00    +0.218 C 
ATOM     16  O   UNL     1       1.189  -7.797  -1.780  0.00  0.00    -0.275 OA
ATOM     17  N   UNL     1      -0.455  -8.328  -3.172  0.00  0.00    -0.314 N 
ATOM     18  H   UNL     1      -1.069  -8.048  -3.869  0.00  0.00    +0.149 HD
BRANCH  17  19
ATOM     19  C   UNL     1      -0.479  -9.710  -2.687  0.00  0.00    +0.059 C 
ATOM     20  C   UNL     1       0.566 -10.537  -3.440  0.00  0.00    -0.056 C 
ATOM     21  N   UNL     1      -0.085 -11.637  -4.154  0.00  0.00    +0.381 N 
ATOM     22  C   UNL     1      -1.033 -11.121  -5.144  0.00  0.00    -0.078 C 
ATOM     23  C   UNL     1      -2.131 -10.313  -4.448  0.00  0.00    -0.014 C 
ATOM     24  C   UNL     1      -1.866 -10.317  -2.934  0.00  0.00    +0.004 C 
ATOM     25  C   UNL     1      -1.850 -11.773  -2.450  0.00  0.00    -0.014 C 
ATOM     26  C   UNL     1      -0.760 -12.535  -3.213  0.00  0.00    -0.078 C 
ATOM     27  H   UNL     1       0.623 -12.163  -4.644  0.00  0.00    -0.082 HD
ENDBRANCH  17  19
ENDBRANCH   5  15
BRANCH   1  28
ATOM     28  C   UNL     1       0.998  -2.136  -1.325  0.00  0.00    +0.072 C 
ATOM     29  C   UNL     1      -0.395  -1.726  -1.808  0.00  0.00    +0.017 C 
BRANCH  28  30
ATOM     30  C   UNL     1       1.734  -0.908  -0.786  0.00  0.00    +0.012 C 
BRANCH  30  32
ATOM     31  C   UNL     1       1.748   0.844   0.995  0.00  0.00    +0.004 C 
ATOM     32  C   UNL     1       1.012  -0.385   0.457  0.00  0.00    -0.003 C 
ENDBRANCH  30  32
ENDBRANCH  28  30
ENDBRANCH   1  28
TORSDOF 5
