REMARK  Name = ZINC33604502
REMARK  13 active torsions:
REMARK  status: ('A' for Active; 'I' for Inactive)
REMARK    1  A    between atoms: C_1  and  C_2
REMARK    2  A    between atoms: C_2  and  C_4
REMARK    3  A    between atoms: C_2  and  N_17
REMARK    4  A    between atoms: N_14  and  C_15
REMARK    5  A    between atoms: N_17  and  C_18
REMARK    6  A    between atoms: C_18  and  C_19
REMARK    7  A    between atoms: C_19  and  C_20
REMARK    8  A    between atoms: C_20  and  C_21
REMARK    9  A    between atoms: C_21  and  C_22
REMARK   10  A    between atoms: C_22  and  C_23
REMARK   11  A    between atoms: C_23  and  N_24
REMARK   12  A    between atoms: N_27  and  C_28
REMARK   13  A    between atoms: C_31  and  N_34
REMARK                            x       y       z     vdW  Elec       q    Type
REMARK                         _______ _______ _______ _____ _____    ______ ____
ROOT
ATOM      1  N   UNL     1       2.232   5.423   0.291  0.00  0.00    -0.276 N 
ATOM      2  C   UNL     1       2.152   4.080   0.208  0.00  0.00    +0.307 C 
ATOM      3  O   UNL     1       3.161   3.406   0.275  0.00  0.00    -0.252 OA
ATOM      4  N   UNL     1       0.952   3.485   0.052  0.00  0.00    -0.269 N 
ATOM      5  H   UNL     1       0.049   4.097  -0.090  0.00  0.00    +0.156 HD
ENDROOT
BRANCH   4   6
ATOM      6  C   UNL     1       0.856   2.089   0.071  0.00  0.00    +0.035 A 
ATOM      7  C   UNL     1       1.876   1.314  -0.465  0.00  0.00    +0.025 A 
ATOM      8  C   UNL     1       1.779  -0.063  -0.444  0.00  0.00    +0.034 A 
ATOM      9  C   UNL     1       0.667  -0.671   0.110  0.00  0.00    +0.126 A 
ATOM     10  C   UNL     1      -0.350   0.098   0.644  0.00  0.00    +0.034 A 
ATOM     11  C   UNL     1      -0.259   1.476   0.627  0.00  0.00    +0.025 A 
BRANCH   9  12
ATOM     12  N   UNL     1       0.565  -2.147   0.130  0.00  0.00    +0.056 N 
ATOM     13  O   UNL     1       1.460  -2.826  -0.341  0.00  0.00    -0.126 OA
ATOM     14  O   UNL     1      -0.413  -2.684   0.618  0.00  0.00    -0.126 OA
ENDBRANCH   9  12
ENDBRANCH   4   6
BRANCH   1  16
ATOM     15  C   UNL     1       0.120   5.743   1.482  0.00  0.00    +0.036 C 
ATOM     16  C   UNL     1       1.009   6.229   0.335  0.00  0.00    +0.141 C 
BRANCH  16  17
ATOM     17  C   UNL     1       0.267   6.088  -0.969  0.00  0.00    +0.133 A 
ATOM     18  N   UNL     1       0.586   5.106  -1.756  0.00  0.00    -0.232 NA
ATOM     19  C   UNL     1      -0.042   4.915  -2.943  0.00  0.00    +0.080 A 
ATOM     20  C   UNL     1       0.295   3.857  -3.789  0.00  0.00    +0.048 A 
ATOM     21  C   UNL     1      -0.369   3.707  -4.988  0.00  0.00    +0.043 A 
ATOM     22  C   UNL     1      -1.369   4.596  -5.364  0.00  0.00    +0.021 A 
ATOM     23  C   UNL     1      -1.716   5.640  -4.551  0.00  0.00    +0.017 A 
ATOM     24  C   UNL     1      -1.060   5.813  -3.334  0.00  0.00    +0.065 A 
ATOM     25  C   UNL     1      -1.392   6.917  -2.422  0.00  0.00    +0.262 A 
ATOM     26  O   UNL     1      -2.258   7.727  -2.698  0.00  0.00    -0.267 OA
ATOM     27  N   UNL     1      -0.697   6.999  -1.263  0.00  0.00    -0.298 N 
ATOM     28  C   UNL     1      -0.988   8.079  -0.317  0.00  0.00    +0.154 C 
ATOM     29 CL   UNL     1       0.049   2.392  -6.041  0.00  0.00    -0.083 Cl
ENDBRANCH  16  17
ENDBRANCH   1  16
BRANCH   1  30
ATOM     30  C   UNL     1       3.542   6.077   0.336  0.00  0.00    +0.110 C 
BRANCH  30  31
ATOM     31  C   UNL     1       4.003   6.393  -1.089  0.00  0.00    +0.019 C 
BRANCH  31  32
ATOM     32  C   UNL     1       5.372   7.076  -1.042  0.00  0.00    +0.001 C 
BRANCH  32  33
ATOM     33  C   UNL     1       5.833   7.392  -2.466  0.00  0.00    -0.002 C 
BRANCH  33  34
ATOM     34  C   UNL     1       7.201   8.075  -2.419  0.00  0.00    -0.020 C 
BRANCH  34  35
ATOM     35  C   UNL     1       7.663   8.391  -3.843  0.00  0.00    -0.086 C 
BRANCH  35  36
ATOM     36  N   UNL     1       8.976   9.047  -3.798  0.00  0.00    +0.378 N 
ATOM     37  H   UNL     1       9.308   9.274  -4.822  0.00  0.00    -0.090 HD
ATOM     38  H   UNL     1       9.704   8.377  -3.316  0.00  0.00    -0.090 HD
ATOM     39  H   UNL     1       8.900   9.981  -3.221  0.00  0.00    -0.090 HD
ENDBRANCH  35  36
ENDBRANCH  34  35
ENDBRANCH  33  34
ENDBRANCH  32  33
ENDBRANCH  31  32
ENDBRANCH  30  31
ENDBRANCH   1  30
TORSDOF 11
