REMARK  Name = ZINC20616978
REMARK  10 active torsions:
REMARK  status: ('A' for Active; 'I' for Inactive)
REMARK    1  A    between atoms: C_1  and  C_2
REMARK    2  A    between atoms: C_2  and  O_3
REMARK    3  A    between atoms: O_3  and  C_4
REMARK    4  A    between atoms: C_4  and  C_6
REMARK    5  A    between atoms: C_9  and  N_12
REMARK    6  A    between atoms: C_14  and  C_26
REMARK    7  A    between atoms: C_17  and  C_24
REMARK    8  A    between atoms: C_20  and  C_23
REMARK    9  A    between atoms: C_24  and  O_25
REMARK   10  A    between atoms: N_28  and  C_29
REMARK                            x       y       z     vdW  Elec       q    Type
REMARK                         _______ _______ _______ _____ _____    ______ ____
ROOT
ATOM      1  N   UNL     1       1.202   3.420   0.035  0.00  0.00    -0.325 N 
ATOM      2  C   UNL     1       2.329   4.095   0.136  0.00  0.00    +0.212 A 
ATOM      3  C   UNL     1       2.324   5.567   0.245  0.00  0.00    +0.098 A 
ATOM      4  C   UNL     1       3.403   6.155   0.896  0.00  0.00    +0.030 A 
ATOM      5  C   UNL     1       4.447   5.262   1.403  0.00  0.00    +0.027 A 
ATOM      6  C   UNL     1       5.434   5.710   2.288  0.00  0.00    +0.007 A 
ATOM      7  C   UNL     1       6.383   4.809   2.726  0.00  0.00    +0.117 A 
ATOM      8  N   UNL     1       6.368   3.551   2.325  0.00  0.00    -0.256 NA
ATOM      9  C   UNL     1       5.461   3.082   1.492  0.00  0.00    +0.081 A 
ATOM     10  C   UNL     1       4.466   3.914   0.996  0.00  0.00    +0.159 A 
ATOM     11  O   UNL     1       3.526   3.456   0.137  0.00  0.00    -0.437 OA
ATOM     12  C   UNL     1       5.503   1.634   1.076  0.00  0.00    +0.069 C 
ATOM     13  H   UNL     1       0.246   3.956  -0.047  0.00  0.00    +0.169 HD
ENDROOT
BRANCH   1  17
ATOM     14  C   UNL     1       1.261  -0.706   0.030  0.00  0.00    +0.059 A 
ATOM     15  C   UNL     1       1.251  -0.008   1.244  0.00  0.00    +0.017 A 
ATOM     16  C   UNL     1       1.231   1.356   1.246  0.00  0.00    +0.026 A 
ATOM     17  C   UNL     1       1.222   2.058   0.034  0.00  0.00    +0.042 A 
ATOM     18  C   UNL     1       1.233   1.359  -1.180  0.00  0.00    +0.026 A 
ATOM     19  C   UNL     1       1.252  -0.005  -1.181  0.00  0.00    +0.017 A 
BRANCH  14  20
ATOM     20  C   UNL     1       1.281  -2.178   0.028  0.00  0.00    +0.339 C 
ATOM     21  O   UNL     1       1.289  -2.787   1.080  0.00  0.00    -0.245 OA
BRANCH  20  22
ATOM     22  O   UNL     1       1.291  -2.851  -1.140  0.00  0.00    -0.461 OA
BRANCH  22  24
ATOM     23  C   UNL     1       1.320  -4.884  -2.480  0.00  0.00    +0.048 C 
ATOM     24  C   UNL     1       1.311  -4.301  -1.066  0.00  0.00    +0.229 C 
ENDBRANCH  22  24
ENDBRANCH  20  22
ENDBRANCH  14  20
ENDBRANCH   1  17
BRANCH   3  25
ATOM     25  C   UNL     1       1.223   6.375  -0.309  0.00  0.00    +0.253 C 
ATOM     26  O   UNL     1       1.245   7.587  -0.205  0.00  0.00    -0.270 OA
ATOM     27  N   UNL     1       0.191   5.771  -0.931  0.00  0.00    -0.279 N 
ATOM     28  H   UNL     1       0.134   4.673  -0.962  0.00  0.00    +0.155 HD
BRANCH  27  29
ATOM     29  C   UNL     1      -0.808   6.541  -1.538  0.00  0.00    +0.069 A 
ATOM     30  C   UNL     1      -1.192   7.751  -0.976  0.00  0.00    +0.026 A 
ATOM     31  C   UNL     1      -2.178   8.509  -1.577  0.00  0.00    +0.002 A 
ATOM     32  C   UNL     1      -2.784   8.065  -2.738  0.00  0.00    +0.003 A 
ATOM     33  C   UNL     1      -2.405   6.861  -3.302  0.00  0.00    +0.040 A 
ATOM     34  C   UNL     1      -1.415   6.099  -2.709  0.00  0.00    +0.144 A 
ATOM     35  F   UNL     1      -1.040   4.926  -3.263  0.00  0.00    -0.204 F 
ENDBRANCH  27  29
ENDBRANCH   3  25
BRANCH   6  36
ATOM     36  C   UNL     1       5.461   7.144   2.752  0.00  0.00    +0.193 C 
BRANCH  36  37
ATOM     37  O   UNL     1       6.561   7.335   3.644  0.00  0.00    -0.390 OA
ATOM     38  H   UNL     1       6.743   8.325   4.088  0.00  0.00    +0.210 HD
ENDBRANCH  36  37
ENDBRANCH   6  36
TORSDOF 8
