REMARK  Name = ZINC61397535
REMARK  5 active torsions:
REMARK  status: ('A' for Active; 'I' for Inactive)
REMARK    1  A    between atoms: C_6  and  C_7
REMARK    2  A    between atoms: C_7  and  C_8
REMARK    3  A    between atoms: C_7  and  O_25
REMARK    4  A    between atoms: C_8  and  N_9
REMARK    5  A    between atoms: N_12  and  C_13
REMARK                            x       y       z     vdW  Elec       q    Type
REMARK                         _______ _______ _______ _____ _____    ______ ____
ROOT
ATOM      1  N   UNL     1      -3.312  -1.422  -1.458  0.00  0.00    -0.296 N 
ATOM      2  C   UNL     1      -3.818  -1.907  -2.609  0.00  0.00    +0.304 C 
ATOM      3  O   UNL     1      -3.535  -1.379  -3.668  0.00  0.00    -0.253 OA
ATOM      4  N   UNL     1      -4.639  -2.975  -2.587  0.00  0.00    -0.268 N 
ATOM      5  H   UNL     1      -3.538  -1.842  -0.614  0.00  0.00    +0.150 HD
ATOM      6  H   UNL     1      -4.814  -3.435  -1.751  0.00  0.00    +0.156 HD
ENDROOT
BRANCH   4   7
ATOM      7  C   UNL     1      -5.239  -3.424  -3.773  0.00  0.00    +0.051 A 
ATOM      8  C   UNL     1      -4.552  -3.348  -4.983  0.00  0.00    +0.028 A 
ATOM      9  C   UNL     1      -5.181  -3.802  -6.128  0.00  0.00    +0.043 A 
ATOM     10  C   UNL     1      -6.470  -4.316  -6.034  0.00  0.00    +0.099 A 
ATOM     11  N   UNL     1      -7.093  -4.372  -4.867  0.00  0.00    -0.348 N 
ATOM     12  C   UNL     1      -6.519  -3.953  -3.754  0.00  0.00    +0.107 A 
ATOM     13  N   UNL     1      -7.113  -4.775  -7.180  0.00  0.00    -0.317 N 
ATOM     14  C   UNL     1      -8.519  -5.200  -7.130  0.00  0.00    +0.106 C 
ATOM     15  C   UNL     1      -9.303  -4.436  -8.202  0.00  0.00    +0.019 C 
ATOM     16  C   UNL     1      -8.632  -4.640  -9.562  0.00  0.00    +0.003 C 
ATOM     17  C   UNL     1      -7.207  -4.085  -9.518  0.00  0.00    +0.019 C 
ATOM     18  C   UNL     1      -6.401  -4.840  -8.463  0.00  0.00    +0.106 C 
ATOM     19  H   UNL     1      -7.992  -4.735  -4.828  0.00  0.00    +0.167 HD
ENDBRANCH   4   7
BRANCH   1  20
ATOM     20  C   UNL     1      -2.420  -0.260  -1.482  0.00  0.00    +0.141 C 
BRANCH  20  21
ATOM     21  C   UNL     1      -1.991   0.083  -0.054  0.00  0.00    +0.162 C 
BRANCH  21  27
ATOM     22  C   UNL     1      -1.761   2.553   0.278  0.00  0.00    +0.009 A 
ATOM     23  C   UNL     1      -1.014   3.716   0.268  0.00  0.00    +0.041 A 
ATOM     24  C   UNL     1       0.323   3.676  -0.086  0.00  0.00    +0.158 A 
ATOM     25  C   UNL     1       0.912   2.469  -0.431  0.00  0.00    +0.159 A 
ATOM     26  C   UNL     1       0.162   1.307  -0.420  0.00  0.00    +0.047 A 
ATOM     27  C   UNL     1      -1.174   1.350  -0.066  0.00  0.00    -0.015 A 
ATOM     28  F   UNL     1       2.217   2.428  -0.778  0.00  0.00    -0.202 F 
ATOM     29  F   UNL     1       1.054   4.813  -0.096  0.00  0.00    -0.202 F 
ENDBRANCH  21  27
BRANCH  21  30
ATOM     30  O   UNL     1      -1.205  -0.986   0.477  0.00  0.00    -0.386 OA
ATOM     31  H   UNL     1      -0.400  -1.170  -0.027  0.00  0.00    +0.210 HD
ENDBRANCH  21  30
ENDBRANCH  20  21
ENDBRANCH   1  20
TORSDOF 5
