REMARK  Name = ZINC14023320
REMARK  10 active torsions:
REMARK  status: ('A' for Active; 'I' for Inactive)
REMARK    1  A    between atoms: C_1  and  C_2
REMARK    2  A    between atoms: C_2  and  O_3
REMARK    3  A    between atoms: O_3  and  C_4
REMARK    4  A    between atoms: C_4  and  C_6
REMARK    5  A    between atoms: C_10  and  N_11
REMARK    6  A    between atoms: C_12  and  C_14
REMARK    7  A    between atoms: N_19  and  S_21
REMARK    8  A    between atoms: S_21  and  C_24
REMARK    9  A    between atoms: C_27  and  C_30
REMARK   10  A    between atoms: C_34  and  N_65
REMARK                            x       y       z     vdW  Elec       q    Type
REMARK                         _______ _______ _______ _____ _____    ______ ____
ROOT
ATOM      1  N   UNL     1      -2.482   5.630   0.943  0.00  0.00    -0.279 N 
ATOM      2  C   UNL     1      -1.876   4.987  -0.075  0.00  0.00    +0.222 C 
ATOM      3  O   UNL     1      -1.463   5.614  -1.027  0.00  0.00    -0.275 OA
ATOM      4  H   UNL     1      -2.813   5.130   1.705  0.00  0.00    +0.155 HD
ENDROOT
BRANCH   1   9
ATOM      5  C   UNL     1      -3.230   7.840   1.840  0.00  0.00    +0.091 A 
ATOM      6  C   UNL     1      -3.254   9.262   1.553  0.00  0.00    -0.025 A 
ATOM      7  C   UNL     1      -2.693   9.624   0.377  0.00  0.00    -0.021 A 
ATOM      8  S   UNL     1      -2.131   8.108  -0.341  0.00  0.00    -0.079 S 
ATOM      9  C   UNL     1      -2.634   7.008   0.900  0.00  0.00    +0.086 A 
ATOM     10  C   UNL     1      -2.590  11.014  -0.168  0.00  0.00    -0.036 C 
ATOM     11  C   UNL     1      -3.314  11.687   2.044  0.00  0.00    -0.074 C 
ATOM     12  C   UNL     1      -3.858  10.320   2.469  0.00  0.00    +0.018 C 
ATOM     13  C   UNL     1      -3.330  13.290   0.230  0.00  0.00    -0.096 C 
ATOM     14  N   UNL     1      -3.530  11.871   0.595  0.00  0.00    +0.381 N 
ATOM     15  H   UNL     1      -4.493  11.599   0.363  0.00  0.00    -0.082 HD
BRANCH   5  16
ATOM     16  C   UNL     1      -3.808   7.303   3.074  0.00  0.00    +0.342 C 
ATOM     17  O   UNL     1      -3.120   7.197   4.072  0.00  0.00    -0.245 OA
BRANCH  16  18
ATOM     18  O   UNL     1      -5.103   6.926   3.104  0.00  0.00    -0.461 OA
BRANCH  18  20
ATOM     19  C   UNL     1      -7.084   6.032   4.201  0.00  0.00    +0.048 C 
ATOM     20  C   UNL     1      -5.608   6.403   4.360  0.00  0.00    +0.229 C 
ENDBRANCH  18  20
ENDBRANCH  16  18
ENDBRANCH   5  16
ENDBRANCH   1   9
BRANCH   2  21
ATOM     21  C   UNL     1      -1.712   3.490  -0.028  0.00  0.00    +0.091 C 
ATOM     22  C   UNL     1      -0.878   3.105   1.196  0.00  0.00    +0.015 C 
ATOM     23  C   UNL     1      -0.736   1.583   1.264  0.00  0.00    +0.018 C 
ATOM     24  C   UNL     1      -0.013   1.086   0.008  0.00  0.00    +0.109 C 
ATOM     25  N   UNL     1      -0.729   1.575  -1.178  0.00  0.00    -0.176 NA
ATOM     26  C   UNL     1      -0.997   3.015  -1.297  0.00  0.00    +0.122 C 
BRANCH  25  27
ATOM     27  S   UNL     1      -1.225   0.524  -2.357  0.00  0.00    +0.061 S 
ATOM     28  O   UNL     1      -1.351   1.284  -3.552  0.00  0.00    -0.153 OA
ATOM     29  O   UNL     1      -0.382  -0.616  -2.266  0.00  0.00    -0.153 OA
BRANCH  27  30
ATOM     30  C   UNL     1      -2.847  -0.013  -1.928  0.00  0.00    +0.105 A 
ATOM     31  C   UNL     1      -3.018  -1.140  -1.147  0.00  0.00    +0.029 A 
ATOM     32  C   UNL     1      -4.291  -1.558  -0.806  0.00  0.00    +0.005 A 
ATOM     33  C   UNL     1      -5.393  -0.855  -1.255  0.00  0.00    -0.050 A 
ATOM     34  C   UNL     1      -5.222   0.269  -2.041  0.00  0.00    +0.005 A 
ATOM     35  C   UNL     1      -3.949   0.690  -2.378  0.00  0.00    +0.029 A 
ATOM     36  C   UNL     1      -6.780  -1.314  -0.887  0.00  0.00    +0.044 C 
ENDBRANCH  27  30
ENDBRANCH  25  27
ENDBRANCH   2  21
TORSDOF 7
