REMARK  Name = ZINC23244486
REMARK  12 active torsions:
REMARK  status: ('A' for Active; 'I' for Inactive)
REMARK    1  A    between atoms: C_1  and  C_2
REMARK    2  A    between atoms: C_2  and  O_3
REMARK    3  A    between atoms: O_3  and  C_4
REMARK    4  A    between atoms: C_4  and  C_6
REMARK    5  A    between atoms: C_9  and  S_12
REMARK    6  A    between atoms: S_12  and  N_15
REMARK    7  A    between atoms: N_18  and  C_21
REMARK    8  A    between atoms: C_21  and  C_22
REMARK    9  A    between atoms: C_22  and  N_23
REMARK   10  A    between atoms: C_28  and  C_30
REMARK   11  A    between atoms: C_33  and  O_36
REMARK   12  A    between atoms: O_36  and  C_37
REMARK                            x       y       z     vdW  Elec       q    Type
REMARK                         _______ _______ _______ _____ _____    ______ ____
ROOT
ATOM      1  N   UNL     1       0.385   4.093  -0.824  0.00  0.00    -0.180 NA
ATOM      2  C   UNL     1       1.287   3.529   0.191  0.00  0.00    +0.091 C 
ATOM      3  C   UNL     1       1.346   2.010   0.000  0.00  0.00    -0.061 C 
ATOM      4  N   UNL     1      -0.018   1.465   0.010  0.00  0.00    +0.383 N 
ATOM      5  C   UNL     1      -0.809   1.987  -1.113  0.00  0.00    -0.061 C 
ATOM      6  C   UNL     1      -0.956   3.505  -0.967  0.00  0.00    +0.091 C 
ATOM      7  H   UNL     1      -0.502   1.793   0.942  0.00  0.00    -0.082 HD
ENDROOT
BRANCH   1   8
ATOM      8  S   UNL     1       0.865   5.356  -1.781  0.00  0.00    +0.061 S 
ATOM      9  O   UNL     1      -0.319   6.010  -2.215  0.00  0.00    -0.153 OA
ATOM     10  O   UNL     1       1.894   6.034  -1.073  0.00  0.00    -0.153 OA
BRANCH   8  14
ATOM     11  C   UNL     1       2.792   3.580  -5.478  0.00  0.00    +0.059 A 
ATOM     12  C   UNL     1       1.421   3.843  -5.459  0.00  0.00    +0.017 A 
ATOM     13  C   UNL     1       0.841   4.384  -4.330  0.00  0.00    +0.029 A 
ATOM     14  C   UNL     1       1.614   4.665  -3.218  0.00  0.00    +0.106 A 
ATOM     15  C   UNL     1       2.974   4.412  -3.232  0.00  0.00    +0.029 A 
ATOM     16  C   UNL     1       3.567   3.866  -4.352  0.00  0.00    +0.017 A 
BRANCH  11  17
ATOM     17  C   UNL     1       3.420   3.001  -6.683  0.00  0.00    +0.339 C 
ATOM     18  O   UNL     1       2.743   2.752  -7.660  0.00  0.00    -0.245 OA
BRANCH  17  19
ATOM     19  O   UNL     1       4.743   2.748  -6.697  0.00  0.00    -0.461 OA
BRANCH  19  21
ATOM     20  C   UNL     1       6.797   1.963  -7.744  0.00  0.00    +0.048 C 
ATOM     21  C   UNL     1       5.292   2.178  -7.915  0.00  0.00    +0.229 C 
ENDBRANCH  19  21
ENDBRANCH  17  19
ENDBRANCH  11  17
ENDBRANCH   8  14
ENDBRANCH   1   8
BRANCH   4  22
ATOM     22  C   UNL     1       0.002  -0.004   0.002  0.00  0.00    -0.055 C 
BRANCH  22  23
ATOM     23  C   UNL     1      -1.409  -0.535   0.263  0.00  0.00    +0.129 C 
BRANCH  23  24
ATOM     24  N   UNL     1      -1.389  -2.000   0.255  0.00  0.00    -0.231 N 
ATOM     25  C   UNL     1      -1.159  -2.658   1.407  0.00  0.00    +0.267 A 
ATOM     26  O   UNL     1      -0.971  -2.038   2.442  0.00  0.00    -0.266 OA
ATOM     27  C   UNL     1      -1.143  -4.070   1.410  0.00  0.00    +0.074 A 
ATOM     28  C   UNL     1      -1.354  -4.713   0.226  0.00  0.00    +0.035 A 
ATOM     29  C   UNL     1      -1.581  -3.931  -0.930  0.00  0.00    +0.092 A 
ATOM     30  N   UNL     1      -1.586  -2.621  -0.851  0.00  0.00    -0.168 NA
BRANCH  29  31
ATOM     31  C   UNL     1      -1.815  -4.593  -2.236  0.00  0.00    +0.002 A 
ATOM     32  C   UNL     1      -1.805  -5.984  -2.326  0.00  0.00    +0.013 A 
ATOM     33  C   UNL     1      -2.029  -6.597  -3.541  0.00  0.00    +0.046 A 
ATOM     34  C   UNL     1      -2.253  -5.830  -4.676  0.00  0.00    +0.120 A 
ATOM     35  C   UNL     1      -2.257  -4.444  -4.591  0.00  0.00    +0.046 A 
ATOM     36  C   UNL     1      -2.040  -3.825  -3.378  0.00  0.00    +0.013 A 
BRANCH  34  37
ATOM     37  O   UNL     1      -2.467  -6.436  -5.873  0.00  0.00    -0.495 OA
ATOM     38  C   UNL     1      -2.449  -7.865  -5.888  0.00  0.00    +0.277 C 
ENDBRANCH  34  37
ENDBRANCH  29  31
ENDBRANCH  23  24
ENDBRANCH  22  23
ENDBRANCH   4  22
TORSDOF 10
