REMARK  Name = ZINC66929279
REMARK  10 active torsions:
REMARK  status: ('A' for Active; 'I' for Inactive)
REMARK    1  A    between atoms: C_1  and  C_2
REMARK    2  A    between atoms: C_2  and  C_3
REMARK    3  A    between atoms: C_2  and  C_4
REMARK    4  A    between atoms: C_4  and  C_6
REMARK    5  A    between atoms: C_4  and  N_21
REMARK    6  A    between atoms: N_8  and  C_9
REMARK    7  A    between atoms: C_9  and  C_10
REMARK    8  A    between atoms: C_10  and  O_20
REMARK    9  A    between atoms: C_22  and  C_24
REMARK   10  A    between atoms: C_24  and  C_25
REMARK                            x       y       z     vdW  Elec       q    Type
REMARK                         _______ _______ _______ _____ _____    ______ ____
ROOT
ATOM      1  C   UNL     1       0.250  -0.122  -2.533  0.00  0.00    +0.234 C 
ATOM      2  O   UNL     1      -0.386  -0.878  -3.237  0.00  0.00    -0.274 OA
ATOM      3  N   UNL     1       0.311   1.190  -2.837  0.00  0.00    -0.311 N 
ATOM      4  H   UNL     1       0.758   1.807  -2.235  0.00  0.00    +0.149 HD
ENDROOT
BRANCH   1   5
ATOM      5  C   UNL     1       0.970  -0.648  -1.319  0.00  0.00    +0.161 C 
BRANCH   5   6
ATOM      6  N   UNL     1       1.167  -2.094  -1.456  0.00  0.00    -0.303 N 
ATOM      7  C   UNL     1       2.176  -2.702  -0.802  0.00  0.00    +0.218 C 
ATOM      8  O   UNL     1       2.922  -2.053  -0.100  0.00  0.00    -0.275 OA
ATOM      9  H   UNL     1       0.570  -2.613  -2.018  0.00  0.00    +0.149 HD
BRANCH   7  10
ATOM     10  C   UNL     1       2.378  -4.188  -0.944  0.00  0.00    +0.130 C 
BRANCH  10  11
ATOM     11  C   UNL     1       3.565  -4.615  -0.118  0.00  0.00    -0.039 A 
ATOM     12  C   UNL     1       4.830  -4.618  -0.676  0.00  0.00    +0.004 A 
ATOM     13  C   UNL     1       5.918  -5.009   0.081  0.00  0.00    +0.000 A 
ATOM     14  C   UNL     1       5.742  -5.397   1.397  0.00  0.00    +0.000 A 
ATOM     15  C   UNL     1       4.477  -5.393   1.954  0.00  0.00    +0.000 A 
ATOM     16  C   UNL     1       3.389  -4.998   1.198  0.00  0.00    +0.004 A 
ENDBRANCH  10  11
ENDBRANCH   7  10
ENDBRANCH   5   6
BRANCH   5  18
ATOM     17  C   UNL     1      -1.171  -1.155  -0.136  0.00  0.00    +0.009 C 
ATOM     18  C   UNL     1       0.136  -0.364  -0.068  0.00  0.00    +0.012 C 
ATOM     19  C   UNL     1       0.923  -0.784   1.176  0.00  0.00    +0.009 C 
ENDBRANCH   5  18
ENDBRANCH   1   5
BRANCH   3  20
ATOM     20  C   UNL     1      -0.296   1.684  -4.075  0.00  0.00    +0.143 C 
BRANCH  20  21
ATOM     21  C   UNL     1      -0.012   3.181  -4.220  0.00  0.00    +0.107 C 
ATOM     22  C   UNL     1      -0.479   3.906  -2.959  0.00  0.00    +0.041 C 
ATOM     23  C   UNL     1      -0.389   5.416  -3.208  0.00  0.00    +0.008 C 
ATOM     24  C   UNL     1      -1.468   5.802  -4.218  0.00  0.00    +0.035 C 
ATOM     25  C   UNL     1      -1.400   4.914  -5.432  0.00  0.00    -0.041 A 
ATOM     26  C   UNL     1      -0.734   3.708  -5.432  0.00  0.00    -0.011 A 
ATOM     27  C   UNL     1      -0.715   2.933  -6.584  0.00  0.00    +0.007 A 
ATOM     28  C   UNL     1      -1.353   3.363  -7.729  0.00  0.00    +0.000 A 
ATOM     29  C   UNL     1      -2.018   4.575  -7.731  0.00  0.00    +0.000 A 
ATOM     30  C   UNL     1      -2.040   5.346  -6.586  0.00  0.00    +0.004 A 
BRANCH  21  31
ATOM     31  O   UNL     1       1.393   3.381  -4.385  0.00  0.00    -0.382 OA
ATOM     32  H   UNL     1       1.764   2.941  -5.162  0.00  0.00    +0.211 HD
ENDBRANCH  21  31
ENDBRANCH  20  21
ENDBRANCH   3  20
TORSDOF 8
