REMARK  Name = ZINC19992647
REMARK  8 active torsions:
REMARK  status: ('A' for Active; 'I' for Inactive)
REMARK    1  A    between atoms: C_1  and  C_2
REMARK    2  A    between atoms: C_2  and  N_3
REMARK    3  A    between atoms: C_7  and  C_9
REMARK    4  A    between atoms: C_9  and  N_10
REMARK    5  A    between atoms: N_10  and  S_11
REMARK    6  A    between atoms: S_11  and  C_14
REMARK    7  A    between atoms: C_16  and  N_22
REMARK    8  A    between atoms: C_17  and  C_21
REMARK                            x       y       z     vdW  Elec       q    Type
REMARK                         _______ _______ _______ _____ _____    ______ ____
ROOT
ATOM      1  S   UNL     1      -0.796   2.541  -0.156  0.00  0.00    +0.058 S 
ATOM      2  O   UNL     1      -0.640   3.866  -0.643  0.00  0.00    -0.153 OA
ATOM      3  O   UNL     1      -1.572   1.565  -0.837  0.00  0.00    -0.153 OA
ENDROOT
BRANCH   1   4
ATOM      4  C   UNL     1       0.825   1.870   0.007  0.00  0.00    +0.108 A 
ATOM      5  C   UNL     1       1.908   2.714   0.158  0.00  0.00    +0.051 A 
ATOM      6  C   UNL     1       3.187   2.186   0.281  0.00  0.00    +0.031 A 
ATOM      7  C   UNL     1       3.373   0.809   0.251  0.00  0.00    -0.011 A 
ATOM      8  C   UNL     1       2.285  -0.029   0.100  0.00  0.00    +0.047 A 
ATOM      9  C   UNL     1       1.012   0.501  -0.023  0.00  0.00    +0.049 A 
ATOM     10 CL   UNL     1       2.515  -1.750   0.062  0.00  0.00    -0.083 Cl
ATOM     11  C   UNL     1       4.758   0.232   0.385  0.00  0.00    +0.047 C 
BRANCH   6  12
ATOM     12  N   UNL     1       4.284   3.037   0.434  0.00  0.00    -0.358 N 
ATOM     13  H   UNL     1       5.296   2.617   0.531  0.00  0.00    +0.142 HD
ATOM     14  H   UNL     1       4.136   4.126   0.458  0.00  0.00    +0.142 HD
ENDBRANCH   6  12
ENDBRANCH   1   4
BRANCH   1  15
ATOM     15  N   UNL     1      -1.429   2.668   1.369  0.00  0.00    -0.191 NA
ATOM     16  H   UNL     1      -2.192   1.946   1.697  0.00  0.00    +0.148 HD
BRANCH  15  17
ATOM     17  C   UNL     1      -0.825   3.586   2.338  0.00  0.00    +0.090 C 
BRANCH  17  22
ATOM     18  N   UNL     1      -1.197   4.731   4.503  0.00  0.00    +0.382 N 
ATOM     19  C   UNL     1      -2.370   5.261   5.246  0.00  0.00    -0.078 C 
ATOM     20  C   UNL     1      -3.456   5.468   4.168  0.00  0.00    -0.020 C 
ATOM     21  C   UNL     1      -3.073   4.506   3.024  0.00  0.00    -0.016 C 
ATOM     22  C   UNL     1      -1.788   3.800   3.507  0.00  0.00    -0.053 C 
ATOM     23  H   UNL     1      -0.594   5.524   4.038  0.00  0.00    -0.081 HD
BRANCH  18  25
ATOM     24  C   UNL     1       0.592   5.042   6.145  0.00  0.00    -0.017 C 
ATOM     25  C   UNL     1      -0.276   4.024   5.402  0.00  0.00    -0.082 C 
ENDBRANCH  18  25
ENDBRANCH  17  22
ENDBRANCH  15  17
ENDBRANCH   1  15
TORSDOF 6
