REMARK  Name = ZINC03084920
REMARK  8 active torsions:
REMARK  status: ('A' for Active; 'I' for Inactive)
REMARK    1  A    between atoms: C_8  and  C_10
REMARK    2  A    between atoms: C_13  and  N_17
REMARK    3  A    between atoms: C_15  and  O_16
REMARK    4  A    between atoms: C_18  and  C_19
REMARK    5  A    between atoms: C_22  and  O_25
REMARK    6  A    between atoms: O_25  and  C_26
REMARK    7  A    between atoms: C_29  and  N_35
REMARK    8  A    between atoms: C_31  and  N_32
REMARK                            x       y       z     vdW  Elec       q    Type
REMARK                         _______ _______ _______ _____ _____    ______ ____
ROOT
ATOM      1  N   UNL     1      -1.060  -0.911   0.212  0.00  0.00    -0.255 NA
ATOM      2  C   UNL     1      -2.039  -0.523   0.983  0.00  0.00    +0.119 C 
ENDROOT
BRANCH   1   6
ATOM      3  C   UNL     1       2.560   1.093   0.309  0.00  0.00    +0.049 A 
ATOM      4  C   UNL     1       1.359   1.808   0.274  0.00  0.00    +0.016 A 
ATOM      5  C   UNL     1       0.167   1.145   0.242  0.00  0.00    +0.028 A 
ATOM      6  C   UNL     1       0.137  -0.253   0.244  0.00  0.00    +0.067 A 
ATOM      7  C   UNL     1       1.331  -0.978   0.279  0.00  0.00    +0.073 A 
ATOM      8  C   UNL     1       2.540  -0.309   0.311  0.00  0.00    +0.129 A 
BRANCH   3  16
ATOM      9  C   UNL     1       6.992   5.363   0.429  0.00  0.00    +0.002 A 
ATOM     10  C   UNL     1       8.010   4.420   0.460  0.00  0.00    +0.001 A 
ATOM     11  C   UNL     1       7.689   3.075   0.454  0.00  0.00    +0.017 A 
ATOM     12  C   UNL     1       6.369   2.697   0.416  0.00  0.00    +0.040 A 
ATOM     13  C   UNL     1       5.309   3.634   0.384  0.00  0.00    +0.079 A 
ATOM     14  C   UNL     1       5.682   4.999   0.392  0.00  0.00    +0.029 A 
ATOM     15  N   UNL     1       4.068   3.111   0.349  0.00  0.00    -0.239 NA
ATOM     16  C   UNL     1       3.847   1.813   0.345  0.00  0.00    +0.113 A 
ATOM     17  S   UNL     1       5.504   1.145   0.401  0.00  0.00    -0.067 S 
ENDBRANCH   3  16
BRANCH   8  18
ATOM     18  O   UNL     1       3.704  -1.007   0.345  0.00  0.00    -0.506 OA
ATOM     19  H   UNL     1       3.686  -2.107   0.347  0.00  0.00    +0.292 HD
ENDBRANCH   8  18
ENDBRANCH   1   6
BRANCH   2  20
ATOM     20  C   UNL     1      -3.327  -1.231   0.948  0.00  0.00    -0.007 A 
ATOM     21  C   UNL     1      -3.508  -2.317   0.085  0.00  0.00    +0.013 A 
ATOM     22  C   UNL     1      -4.715  -2.979   0.059  0.00  0.00    +0.047 A 
ATOM     23  C   UNL     1      -5.756  -2.564   0.882  0.00  0.00    +0.129 A 
ATOM     24  C   UNL     1      -5.583  -1.482   1.737  0.00  0.00    +0.047 A 
ATOM     25  C   UNL     1      -4.378  -0.816   1.774  0.00  0.00    +0.013 A 
BRANCH  23  26
ATOM     26  O   UNL     1      -6.946  -3.217   0.849  0.00  0.00    -0.454 OA
BRANCH  26  27
ATOM     27  C   UNL     1      -7.108  -4.200  -0.074  0.00  0.00    +0.159 A 
ATOM     28  C   UNL     1      -7.669  -3.908  -1.310  0.00  0.00    +0.051 A 
ATOM     29  C   UNL     1      -7.833  -4.910  -2.246  0.00  0.00    +0.036 A 
ATOM     30  C   UNL     1      -7.439  -6.203  -1.954  0.00  0.00    +0.129 A 
ATOM     31  C   UNL     1      -6.880  -6.496  -0.724  0.00  0.00    +0.069 A 
ATOM     32  C   UNL     1      -6.709  -5.497   0.215  0.00  0.00    +0.170 A 
BRANCH  32  33
ATOM     33  N   UNL     1      -6.106  -5.811   1.529  0.00  0.00    +0.060 N 
ATOM     34  O   UNL     1      -5.755  -6.950   1.782  0.00  0.00    -0.126 OA
ATOM     35  O   UNL     1      -5.959  -4.931   2.358  0.00  0.00    -0.126 OA
ENDBRANCH  32  33
BRANCH  30  36
ATOM     36  N   UNL     1      -7.616  -7.274  -2.960  0.00  0.00    +0.057 N 
ATOM     37  O   UNL     1      -8.108  -7.017  -4.044  0.00  0.00    -0.126 OA
ATOM     38  O   UNL     1      -7.269  -8.414  -2.703  0.00  0.00    -0.126 OA
ENDBRANCH  30  36
ENDBRANCH  26  27
ENDBRANCH  23  26
ENDBRANCH   2  20
TORSDOF 8
