REMARK  Name = ZINC39638459
REMARK  13 active torsions:
REMARK  status: ('A' for Active; 'I' for Inactive)
REMARK    1  A    between atoms: C_1  and  C_2
REMARK    2  A    between atoms: C_2  and  C_3
REMARK    3  A    between atoms: C_3  and  C_4
REMARK    4  A    between atoms: C_4  and  C_5
REMARK    5  A    between atoms: C_5  and  C_7
REMARK    6  A    between atoms: C_5  and  C_8
REMARK    7  A    between atoms: C_12  and  C_21
REMARK    8  A    between atoms: N_23  and  C_24
REMARK    9  A    between atoms: C_24  and  C_25
REMARK   10  A    between atoms: C_29  and  O_33
REMARK   11  A    between atoms: C_30  and  O_31
REMARK   12  A    between atoms: O_31  and  C_32
REMARK   13  A    between atoms: O_33  and  C_34
REMARK                            x       y       z     vdW  Elec       q    Type
REMARK                         _______ _______ _______ _____ _____    ______ ____
ROOT
ATOM      1  C   UNL     1       1.871  -4.281   2.456  0.00  0.00    +0.218 C 
ATOM      2  O   UNL     1       1.579  -4.954   1.490  0.00  0.00    -0.275 OA
ATOM      3  N   UNL     1       2.325  -4.875   3.578  0.00  0.00    -0.300 N 
ATOM      4  C   UNL     1       2.625  -4.240   4.883  0.00  0.00    +0.121 C 
ATOM      5  C   UNL     1       2.123  -5.256   5.935  0.00  0.00    +0.100 C 
ATOM      6  C   UNL     1       2.135  -6.611   5.208  0.00  0.00    -0.004 C 
ATOM      7  C   UNL     1       2.630  -6.310   3.787  0.00  0.00    +0.115 C 
ATOM      8  C   UNL     1       0.726  -7.195   5.157  0.00  0.00    -0.010 C 
ATOM      9  C   UNL     1       0.773  -8.569   4.481  0.00  0.00    -0.082 C 
ATOM     10  N   UNL     1       1.665  -9.457   5.235  0.00  0.00    +0.379 N 
ATOM     11  C   UNL     1       3.037  -8.935   5.201  0.00  0.00    -0.082 C 
ATOM     12  C   UNL     1       3.086  -7.577   5.907  0.00  0.00    -0.010 C 
ATOM     13  H   UNL     1       1.352  -9.513   6.193  0.00  0.00    -0.086 HD
ATOM     14  H   UNL     1       1.647 -10.378   4.824  0.00  0.00    -0.086 HD
ENDROOT
BRANCH   5  15
ATOM     15  C   UNL     1       3.053  -5.285   7.121  0.00  0.00    +0.218 C 
ATOM     16  O   UNL     1       4.229  -5.030   6.975  0.00  0.00    -0.275 OA
ATOM     17  N   UNL     1       2.576  -5.595   8.343  0.00  0.00    -0.311 N 
ATOM     18  H   UNL     1       1.635  -5.799   8.459  0.00  0.00    +0.149 HD
BRANCH  17  19
ATOM     19  C   UNL     1       3.480  -5.624   9.495  0.00  0.00    +0.143 C 
BRANCH  19  20
ATOM     20  C   UNL     1       2.704  -5.995  10.733  0.00  0.00    +0.015 A 
ATOM     21  C   UNL     1       2.295  -5.010  11.614  0.00  0.00    +0.009 A 
ATOM     22  C   UNL     1       1.583  -5.347  12.749  0.00  0.00    +0.004 A 
ATOM     23  C   UNL     1       1.277  -6.670  13.011  0.00  0.00    +0.049 A 
ATOM     24  C   UNL     1       1.684  -7.661  12.133  0.00  0.00    +0.162 A 
ATOM     25  C   UNL     1       2.396  -7.321  10.985  0.00  0.00    +0.166 A 
BRANCH  25  26
ATOM     26  O   UNL     1       2.792  -8.290  10.118  0.00  0.00    -0.491 OA
ATOM     27  C   UNL     1       4.072  -8.883  10.348  0.00  0.00    +0.277 C 
ENDBRANCH  25  26
BRANCH  24  28
ATOM     28  O   UNL     1       1.384  -8.963  12.388  0.00  0.00    -0.491 OA
ATOM     29  C   UNL     1       0.646  -9.237  13.581  0.00  0.00    +0.277 C 
ENDBRANCH  24  28
ENDBRANCH  19  20
ENDBRANCH  17  19
ENDBRANCH   5  15
BRANCH   1  30
ATOM     30  C   UNL     1       1.726  -2.782   2.403  0.00  0.00    +0.072 C 
ATOM     31  C   UNL     1       0.317  -2.389   2.853  0.00  0.00    +0.017 C 
BRANCH  30  32
ATOM     32  C   UNL     1       1.957  -2.298   0.970  0.00  0.00    +0.012 C 
BRANCH  32  33
ATOM     33  C   UNL     1       1.933  -0.769   0.938  0.00  0.00    +0.000 C 
BRANCH  33  35
ATOM     34  C   UNL     1       2.141   1.244  -0.527  0.00  0.00    +0.004 C 
ATOM     35  C   UNL     1       2.164  -0.285  -0.495  0.00  0.00    -0.003 C 
ENDBRANCH  33  35
ENDBRANCH  32  33
ENDBRANCH  30  32
ENDBRANCH   1  30
TORSDOF 9
