REMARK  Name = ZINC39315483
REMARK  7 active torsions:
REMARK  status: ('A' for Active; 'I' for Inactive)
REMARK    1  A    between atoms: C_1  and  O_2
REMARK    2  A    between atoms: O_2  and  C_3
REMARK    3  A    between atoms: C_5  and  C_11
REMARK    4  A    between atoms: C_7  and  O_9
REMARK    5  A    between atoms: O_9  and  C_10
REMARK    6  A    between atoms: C_26  and  N_30
REMARK    7  A    between atoms: C_27  and  C_28
REMARK                            x       y       z     vdW  Elec       q    Type
REMARK                         _______ _______ _______ _____ _____    ______ ____
ROOT
ATOM      1  C   UNL     1      -2.533  -4.175   0.015  0.00  0.00    +0.084 C 
ATOM      2  C   UNL     1      -3.280  -4.655  -1.234  0.00  0.00    +0.154 C 
ATOM      3  C   UNL     1      -3.636  -6.106  -0.957  0.00  0.00    +0.129 C 
ATOM      4  C   UNL     1      -3.154  -7.073  -1.826  0.00  0.00    +0.035 A 
ATOM      5  C   UNL     1      -3.458  -8.438  -1.645  0.00  0.00    +0.013 A 
ATOM      6  C   UNL     1      -2.972  -9.357  -2.523  0.00  0.00    +0.001 A 
ATOM      7  C   UNL     1      -2.177  -8.979  -3.600  0.00  0.00    +0.002 A 
ATOM      8  C   UNL     1      -1.846  -7.676  -3.826  0.00  0.00    +0.024 A 
ATOM      9  C   UNL     1      -2.311  -6.673  -2.960  0.00  0.00    +0.044 A 
ATOM     10  N   UNL     1      -1.980  -5.395  -3.177  0.00  0.00    -0.284 N 
ATOM     11  C   UNL     1      -2.392  -4.373  -2.425  0.00  0.00    +0.229 C 
ATOM     12  O   UNL     1      -2.057  -3.231  -2.678  0.00  0.00    -0.275 OA
ATOM     13  O   UNL     1      -4.382  -6.387   0.114  0.00  0.00    -0.444 OA
ATOM     14  C   UNL     1      -4.100  -5.698   1.246  0.00  0.00    +0.198 C 
ATOM     15  C   UNL     1      -3.249  -4.650   1.249  0.00  0.00    +0.095 C 
ATOM     16  H   UNL     1      -1.409  -5.194  -3.934  0.00  0.00    +0.155 HD
ENDROOT
BRANCH   1  19
ATOM     17  C   UNL     1      -1.200  -0.637   0.010  0.00  0.00    +0.124 A 
ATOM     18  C   UNL     1      -1.255  -2.024   0.009  0.00  0.00    +0.050 A 
ATOM     19  C   UNL     1      -2.477  -2.669   0.017  0.00  0.00    -0.031 A 
ATOM     20  C   UNL     1      -3.647  -1.935   0.025  0.00  0.00    +0.050 A 
ATOM     21  C   UNL     1      -3.598  -0.548   0.027  0.00  0.00    +0.124 A 
ATOM     22  C   UNL     1      -2.373   0.101   0.025  0.00  0.00    +0.091 A 
BRANCH  17  24
ATOM     23  C   UNL     1      -0.017   1.425   0.010  0.00  0.00    +0.277 C 
ATOM     24  O   UNL     1       0.002  -0.004   0.002  0.00  0.00    -0.495 OA
ENDBRANCH  17  24
BRANCH  21  25
ATOM     25  O   UNL     1      -4.750   0.173   0.036  0.00  0.00    -0.495 OA
ATOM     26  C   UNL     1      -4.624   1.597   0.037  0.00  0.00    +0.277 C 
ENDBRANCH  21  25
ENDBRANCH   1  19
BRANCH  14  27
ATOM     27  N   UNL     1      -4.697  -6.077   2.423  0.00  0.00    -0.328 N 
ATOM     28  H   UNL     1      -5.311  -6.827   2.436  0.00  0.00    +0.145 HD
ATOM     29  H   UNL     1      -4.505  -5.593   3.242  0.00  0.00    +0.145 HD
ENDBRANCH  14  27
BRANCH  15  30
ATOM     30  C   UNL     1      -3.018  -3.961   2.483  0.00  0.00    +0.100 C 
ATOM     31  N   UNL     1      -2.834  -3.415   3.462  0.00  0.00    -0.191 NA
ENDBRANCH  15  30
TORSDOF 5
