REMARK  Name = ZINC43226721
REMARK  10 active torsions:
REMARK  status: ('A' for Active; 'I' for Inactive)
REMARK    1  A    between atoms: C_1  and  C_2
REMARK    2  A    between atoms: C_2  and  C_3
REMARK    3  A    between atoms: C_3  and  C_4
REMARK    4  A    between atoms: C_4  and  C_6
REMARK    5  A    between atoms: C_4  and  N_27
REMARK    6  A    between atoms: C_8  and  C_11
REMARK    7  A    between atoms: N_13  and  C_14
REMARK    8  A    between atoms: C_14  and  C_15
REMARK    9  A    between atoms: C_24  and  C_25
REMARK   10  A    between atoms: C_24  and  C_26
REMARK                            x       y       z     vdW  Elec       q    Type
REMARK                         _______ _______ _______ _____ _____    ______ ____
ROOT
ATOM      1  C   UNL     1       0.855  -3.897  -5.982  0.00  0.00    +0.263 C 
ATOM      2  O   UNL     1       1.534  -4.218  -6.938  0.00  0.00    -0.269 OA
ATOM      3  N   UNL     1      -0.477  -4.099  -6.002  0.00  0.00    -0.310 N 
ATOM      4  H   UNL     1      -1.018  -3.842  -5.239  0.00  0.00    +0.149 HD
ENDROOT
BRANCH   1   7
ATOM      5  C   UNL     1       1.416  -2.384  -2.721  0.00  0.00    +0.065 A 
ATOM      6  N   UNL     1       0.782  -2.918  -3.728  0.00  0.00    -0.241 NA
ATOM      7  C   UNL     1       1.489  -3.286  -4.801  0.00  0.00    +0.133 A 
ATOM      8  C   UNL     1       2.839  -3.063  -4.737  0.00  0.00    +0.079 A 
ATOM      9  S   UNL     1       3.018  -2.364  -3.220  0.00  0.00    -0.081 S 
BRANCH   5  10
ATOM     10  C   UNL     1       0.843  -1.893  -1.416  0.00  0.00    -0.018 C 
BRANCH  10  11
ATOM     11  N   UNL     1       1.685  -2.358  -0.306  0.00  0.00    +0.384 N 
ATOM     12  H   UNL     1       1.302  -2.030   0.568  0.00  0.00    -0.089 HD
ATOM     13  H   UNL     1       1.713  -3.366  -0.303  0.00  0.00    -0.089 HD
ATOM     14  H   UNL     1       2.620  -1.996  -0.419  0.00  0.00    -0.089 HD
ENDBRANCH  10  11
BRANCH  10  15
ATOM     15  C   UNL     1       0.801  -0.364  -1.420  0.00  0.00    -0.010 C 
BRANCH  15  17
ATOM     16  C   UNL     1       0.065   1.660  -0.153  0.00  0.00    +0.004 C 
ATOM     17  C   UNL     1       0.106   0.130  -0.150  0.00  0.00    -0.005 C 
ENDBRANCH  15  17
ENDBRANCH  10  15
ENDBRANCH   5  10
ENDBRANCH   1   7
BRANCH   3  18
ATOM     18  C   UNL     1      -1.108  -4.706  -7.176  0.00  0.00    +0.108 C 
BRANCH  18  19
ATOM     19  C   UNL     1      -2.616  -4.822  -6.943  0.00  0.00    +0.010 C 
ATOM     20  C   UNL     1      -2.889  -5.810  -5.800  0.00  0.00    +0.005 C 
ATOM     21  C   UNL     1      -4.380  -6.174  -5.812  0.00  0.00    +0.004 C 
ATOM     22  C   UNL     1      -4.782  -6.496  -7.263  0.00  0.00    -0.005 C 
ATOM     23  C   UNL     1      -3.546  -6.878  -8.103  0.00  0.00    +0.008 C 
ATOM     24  C   UNL     1      -3.299  -5.358  -8.213  0.00  0.00    -0.000 C 
ATOM     25  C   UNL     1      -4.848  -5.217  -8.119  0.00  0.00    -0.029 C 
ATOM     26  C   UNL     1      -5.324  -3.982  -7.350  0.00  0.00    +0.011 C 
ATOM     27  C   UNL     1      -5.566  -5.405  -9.457  0.00  0.00    +0.011 C 
ENDBRANCH  18  19
ENDBRANCH   3  18
TORSDOF 7
