REMARK  Name = ZINC43264676
REMARK  10 active torsions:
REMARK  status: ('A' for Active; 'I' for Inactive)
REMARK    1  A    between atoms: C_1  and  C_2
REMARK    2  A    between atoms: C_2  and  C_3
REMARK    3  A    between atoms: C_3  and  C_5
REMARK    4  A    between atoms: C_3  and  N_22
REMARK    5  A    between atoms: C_5  and  C_7
REMARK    6  A    between atoms: C_5  and  O_13
REMARK    7  A    between atoms: O_13  and  C_14
REMARK    8  A    between atoms: C_14  and  C_15
REMARK    9  A    between atoms: C_15  and  C_16
REMARK   10  A    between atoms: C_17  and  C_21
REMARK                            x       y       z     vdW  Elec       q    Type
REMARK                         _______ _______ _______ _____ _____    ______ ____
ROOT
ATOM      1  C   UNL     1      -1.411  -2.045  -0.138  0.00  0.00    +0.140 C 
ENDROOT
BRANCH   1   2
ATOM      2  C   UNL     1      -0.872  -2.430  -1.491  0.00  0.00    +0.018 A 
ATOM      3  C   UNL     1       0.372  -2.853  -1.825  0.00  0.00    +0.015 A 
ATOM      4  C   UNL     1       0.645  -3.155  -3.146  0.00  0.00    +0.023 A 
ATOM      5  C   UNL     1      -0.339  -3.018  -4.069  0.00  0.00    +0.055 A 
ATOM      6  S   UNL     1      -1.707  -2.456  -3.069  0.00  0.00    -0.084 S 
ATOM      7 BR   UNL     1      -0.281  -3.346  -5.930  0.00  0.00    -0.043 Br
ENDBRANCH   1   2
BRANCH   1   8
ATOM      8  C   UNL     1      -1.427  -0.520  -0.010  0.00  0.00    -0.041 C 
BRANCH   8   9
ATOM      9  N   UNL     1      -2.080  -0.141   1.250  0.00  0.00    +0.382 N 
ATOM     10  H   UNL     1      -2.165   0.864   1.295  0.00  0.00    -0.090 HD
ATOM     11  H   UNL     1      -2.997  -0.559   1.293  0.00  0.00    -0.090 HD
ATOM     12  H   UNL     1      -1.525  -0.467   2.027  0.00  0.00    -0.090 HD
ENDBRANCH   8   9
BRANCH   8  14
ATOM     13  C   UNL     1      -0.009   1.537  -0.018  0.00  0.00    +0.002 C 
ATOM     14  C   UNL     1       0.009   0.007  -0.020  0.00  0.00    -0.017 C 
ENDBRANCH   8  14
ENDBRANCH   1   8
BRANCH   1  15
ATOM     15  O   UNL     1      -2.741  -2.549   0.006  0.00  0.00    -0.373 OA
BRANCH  15  16
ATOM     16  C   UNL     1      -2.814  -3.821   0.653  0.00  0.00    +0.166 C 
BRANCH  16  17
ATOM     17  C   UNL     1      -4.280  -4.203   0.862  0.00  0.00    +0.072 C 
BRANCH  17  18
ATOM     18  C   UNL     1      -4.357  -5.544   1.545  0.00  0.00    +0.014 A 
ATOM     19  C   UNL     1      -4.398  -5.843   2.869  0.00  0.00    +0.049 A 
ATOM     20  N   UNL     1      -4.464  -7.119   3.192  0.00  0.00    -0.252 NA
ATOM     21  C   UNL     1      -4.490  -8.054   2.275  0.00  0.00    +0.156 A 
ATOM     22  S   UNL     1      -4.429  -7.182   0.836  0.00  0.00    -0.080 S 
ATOM     23  C   UNL     1      -4.367  -4.764   3.921  0.00  0.00    +0.066 C 
ENDBRANCH  17  18
ENDBRANCH  16  17
ENDBRANCH  15  16
ENDBRANCH   1  15
TORSDOF 8
