REMARK  Name = ZINC59170455
REMARK  8 active torsions:
REMARK  status: ('A' for Active; 'I' for Inactive)
REMARK    1  A    between atoms: C_1  and  C_2
REMARK    2  A    between atoms: C_7  and  N_8
REMARK    3  A    between atoms: C_9  and  C_11
REMARK    4  A    between atoms: C_16  and  O_32
REMARK    5  A    between atoms: N_21  and  C_22
REMARK    6  A    between atoms: C_25  and  S_28
REMARK    7  A    between atoms: S_28  and  N_31
REMARK    8  A    between atoms: O_32  and  C_33
REMARK                            x       y       z     vdW  Elec       q    Type
REMARK                         _______ _______ _______ _____ _____    ______ ____
ROOT
ATOM      1  C   UNL     1      -0.230   0.031   4.819  0.00  0.00    +0.098 A 
ATOM      2  C   UNL     1      -0.196  -0.661   6.022  0.00  0.00    +0.030 A 
ATOM      3  C   UNL     1      -0.268   0.086   7.226  0.00  0.00    +0.018 A 
ATOM      4  C   UNL     1      -0.037  -0.537   8.462  0.00  0.00    +0.015 A 
ATOM      5  C   UNL     1      -0.067   0.199   9.610  0.00  0.00    +0.046 A 
ATOM      6  C   UNL     1      -0.333   1.567   9.566  0.00  0.00    +0.124 A 
ATOM      7  C   UNL     1      -0.583   2.196   8.356  0.00  0.00    +0.092 A 
ATOM      8  C   UNL     1      -0.564   1.462   7.181  0.00  0.00    +0.141 A 
ATOM      9  O   UNL     1      -0.849   2.059   5.997  0.00  0.00    -0.438 OA
ATOM     10  C   UNL     1      -0.299   1.504   4.884  0.00  0.00    +0.212 A 
ATOM     11  N   UNL     1       0.152   2.251   3.900  0.00  0.00    -0.325 N 
ATOM     12  H   UNL     1       0.645   1.845   3.169  0.00  0.00    +0.169 HD
ENDROOT
BRANCH  11  13
ATOM     13  C   UNL     1      -0.073   3.599   3.906  0.00  0.00    +0.042 A 
ATOM     14  C   UNL     1      -1.337   4.098   4.229  0.00  0.00    +0.027 A 
ATOM     15  C   UNL     1      -1.558   5.460   4.234  0.00  0.00    +0.030 A 
ATOM     16  C   UNL     1      -0.530   6.331   3.919  0.00  0.00    +0.105 A 
ATOM     17  C   UNL     1       0.725   5.844   3.597  0.00  0.00    +0.030 A 
ATOM     18  C   UNL     1       0.961   4.485   3.595  0.00  0.00    +0.027 A 
BRANCH  16  19
ATOM     19  S   UNL     1      -0.820   8.069   3.927  0.00  0.00    +0.056 S 
ATOM     20  O   UNL     1       0.153   8.647   3.068  0.00  0.00    -0.153 OA
ATOM     21  O   UNL     1      -2.216   8.248   3.728  0.00  0.00    -0.153 OA
BRANCH  19  22
ATOM     22  N   UNL     1      -0.486   8.614   5.455  0.00  0.00    -0.204 NA
ATOM     23  H   UNL     1      -0.191   7.992   6.138  0.00  0.00    +0.144 HD
ATOM     24  H   UNL     1      -0.586   9.555   5.666  0.00  0.00    +0.144 HD
ENDBRANCH  19  22
ENDBRANCH  16  19
ENDBRANCH  11  13
BRANCH   1  26
ATOM     25  N   UNL     1      -0.345   0.009   2.380  0.00  0.00    -0.281 N 
ATOM     26  C   UNL     1      -0.192  -0.677   3.530  0.00  0.00    +0.253 C 
ATOM     27  O   UNL     1      -0.022  -1.881   3.501  0.00  0.00    -0.270 OA
ATOM     28  H   UNL     1      -0.435   0.975   2.400  0.00  0.00    +0.155 HD
BRANCH  25  35
ATOM     29  C   UNL     1      -1.567   1.297   0.155  0.00  0.00    +0.045 C 
ATOM     30  C   UNL     1      -0.962  -0.080   0.047  0.00  0.00    -0.029 A 
ATOM     31  C   UNL     1      -0.986  -0.752  -1.159  0.00  0.00    +0.005 A 
ATOM     32  C   UNL     1      -0.432  -2.015  -1.260  0.00  0.00    +0.000 A 
ATOM     33  C   UNL     1       0.148  -2.609  -0.153  0.00  0.00    +0.002 A 
ATOM     34  C   UNL     1       0.175  -1.942   1.055  0.00  0.00    +0.023 A 
ATOM     35  C   UNL     1      -0.376  -0.671   1.158  0.00  0.00    +0.037 A 
ENDBRANCH  25  35
ENDBRANCH   1  26
BRANCH   6  36
ATOM     36  O   UNL     1      -0.348   2.288  10.716  0.00  0.00    -0.495 OA
ATOM     37  C   UNL     1      -0.083   1.580  11.928  0.00  0.00    +0.277 C 
ENDBRANCH   6  36
TORSDOF 6
