REMARK  Name = ZINC63600786
REMARK  4 active torsions:
REMARK  status: ('A' for Active; 'I' for Inactive)
REMARK    1  A    between atoms: C_4  and  C_7
REMARK    2  A    between atoms: N_9  and  C_10
REMARK    3  A    between atoms: C_16  and  N_20
REMARK    4  A    between atoms: C_21  and  C_23
REMARK                            x       y       z     vdW  Elec       q    Type
REMARK                         _______ _______ _______ _____ _____    ______ ____
ROOT
ATOM      1  C   UNL     1       4.797  -2.738  -0.146  0.00  0.00    +0.224 C 
ATOM      2  N   UNL     1       4.783  -4.168   0.192  0.00  0.00    -0.316 N 
ATOM      3  C   UNL     1       5.171  -5.069  -0.801  0.00  0.00    +0.043 A 
ATOM      4  C   UNL     1       5.220  -6.468  -0.661  0.00  0.00    +0.026 A 
ATOM      5  C   UNL     1       5.617  -7.276  -1.700  0.00  0.00    +0.025 A 
ATOM      6  C   UNL     1       5.984  -6.736  -2.926  0.00  0.00    +0.035 A 
ATOM      7  C   UNL     1       5.944  -5.356  -3.090  0.00  0.00    +0.040 A 
ATOM      8  C   UNL     1       5.546  -4.554  -2.046  0.00  0.00    +0.034 A 
ATOM      9  S   UNL     1       5.375  -2.789  -1.889  0.00  0.00    -0.082 S 
ATOM     10  H   UNL     1       4.514  -4.474   1.073  0.00  0.00    +0.149 HD
ENDROOT
BRANCH   1  13
ATOM     11  C   UNL     1       3.289  -0.824  -0.095  0.00  0.00    +0.246 C 
ATOM     12  O   UNL     1       4.256  -0.097  -0.209  0.00  0.00    -0.270 OA
ATOM     13  N   UNL     1       3.453  -2.161  -0.053  0.00  0.00    -0.284 N 
ATOM     14  H   UNL     1       2.682  -2.742   0.038  0.00  0.00    +0.152 HD
BRANCH  11  18
ATOM     15  C   UNL     1      -0.606   0.848   0.173  0.00  0.00    +0.000 A 
ATOM     16  C   UNL     1       0.492   1.679   0.044  0.00  0.00    +0.001 A 
ATOM     17  C   UNL     1       1.760   1.142  -0.044  0.00  0.00    +0.013 A 
ATOM     18  C   UNL     1       1.933  -0.242  -0.001  0.00  0.00    +0.037 A 
ATOM     19  C   UNL     1       0.821  -1.075   0.130  0.00  0.00    +0.013 A 
ATOM     20  C   UNL     1      -0.442  -0.525   0.216  0.00  0.00    +0.001 A 
ENDBRANCH  11  18
ENDBRANCH   1  13
BRANCH   6  21
ATOM     21  N   UNL     1       6.388  -7.568  -3.979  0.00  0.00    -0.284 N 
ATOM     22  C   UNL     1       7.314  -7.140  -4.859  0.00  0.00    +0.244 C 
ATOM     23  O   UNL     1       7.869  -6.075  -4.686  0.00  0.00    -0.273 OA
ATOM     24  H   UNL     1       6.000  -8.452  -4.075  0.00  0.00    +0.155 HD
BRANCH  22  25
ATOM     25  C   UNL     1       7.662  -7.984  -6.058  0.00  0.00    +0.190 C 
ATOM     26  C   UNL     1       8.246  -9.306  -5.613  0.00  0.00    +0.016 C 
ATOM     27  C   UNL     1       9.497  -9.355  -6.125  0.00  0.00    -0.002 A 
ATOM     28  C   UNL     1      10.562 -10.361  -6.053  0.00  0.00    +0.029 A 
ATOM     29  C   UNL     1      11.736 -10.121  -6.683  0.00  0.00    +0.042 A 
ATOM     30  C   UNL     1      11.958  -8.938  -7.402  0.00  0.00    +0.022 A 
ATOM     31  C   UNL     1      11.027  -7.967  -7.513  0.00  0.00    +0.027 A 
ATOM     32  C   UNL     1       9.757  -8.114  -6.890  0.00  0.00    +0.043 A 
ATOM     33  N   UNL     1       8.706  -7.329  -6.853  0.00  0.00    -0.370 N 
ATOM     34 CL   UNL     1      12.999 -11.309  -6.600  0.00  0.00    -0.084 Cl
ATOM     35  H   UNL     1       8.631  -6.460  -7.280  0.00  0.00    +0.161 HD
ENDBRANCH  22  25
ENDBRANCH   6  21
TORSDOF 4
