REMARK  Name = ZINC08928027
REMARK  13 active torsions:
REMARK  status: ('A' for Active; 'I' for Inactive)
REMARK    1  A    between atoms: C_1  and  C_2
REMARK    2  A    between atoms: C_2  and  N_66
REMARK    3  A    between atoms: C_10  and  O_36
REMARK    4  A    between atoms: C_12  and  C_15
REMARK    5  A    between atoms: C_18  and  O_21
REMARK    6  A    between atoms: O_21  and  C_22
REMARK    7  A    between atoms: C_22  and  C_24
REMARK    8  A    between atoms: C_26  and  O_34
REMARK    9  A    between atoms: C_27  and  O_32
REMARK   10  A    between atoms: C_28  and  O_30
REMARK   11  A    between atoms: O_30  and  C_31
REMARK   12  A    between atoms: O_32  and  C_33
REMARK   13  A    between atoms: O_34  and  C_35
REMARK                            x       y       z     vdW  Elec       q    Type
REMARK                         _______ _______ _______ _____ _____    ______ ____
ROOT
ATOM      1  C   UNL     1       4.048  -2.192   7.525  0.00  0.00    -0.005 A 
ATOM      2  C   UNL     1       4.894  -2.696   6.555  0.00  0.00    +0.011 A 
ATOM      3  C   UNL     1       4.875  -4.044   6.253  0.00  0.00    +0.047 A 
ATOM      4  C   UNL     1       3.998  -4.890   6.917  0.00  0.00    +0.132 A 
ATOM      5  C   UNL     1       3.147  -4.380   7.886  0.00  0.00    +0.047 A 
ATOM      6  C   UNL     1       3.174  -3.033   8.188  0.00  0.00    +0.011 A 
ENDROOT
BRANCH   1  16
ATOM      7  C   UNL     1      -0.901   1.668   4.119  0.00  0.00    -0.074 C 
ATOM      8  C   UNL     1      -0.327   0.894   5.309  0.00  0.00    +0.018 C 
ATOM      9  C   UNL     1       1.177   0.752   5.104  0.00  0.00    -0.027 A 
ATOM     10  C   UNL     1       1.713   0.945   3.875  0.00  0.00    -0.021 A 
ATOM     11  S   UNL     1       3.453   0.688   4.092  0.00  0.00    -0.080 S 
ATOM     12  C   UNL     1       3.463   0.336   5.767  0.00  0.00    +0.080 A 
ATOM     13  C   UNL     1       2.118   0.415   6.154  0.00  0.00    +0.067 A 
ATOM     14  C   UNL     1       1.809   0.164   7.586  0.00  0.00    +0.220 C 
ATOM     15  N   UNL     1       2.759  -0.320   8.338  0.00  0.00    -0.223 NA
ATOM     16  C   UNL     1       4.074  -0.722   7.856  0.00  0.00    +0.224 C 
ATOM     17  N   UNL     1       4.468   0.036   6.654  0.00  0.00    -0.313 N 
ATOM     18  C   UNL     1       0.970   1.296   2.625  0.00  0.00    -0.035 C 
ATOM     19  H   UNL     1       5.386   0.307   6.498  0.00  0.00    +0.149 HD
ATOM     20  N   UNL     1      -0.469   1.025   2.861  0.00  0.00    +0.383 N 
ATOM     21  H   UNL     1      -0.610   0.011   2.939  0.00  0.00    -0.081 HD
BRANCH  20  23
ATOM     22  C   UNL     1      -0.641   1.073   0.415  0.00  0.00    -0.017 C 
ATOM     23  C   UNL     1      -1.273   1.536   1.730  0.00  0.00    -0.082 C 
ENDBRANCH  20  23
BRANCH  14  24
ATOM     24  O   UNL     1       0.583   0.429   8.093  0.00  0.00    -0.492 OA
ATOM     25  H   UNL     1       0.494   0.228   9.034  0.00  0.00    +0.294 HD
ENDBRANCH  14  24
ENDBRANCH   1  16
BRANCH   4  26
ATOM     26  O   UNL     1       3.974  -6.215   6.618  0.00  0.00    -0.422 OA
BRANCH  26  27
ATOM     27  C   UNL     1       2.876  -6.681   5.991  0.00  0.00    +0.345 C 
ATOM     28  O   UNL     1       2.012  -5.909   5.625  0.00  0.00    -0.245 OA
BRANCH  27  29
ATOM     29  C   UNL     1       2.723  -8.128   5.749  0.00  0.00    +0.067 A 
ATOM     30  C   UNL     1       3.719  -9.016   6.164  0.00  0.00    +0.064 A 
ATOM     31  C   UNL     1       3.570 -10.372   5.941  0.00  0.00    +0.166 A 
ATOM     32  C   UNL     1       2.435 -10.852   5.293  0.00  0.00    +0.204 A 
ATOM     33  C   UNL     1       1.443  -9.969   4.873  0.00  0.00    +0.166 A 
ATOM     34  C   UNL     1       1.584  -8.612   5.099  0.00  0.00    +0.064 A 
BRANCH  33  35
ATOM     35  O   UNL     1       0.336 -10.441   4.241  0.00  0.00    -0.491 OA
ATOM     36  C   UNL     1      -0.641  -9.479   3.839  0.00  0.00    +0.277 C 
ENDBRANCH  33  35
BRANCH  32  37
ATOM     37  O   UNL     1       2.294 -12.185   5.069  0.00  0.00    -0.488 OA
ATOM     38  C   UNL     1       2.814 -12.695   3.840  0.00  0.00    +0.277 C 
ENDBRANCH  32  37
BRANCH  31  39
ATOM     39  O   UNL     1       4.536 -11.238   6.350  0.00  0.00    -0.491 OA
ATOM     40  C   UNL     1       5.673 -10.677   7.008  0.00  0.00    +0.277 C 
ENDBRANCH  31  39
ENDBRANCH  27  29
ENDBRANCH  26  27
ENDBRANCH   4  26
TORSDOF 9
