REMARK  Name = ZINC58604575
REMARK  4 active torsions:
REMARK  status: ('A' for Active; 'I' for Inactive)
REMARK    1  A    between atoms: C_4  and  C_25
REMARK    2  A    between atoms: C_5  and  C_7
REMARK    3  A    between atoms: C_13  and  S_20
REMARK    4  A    between atoms: S_20  and  N_23
REMARK                            x       y       z     vdW  Elec       q    Type
REMARK                         _______ _______ _______ _____ _____    ______ ____
ROOT
ATOM      1  C   UNL     1       1.308  -2.183  -0.066  0.00  0.00    +0.191 C 
ATOM      2  N   UNL     1       2.402  -2.647   0.783  0.00  0.00    -0.322 N 
ATOM      3  C   UNL     1       2.383  -2.556   2.173  0.00  0.00    +0.057 A 
ATOM      4  C   UNL     1       3.593  -2.583   2.864  0.00  0.00    +0.047 A 
ATOM      5  C   UNL     1       3.607  -2.511   4.242  0.00  0.00    +0.069 A 
ATOM      6  C   UNL     1       2.421  -2.413   4.948  0.00  0.00    +0.125 A 
ATOM      7  C   UNL     1       1.217  -2.379   4.268  0.00  0.00    +0.060 A 
ATOM      8  C   UNL     1       1.200  -2.443   2.890  0.00  0.00    +0.128 A 
ATOM      9  S   UNL     1      -0.339  -2.359   2.024  0.00  0.00    +0.062 S 
ATOM     10  O   UNL     1      -1.153  -3.412   2.522  0.00  0.00    -0.153 OA
ATOM     11  O   UNL     1      -0.749  -0.998   2.036  0.00  0.00    -0.153 OA
ATOM     12  N   UNL     1       0.039  -2.742   0.442  0.00  0.00    -0.166 NA
ATOM     13 CL   UNL     1       5.120  -2.545   5.094  0.00  0.00    -0.081 Cl
ATOM     14  H   UNL     1       3.180  -3.040   0.358  0.00  0.00    +0.148 HD
ATOM     15  H   UNL     1      -0.536  -3.297  -0.107  0.00  0.00    +0.150 HD
ENDROOT
BRANCH   1  20
ATOM     16  C   UNL     1       1.715   1.393   1.073  0.00  0.00    +0.000 A 
ATOM     17  C   UNL     1       1.131   2.084   0.027  0.00  0.00    +0.001 A 
ATOM     18  C   UNL     1       0.605   1.394  -1.048  0.00  0.00    +0.013 A 
ATOM     19  C   UNL     1       0.662   0.013  -1.079  0.00  0.00    +0.061 A 
ATOM     20  C   UNL     1       1.246  -0.678  -0.034  0.00  0.00    +0.000 A 
ATOM     21  C   UNL     1       1.772   0.013   1.043  0.00  0.00    +0.007 A 
BRANCH  19  22
ATOM     22  C   UNL     1       0.087  -0.739  -2.251  0.00  0.00    +0.418 C 
ATOM     23  F   UNL     1      -0.505   0.164  -3.140  0.00  0.00    -0.166 F 
ATOM     24  F   UNL     1       1.108  -1.436  -2.905  0.00  0.00    -0.166 F 
ATOM     25  F   UNL     1      -0.878  -1.645  -1.796  0.00  0.00    -0.166 F 
ENDBRANCH  19  22
ENDBRANCH   1  20
BRANCH   6  26
ATOM     26  S   UNL     1       2.443  -2.332   6.708  0.00  0.00    +0.057 S 
ATOM     27  O   UNL     1       3.400  -1.340   7.056  0.00  0.00    -0.153 OA
ATOM     28  O   UNL     1       1.088  -2.265   7.129  0.00  0.00    -0.153 OA
BRANCH  26  29
ATOM     29  N   UNL     1       3.038  -3.777   7.257  0.00  0.00    -0.203 NA
ATOM     30  H   UNL     1       3.532  -3.812   8.091  0.00  0.00    +0.144 HD
ATOM     31  H   UNL     1       2.894  -4.587   6.744  0.00  0.00    +0.144 HD
ENDBRANCH  26  29
ENDBRANCH   6  26
TORSDOF 4
