REMARK  Name = ZINC11193526
REMARK  8 active torsions:
REMARK  status: ('A' for Active; 'I' for Inactive)
REMARK    1  A    between atoms: C_1  and  C_2
REMARK    2  A    between atoms: C_2  and  N_3
REMARK    3  A    between atoms: C_5  and  C_14
REMARK    4  A    between atoms: C_14  and  N_47
REMARK    5  A    between atoms: C_15  and  N_47
REMARK    6  A    between atoms: C_16  and  C_17
REMARK    7  A    between atoms: C_16  and  N_47
REMARK    8  A    between atoms: C_17  and  C_18
REMARK                            x       y       z     vdW  Elec       q    Type
REMARK                         _______ _______ _______ _____ _____    ______ ____
ROOT
ATOM      1  C   UNL     1       4.694   5.588  -1.801  0.00  0.00    -0.096 C 
ATOM      2  N   UNL     1       4.736   4.955  -0.466  0.00  0.00    +0.381 N 
ATOM      3  H   UNL     1       4.606   3.943  -0.572  0.00  0.00    -0.082 HD
ENDROOT
BRANCH   2   4
ATOM      4  C   UNL     1       3.651   5.493   0.382  0.00  0.00    -0.032 C 
BRANCH   4   7
ATOM      5  N   UNL     1      -0.113   5.248   0.017  0.00  0.00    -0.324 N 
ATOM      6  C   UNL     1       1.161   5.656   0.621  0.00  0.00    +0.147 C 
ATOM      7  C   UNL     1       2.307   5.027  -0.182  0.00  0.00    +0.174 C 
ATOM      8  O   UNL     1       2.199   3.604  -0.064  0.00  0.00    -0.487 OA
ATOM      9  C   UNL     1       0.956   3.071  -0.225  0.00  0.00    +0.142 A 
ATOM     10  C   UNL     1      -0.184   3.865  -0.179  0.00  0.00    +0.072 A 
ATOM     11  C   UNL     1      -1.435   3.278  -0.336  0.00  0.00    +0.027 A 
ATOM     12  C   UNL     1      -1.544   1.917  -0.546  0.00  0.00    +0.002 A 
ATOM     13  C   UNL     1      -0.409   1.129  -0.590  0.00  0.00    +0.004 A 
ATOM     14  C   UNL     1       0.839   1.704  -0.433  0.00  0.00    +0.047 A 
BRANCH   5  16
ATOM     15  C   UNL     1      -1.080   7.219   1.101  0.00  0.00    +0.024 C 
ATOM     16  C   UNL     1      -1.250   5.726   0.814  0.00  0.00    +0.102 C 
ENDBRANCH   5  16
ENDBRANCH   4   7
ENDBRANCH   2   4
BRANCH   2  17
ATOM     17  C   UNL     1       6.046   5.207   0.171  0.00  0.00    -0.070 C 
BRANCH  17  18
ATOM     18  C   UNL     1       7.126   4.451  -0.606  0.00  0.00    +0.078 C 
BRANCH  18  19
ATOM     19  C   UNL     1       8.466   4.680   0.044  0.00  0.00    +0.219 C 
ATOM     20  O   UNL     1       8.549   5.378   1.032  0.00  0.00    -0.275 OA
ATOM     21  N   UNL     1       9.572   4.108  -0.472  0.00  0.00    -0.240 N 
ATOM     22  C   UNL     1      10.770   4.312   0.109  0.00  0.00    +0.303 C 
ATOM     23  O   UNL     1      10.854   5.012   1.099  0.00  0.00    -0.253 OA
ATOM     24  N   UNL     1      11.876   3.741  -0.407  0.00  0.00    -0.313 N 
ATOM     25  H   UNL     1       9.505   3.550  -1.263  0.00  0.00    +0.159 HD
ATOM     26  H   UNL     1      11.809   3.182  -1.198  0.00  0.00    +0.146 HD
ATOM     27  H   UNL     1      12.739   3.888   0.011  0.00  0.00    +0.146 HD
ENDBRANCH  18  19
ENDBRANCH  17  18
ENDBRANCH   2  17
TORSDOF 6
