REMARK  Name = ZINC36698964
REMARK  12 active torsions:
REMARK  status: ('A' for Active; 'I' for Inactive)
REMARK    1  A    between atoms: C_1  and  C_2
REMARK    2  A    between atoms: C_7  and  C_8
REMARK    3  A    between atoms: N_12  and  C_13
REMARK    4  A    between atoms: C_13  and  C_14
REMARK    5  A    between atoms: C_14  and  C_15
REMARK    6  A    between atoms: C_15  and  N_16
REMARK    7  A    between atoms: N_16  and  C_17
REMARK    8  A    between atoms: N_16  and  C_18
REMARK    9  A    between atoms: C_19  and  C_21
REMARK   10  A    between atoms: C_24  and  S_27
REMARK   11  A    between atoms: S_27  and  N_30
REMARK   12  A    between atoms: C_34  and  C_37
REMARK                            x       y       z     vdW  Elec       q    Type
REMARK                         _______ _______ _______ _____ _____    ______ ____
ROOT
ATOM      1  C   UNL     1       0.597   0.776   0.838  0.00  0.00    +0.044 C 
ATOM      2  C   UNL     1       0.573  -0.716   0.628  0.00  0.00    -0.045 A 
ATOM      3  C   UNL     1       0.325  -1.212  -0.625  0.00  0.00    +0.032 A 
ATOM      4  C   UNL     1       0.295  -2.607  -0.856  0.00  0.00    +0.081 A 
ATOM      5  C   UNL     1       0.532  -3.432   0.267  0.00  0.00    +0.041 A 
ATOM      6  C   UNL     1       0.780  -2.925   1.518  0.00  0.00    +0.021 A 
ATOM      7  C   UNL     1       0.807  -1.555   1.708  0.00  0.00    -0.046 A 
ATOM      8  C   UNL     1       1.083  -0.981   3.073  0.00  0.00    +0.044 C 
ATOM      9  S   UNL     1       0.411  -5.062  -0.428  0.00  0.00    -0.052 S 
ATOM     10  C   UNL     1       0.065  -4.564  -2.109  0.00  0.00    +0.168 A 
ATOM     11  N   UNL     1       0.068  -3.255  -2.019  0.00  0.00    -0.224 NA
ATOM     12  N   UNL     1      -0.150  -5.358  -3.223  0.00  0.00    -0.246 N 
ATOM     13  C   UNL     1      -0.111  -6.701  -3.111  0.00  0.00    +0.252 C 
ATOM     14  O   UNL     1       0.040  -7.216  -2.020  0.00  0.00    -0.270 OA
ENDROOT
BRANCH  13  15
ATOM     15  C   UNL     1      -0.250  -7.546  -4.315  0.00  0.00    +0.037 A 
ATOM     16  C   UNL     1       0.367  -7.173  -5.510  0.00  0.00    +0.015 A 
ATOM     17  C   UNL     1       0.233  -7.967  -6.630  0.00  0.00    +0.029 A 
ATOM     18  C   UNL     1      -0.511  -9.132  -6.570  0.00  0.00    +0.106 A 
ATOM     19  C   UNL     1      -1.126  -9.508  -5.389  0.00  0.00    +0.029 A 
ATOM     20  C   UNL     1      -0.995  -8.726  -4.260  0.00  0.00    +0.015 A 
BRANCH  18  21
ATOM     21  S   UNL     1      -0.677 -10.141  -8.005  0.00  0.00    +0.061 S 
ATOM     22  O   UNL     1      -1.871 -10.893  -7.837  0.00  0.00    -0.153 OA
ATOM     23  O   UNL     1      -0.462  -9.293  -9.125  0.00  0.00    -0.153 OA
BRANCH  21  24
ATOM     24  N   UNL     1       0.572 -11.227  -7.987  0.00  0.00    -0.176 NA
ATOM     25  C   UNL     1       1.855 -10.904  -8.627  0.00  0.00    +0.109 C 
ATOM     26  C   UNL     1       2.211 -12.023  -9.611  0.00  0.00    +0.017 C 
ATOM     27  C   UNL     1       2.196 -13.366  -8.877  0.00  0.00    +0.006 C 
ATOM     28  C   UNL     1       0.792 -13.633  -8.329  0.00  0.00    +0.002 C 
ATOM     29  C   UNL     1       0.422 -12.530  -7.325  0.00  0.00    +0.112 C 
ATOM     30  C   UNL     1       0.770 -14.992  -7.624  0.00  0.00    +0.009 C 
ENDBRANCH  21  24
ENDBRANCH  18  21
ENDBRANCH  13  15
BRANCH  12  31
ATOM     31  C   UNL     1      -0.421  -4.739  -4.522  0.00  0.00    +0.114 C 
BRANCH  31  32
ATOM     32  C   UNL     1       0.873  -4.143  -5.083  0.00  0.00    +0.001 C 
BRANCH  32  33
ATOM     33  C   UNL     1       0.625  -3.631  -6.503  0.00  0.00    -0.078 C 
BRANCH  33  34
ATOM     34  N   UNL     1       1.866  -3.059  -7.041  0.00  0.00    +0.376 N 
ATOM     35  C   UNL     1       2.873  -4.120  -7.180  0.00  0.00    -0.097 C 
ATOM     36  C   UNL     1       1.600  -2.461  -8.356  0.00  0.00    -0.097 C 
ATOM     37  H   UNL     1       2.210  -2.350  -6.412  0.00  0.00    -0.083 HD
ENDBRANCH  33  34
ENDBRANCH  32  33
ENDBRANCH  31  32
ENDBRANCH  12  31
TORSDOF 7
