REMARK  Name = ZINC45558580
REMARK  12 active torsions:
REMARK  status: ('A' for Active; 'I' for Inactive)
REMARK    1  A    between atoms: C_1  and  C_2
REMARK    2  A    between atoms: C_2  and  C_3
REMARK    3  A    between atoms: C_2  and  N_4
REMARK    4  A    between atoms: N_4  and  C_5
REMARK    5  A    between atoms: C_5  and  C_6
REMARK    6  A    between atoms: C_5  and  C_7
REMARK    7  A    between atoms: C_5  and  C_19
REMARK    8  A    between atoms: C_7  and  C_8
REMARK    9  A    between atoms: C_8  and  C_9
REMARK   10  A    between atoms: C_9  and  C_10
REMARK   11  A    between atoms: C_10  and  S_11
REMARK   12  A    between atoms: S_11  and  C_12
REMARK                            x       y       z     vdW  Elec       q    Type
REMARK                         _______ _______ _______ _____ _____    ______ ____
ROOT
ATOM      1  C   UNL     1       2.019  -0.176  -1.285  0.00  0.00    +0.007 C 
ATOM      2  C   UNL     1       2.741  -0.976  -0.198  0.00  0.00    -0.001 C 
ENDROOT
BRANCH   1   3
ATOM      3  C   UNL     1       2.226   1.297  -1.045  0.00  0.00    +0.199 C 
ATOM      4  O   UNL     1       3.140   1.675  -0.343  0.00  0.00    -0.278 OA
ATOM      5  N   UNL     1       1.395   2.195  -1.611  0.00  0.00    -0.330 N 
ATOM      6  H   UNL     1       0.664   1.893  -2.173  0.00  0.00    +0.145 HD
ATOM      7  H   UNL     1       1.528   3.144  -1.457  0.00  0.00    +0.145 HD
ENDBRANCH   1   3
BRANCH   1   8
ATOM      8  N   UNL     1       0.583  -0.482  -1.246  0.00  0.00    +0.390 N 
ATOM      9  H   UNL     1       0.435  -1.439  -1.527  0.00  0.00    -0.084 HD
ATOM     10  H   UNL     1       0.091   0.134  -1.876  0.00  0.00    -0.084 HD
BRANCH   8  12
ATOM     11  C   UNL     1       0.130   1.198   0.478  0.00  0.00    -0.014 C 
ATOM     12  C   UNL     1       0.078  -0.289   0.120  0.00  0.00    -0.077 C 
ATOM     13  C   UNL     1      -1.367  -0.784   0.205  0.00  0.00    -0.014 C 
ENDBRANCH   8  12
ENDBRANCH   1   8
BRANCH   1  14
ATOM     14  C   UNL     1       2.584  -0.554  -2.656  0.00  0.00    -0.004 C 
BRANCH  14  15
ATOM     15  C   UNL     1       4.080  -0.235  -2.697  0.00  0.00    -0.000 C 
BRANCH  15  16
ATOM     16  C   UNL     1       4.644  -0.613  -4.068  0.00  0.00    +0.011 C 
BRANCH  16  17
ATOM     17  C   UNL     1       6.140  -0.295  -4.109  0.00  0.00    +0.074 C 
BRANCH  17  18
ATOM     18  S   UNL     1       6.809  -0.743  -5.734  0.00  0.00    -0.124 S 
BRANCH  18  19
ATOM     19  C   UNL     1       8.517  -0.321  -5.623  0.00  0.00    +0.026 A 
ATOM     20  C   UNL     1       9.026   0.218  -4.448  0.00  0.00    +0.016 A 
ATOM     21  C   UNL     1      10.364   0.546  -4.364  0.00  0.00    +0.001 A 
ATOM     22  C   UNL     1      11.198   0.340  -5.448  0.00  0.00    +0.001 A 
ATOM     23  C   UNL     1      10.696  -0.195  -6.620  0.00  0.00    +0.021 A 
ATOM     24  C   UNL     1       9.359  -0.532  -6.709  0.00  0.00    +0.054 A 
ATOM     25 CL   UNL     1       8.730  -1.212  -8.178  0.00  0.00    -0.082 Cl
ENDBRANCH  18  19
ENDBRANCH  17  18
ENDBRANCH  16  17
ENDBRANCH  15  16
ENDBRANCH  14  15
ENDBRANCH   1  14
TORSDOF 9
