REMARK  Name = ZINC13548605
REMARK  4 active torsions:
REMARK  status: ('A' for Active; 'I' for Inactive)
REMARK    1  A    between atoms: C_1  and  C_2
REMARK    2  A    between atoms: N_16  and  N_17
REMARK    3  A    between atoms: N_17  and  C_18
REMARK    4  A    between atoms: C_21  and  N_28
REMARK                            x       y       z     vdW  Elec       q    Type
REMARK                         _______ _______ _______ _____ _____    ______ ____
ROOT
ATOM      1  C   UNL     1      -0.075   1.405  -0.119  0.00  0.00    +0.044 C 
ATOM      2  C   UNL     1       0.130  -0.088  -0.090  0.00  0.00    -0.050 A 
ATOM      3  C   UNL     1       0.405  -0.771  -1.265  0.00  0.00    +0.005 A 
ATOM      4  C   UNL     1       0.595  -2.136  -1.254  0.00  0.00    +0.026 A 
ATOM      5  C   UNL     1       0.512  -2.842  -0.058  0.00  0.00    +0.050 A 
ATOM      6  C   UNL     1       0.234  -2.149   1.130  0.00  0.00    +0.029 A 
ATOM      7  C   UNL     1       0.049  -0.769   1.106  0.00  0.00    +0.015 A 
ATOM      8  C   UNL     1       0.210  -3.159   2.203  0.00  0.00    +0.138 A 
ATOM      9  C   UNL     1       0.478  -4.398   1.587  0.00  0.00    +0.163 A 
ATOM     10  N   UNL     1       0.654  -4.187   0.242  0.00  0.00    -0.338 N 
ATOM     11  H   UNL     1       0.850  -4.881  -0.407  0.00  0.00    +0.167 HD
ATOM     12  N   UNL     1       0.514  -5.487   2.349  0.00  0.00    -0.193 NA
ATOM     13  C   UNL     1       0.299  -5.374   3.652  0.00  0.00    +0.253 A 
ATOM     14  N   UNL     1       0.049  -4.195   4.210  0.00  0.00    -0.111 NA
ATOM     15  N   UNL     1       0.004  -3.113   3.511  0.00  0.00    -0.142 NA
ATOM     16  N   UNL     1       0.336  -6.507   4.447  0.00  0.00    -0.233 N 
ATOM     17  H   UNL     1       0.517  -7.373   4.050  0.00  0.00    +0.173 HD
ENDROOT
BRANCH  16  18
ATOM     18  N   UNL     1       0.111  -6.403   5.826  0.00  0.00    -0.259 N 
ATOM     19  H   UNL     1       0.016  -5.529   6.237  0.00  0.00    +0.170 HD
BRANCH  18  20
ATOM     20  C   UNL     1       0.027  -7.506   6.574  0.00  0.00    +0.116 C 
ATOM     21  C   UNL     1       0.026  -8.850   6.130  0.00  0.00    +0.026 A 
ATOM     22  C   UNL     1       0.104  -9.442   4.864  0.00  0.00    +0.044 A 
ATOM     23  C   UNL     1       0.077 -10.818   4.748  0.00  0.00    +0.127 A 
ATOM     24  C   UNL     1      -0.026 -11.613   5.878  0.00  0.00    +0.034 A 
ATOM     25  C   UNL     1      -0.105 -11.047   7.141  0.00  0.00    +0.026 A 
ATOM     26  C   UNL     1      -0.080  -9.663   7.289  0.00  0.00    +0.043 A 
ATOM     27  N   UNL     1      -0.141  -8.869   8.397  0.00  0.00    -0.280 N 
ATOM     28  C   UNL     1      -0.079  -7.590   8.073  0.00  0.00    +0.264 C 
ATOM     29  O   UNL     1      -0.106  -6.650   8.846  0.00  0.00    -0.268 OA
ATOM     30  H   UNL     1      -0.217  -9.201   9.305  0.00  0.00    +0.155 HD
BRANCH  23  31
ATOM     31  N   UNL     1       0.159 -11.447   3.410  0.00  0.00    +0.056 N 
ATOM     32  O   UNL     1       0.249 -10.756   2.422  0.00  0.00    -0.126 OA
ATOM     33  O   UNL     1       0.136 -12.651   3.306  0.00  0.00    -0.126 OA
ENDBRANCH  23  31
ENDBRANCH  18  20
ENDBRANCH  16  18
TORSDOF 3
