REMARK  Name = ZINC16698852
REMARK  4 active torsions:
REMARK  status: ('A' for Active; 'I' for Inactive)
REMARK    1  A    between atoms: C_12  and  C_14
REMARK    2  A    between atoms: C_14  and  S_15
REMARK    3  A    between atoms: S_15  and  C_16
REMARK    4  A    between atoms: N_21  and  C_22
REMARK                            x       y       z     vdW  Elec       q    Type
REMARK                         _______ _______ _______ _____ _____    ______ ____
ROOT
ATOM      1  C   UNL     1      -5.488  -2.776   2.191  0.00  0.00    +0.172 C 
ENDROOT
BRANCH   1  13
ATOM      2  C   UNL     1       0.634   1.736  -0.868  0.00  0.00    +0.005 A 
ATOM      3  C   UNL     1       1.726   0.905  -1.085  0.00  0.00    +0.018 A 
ATOM      4  C   UNL     1       1.528  -0.457  -1.189  0.00  0.00    +0.084 A 
ATOM      5  C   UNL     1      -0.746  -0.217  -0.877  0.00  0.00    +0.099 A 
ATOM      6  C   UNL     1      -0.620   1.164  -0.763  0.00  0.00    +0.042 A 
ATOM      7  N   UNL     1      -2.001  -0.805  -0.772  0.00  0.00    -0.314 N 
ATOM      8  C   UNL     1      -2.651  -0.437   0.493  0.00  0.00    +0.125 C 
ATOM      9  C   UNL     1      -4.094  -0.953   0.490  0.00  0.00    +0.126 C 
ATOM     10  N   UNL     1      -4.075  -2.394   0.197  0.00  0.00    -0.298 N 
ATOM     11  C   UNL     1      -3.325  -2.855  -0.981  0.00  0.00    +0.126 C 
ATOM     12  C   UNL     1      -1.912  -2.264  -0.921  0.00  0.00    +0.125 C 
ATOM     13  C   UNL     1      -4.726  -3.270   0.988  0.00  0.00    +0.226 C 
ATOM     14  O   UNL     1      -4.699  -4.455   0.732  0.00  0.00    -0.275 OA
ATOM     15  N   UNL     1       0.310  -1.054  -1.090  0.00  0.00    -0.350 N 
ATOM     16  H   UNL     1       0.193  -2.071  -1.171  0.00  0.00    +0.166 HD
ENDBRANCH   1  13
BRANCH   1  17
ATOM     17  S   UNL     1      -6.249  -4.184   3.045  0.00  0.00    -0.088 S 
BRANCH  17  18
ATOM     18  C   UNL     1      -7.091  -3.452   4.408  0.00  0.00    +0.160 A 
ATOM     19  N   UNL     1      -7.166  -2.183   4.761  0.00  0.00    -0.133 NA
ATOM     20  N   UNL     1      -7.890  -1.823   5.874  0.00  0.00    -0.125 NA
ATOM     21  C   UNL     1      -8.497  -2.750   6.590  0.00  0.00    +0.187 A 
ATOM     22  S   UNL     1      -8.065  -4.230   5.688  0.00  0.00    -0.024 S 
ATOM     23  N   UNL     1      -9.266  -2.612   7.739  0.00  0.00    -0.292 N 
ATOM     24  H   UNL     1      -9.581  -3.400   8.210  0.00  0.00    +0.154 HD
BRANCH  23  25
ATOM     25  C   UNL     1      -9.587  -1.339   8.216  0.00  0.00    +0.034 A 
ATOM     26  C   UNL     1      -9.640  -0.260   7.342  0.00  0.00    +0.023 A 
ATOM     27  C   UNL     1      -9.959   0.997   7.816  0.00  0.00    +0.003 A 
ATOM     28  C   UNL     1     -10.225   1.184   9.160  0.00  0.00    +0.015 A 
ATOM     29  C   UNL     1     -10.173   0.113  10.034  0.00  0.00    +0.020 A 
ATOM     30  C   UNL     1      -9.860  -1.149   9.565  0.00  0.00    +0.038 A 
ATOM     31 BR   UNL     1     -10.537   0.374  11.871  0.00  0.00    -0.050 Br
ENDBRANCH  23  25
ENDBRANCH  17  18
ENDBRANCH   1  17
TORSDOF 4
