REMARK  Name = ZINC35171995
REMARK  16 active torsions:
REMARK  status: ('A' for Active; 'I' for Inactive)
REMARK    1  A    between atoms: C_1  and  C_2
REMARK    2  A    between atoms: C_6  and  C_36
REMARK    3  A    between atoms: C_7  and  N_8
REMARK    4  A    between atoms: N_11  and  C_12
REMARK    5  A    between atoms: N_11  and  C_33
REMARK    6  A    between atoms: C_12  and  C_13
REMARK    7  A    between atoms: N_15  and  C_16
REMARK    8  A    between atoms: C_18  and  C_29
REMARK    9  A    between atoms: N_20  and  C_21
REMARK   10  A    between atoms: C_24  and  O_27
REMARK   11  A    between atoms: O_27  and  C_28
REMARK   12  A    between atoms: C_29  and  C_30
REMARK   13  A    between atoms: C_29  and  C_31
REMARK   14  A    between atoms: C_29  and  C_32
REMARK   15  A    between atoms: C_33  and  C_34
REMARK   16  A    between atoms: C_33  and  C_35
REMARK                            x       y       z     vdW  Elec       q    Type
REMARK                         _______ _______ _______ _____ _____    ______ ____
ROOT
ATOM      1  C   UNL     1       0.485  -1.067   6.623  0.00  0.00    +0.236 C 
ATOM      2  O   UNL     1       1.556  -0.776   6.134  0.00  0.00    -0.274 OA
ATOM      3  N   UNL     1       0.438  -1.734   7.793  0.00  0.00    -0.269 N 
ATOM      4  H   UNL     1      -0.419  -1.967   8.184  0.00  0.00    +0.156 HD
ENDROOT
BRANCH   3   5
ATOM      5  C   UNL     1       1.620  -2.090   8.441  0.00  0.00    +0.129 A 
ATOM      6  C   UNL     1       2.885  -1.825   8.013  0.00  0.00    +0.069 A 
ATOM      7  C   UNL     1       3.776  -2.352   8.952  0.00  0.00    +0.071 A 
ATOM      8  N   UNL     1       3.083  -2.914   9.910  0.00  0.00    -0.169 NA
ATOM      9  N   UNL     1       1.722  -2.761   9.621  0.00  0.00    -0.218 N 
BRANCH   9  10
ATOM     10  C   UNL     1       0.653  -3.220  10.405  0.00  0.00    +0.068 A 
ATOM     11  C   UNL     1      -0.523  -2.484  10.476  0.00  0.00    +0.031 A 
ATOM     12  C   UNL     1      -1.574  -2.936  11.248  0.00  0.00    +0.048 A 
ATOM     13  C   UNL     1      -1.456  -4.125  11.954  0.00  0.00    +0.120 A 
ATOM     14  C   UNL     1      -0.281  -4.860  11.884  0.00  0.00    +0.048 A 
ATOM     15  C   UNL     1       0.768  -4.412  11.107  0.00  0.00    +0.031 A 
BRANCH  13  16
ATOM     16  O   UNL     1      -2.492  -4.569  12.714  0.00  0.00    -0.495 OA
ATOM     17  C   UNL     1      -2.301  -5.800  13.414  0.00  0.00    +0.277 C 
ENDBRANCH  13  16
ENDBRANCH   9  10
BRANCH   7  18
ATOM     18  C   UNL     1       5.279  -2.286   8.873  0.00  0.00    +0.006 C 
ATOM     19  C   UNL     1       5.745  -0.870   9.219  0.00  0.00    +0.017 C 
ATOM     20  C   UNL     1       5.886  -3.279   9.867  0.00  0.00    +0.017 C 
ATOM     21  C   UNL     1       5.732  -2.640   7.456  0.00  0.00    +0.017 C 
ENDBRANCH   7  18
ENDBRANCH   3   5
BRANCH   1  22
ATOM     22  C   UNL     1      -0.793  -0.683   5.923  0.00  0.00    +0.205 C 
BRANCH  22  26
ATOM     23  N   UNL     1      -0.127   0.000   2.373  0.00  0.00    -0.269 N 
ATOM     24  C   UNL     1      -0.317  -0.660   3.533  0.00  0.00    +0.307 C 
ATOM     25  O   UNL     1      -0.347  -1.875   3.543  0.00  0.00    -0.252 OA
ATOM     26  N   UNL     1      -0.475   0.028   4.682  0.00  0.00    -0.274 N 
ATOM     27  H   UNL     1      -0.052   0.967   2.373  0.00  0.00    +0.156 HD
BRANCH  23  34
ATOM     28  C   UNL     1       1.980   0.661   0.578  0.00  0.00    +0.045 C 
ATOM     29  C   UNL     1       0.977  -0.419   0.266  0.00  0.00    -0.029 A 
ATOM     30  C   UNL     1       1.067  -1.126  -0.917  0.00  0.00    +0.005 A 
ATOM     31  C   UNL     1       0.146  -2.117  -1.204  0.00  0.00    +0.001 A 
ATOM     32  C   UNL     1      -0.867  -2.405  -0.308  0.00  0.00    +0.005 A 
ATOM     33  C   UNL     1      -0.962  -1.702   0.877  0.00  0.00    -0.029 A 
ATOM     34  C   UNL     1      -0.036  -0.710   1.171  0.00  0.00    +0.041 A 
ATOM     35  C   UNL     1      -2.067  -2.015   1.853  0.00  0.00    +0.045 C 
ENDBRANCH  23  34
BRANCH  26  36
ATOM     36  C   UNL     1      -0.328   1.485   4.689  0.00  0.00    +0.072 C 
ATOM     37  C   UNL     1      -1.593   2.122   5.270  0.00  0.00    +0.028 C 
ATOM     38  C   UNL     1       0.878   1.872   5.547  0.00  0.00    +0.028 C 
ENDBRANCH  26  36
ENDBRANCH  22  26
ENDBRANCH   1  22
TORSDOF 8
