REMARK  Name = ZINC54726565
REMARK  11 active torsions:
REMARK  status: ('A' for Active; 'I' for Inactive)
REMARK    1  A    between atoms: C_1  and  C_2
REMARK    2  A    between atoms: C_4  and  C_24
REMARK    3  A    between atoms: N_6  and  C_8
REMARK    4  A    between atoms: C_8  and  C_9
REMARK    5  A    between atoms: C_8  and  C_10
REMARK    6  A    between atoms: C_8  and  C_11
REMARK    7  A    between atoms: C_11  and  N_12
REMARK    8  A    between atoms: N_15  and  C_16
REMARK    9  A    between atoms: C_16  and  C_17
REMARK   10  A    between atoms: C_17  and  N_18
REMARK   11  A    between atoms: C_19  and  C_21
REMARK                            x       y       z     vdW  Elec       q    Type
REMARK                         _______ _______ _______ _____ _____    ______ ____
ROOT
ATOM      1  N   UNL     1       3.477  -2.389   0.896  0.00  0.00    -0.301 N 
ATOM      2  C   UNL     1       4.769  -2.196   0.567  0.00  0.00    +0.300 C 
ATOM      3  O   UNL     1       5.538  -1.720   1.380  0.00  0.00    -0.253 OA
ATOM      4  N   UNL     1       5.209  -2.528  -0.663  0.00  0.00    -0.298 N 
ATOM      5  H   UNL     1       2.863  -2.769   0.247  0.00  0.00    +0.150 HD
ATOM      6  H   UNL     1       4.595  -2.908  -1.311  0.00  0.00    +0.150 HD
ENDROOT
BRANCH   1   7
ATOM      7  C   UNL     1       2.998  -2.028   2.232  0.00  0.00    +0.093 C 
BRANCH   7   8
ATOM      8  C   UNL     1       1.483  -2.226   2.303  0.00  0.00    -0.055 C 
ATOM      9  C   UNL     1       0.972  -1.768   3.670  0.00  0.00    -0.008 C 
ATOM     10  C   UNL     1       1.153  -3.707   2.106  0.00  0.00    -0.008 C 
BRANCH   8  16
ATOM     11  C   UNL     1       0.933   2.275   0.459  0.00  0.00    +0.005 C 
ATOM     12  C   UNL     1       0.575   0.799   0.276  0.00  0.00    -0.031 C 
ATOM     13  C   UNL     1      -0.948   0.636   0.290  0.00  0.00    +0.003 C 
ATOM     14  C   UNL     1      -1.294  -0.852   0.185  0.00  0.00    -0.031 C 
ATOM     15  C   UNL     1      -0.620  -1.608   1.332  0.00  0.00    -0.075 C 
ATOM     16  N   UNL     1       0.836  -1.436   1.248  0.00  0.00    +0.384 N 
ATOM     17  C   UNL     1       1.180  -0.019   1.419  0.00  0.00    -0.075 C 
ATOM     18  C   UNL     1      -0.793  -1.400  -1.153  0.00  0.00    +0.005 C 
ATOM     19  H   UNL     1       1.160  -1.752   0.346  0.00  0.00    -0.081 HD
ENDBRANCH   8  16
ENDBRANCH   7   8
ENDBRANCH   1   7
BRANCH   4  20
ATOM     20  C   UNL     1       6.614  -2.318  -1.020  0.00  0.00    +0.124 C 
BRANCH  20  21
ATOM     21  C   UNL     1       6.848  -2.775  -2.461  0.00  0.00    +0.123 C 
BRANCH  21  22
ATOM     22  N   UNL     1       8.253  -2.565  -2.818  0.00  0.00    -0.314 N 
ATOM     23  C   UNL     1       8.693  -2.897  -4.048  0.00  0.00    +0.216 C 
ATOM     24  O   UNL     1       7.926  -3.371  -4.859  0.00  0.00    -0.276 OA
ATOM     25  H   UNL     1       8.867  -2.186  -2.170  0.00  0.00    +0.149 HD
BRANCH  23  26
ATOM     26  C   UNL     1      10.138  -2.680  -4.415  0.00  0.00    +0.075 C 
ATOM     27  C   UNL     1      10.449  -1.600  -5.453  0.00  0.00    +0.013 C 
ATOM     28  C   UNL     1      10.576  -3.079  -5.827  0.00  0.00    +0.013 C 
ENDBRANCH  23  26
ENDBRANCH  21  22
ENDBRANCH  20  21
ENDBRANCH   4  20
TORSDOF 7
