REMARK  Name = ZINC05280913
REMARK  12 active torsions:
REMARK  status: ('A' for Active; 'I' for Inactive)
REMARK    1  A    between atoms: C_1  and  C_2
REMARK    2  A    between atoms: C_2  and  C_3
REMARK    3  A    between atoms: C_2  and  C_4
REMARK    4  A    between atoms: C_4  and  C_6
REMARK    5  A    between atoms: C_4  and  S_12
REMARK    6  A    between atoms: S_12  and  C_13
REMARK    7  A    between atoms: C_16  and  C_25
REMARK    8  A    between atoms: N_17  and  C_18
REMARK    9  A    between atoms: C_25  and  C_27
REMARK   10  A    between atoms: C_25  and  N_53
REMARK   11  A    between atoms: C_28  and  N_53
REMARK   12  A    between atoms: C_29  and  N_53
REMARK                            x       y       z     vdW  Elec       q    Type
REMARK                         _______ _______ _______ _____ _____    ______ ____
ROOT
ATOM      1  C   UNL     1       2.180  -4.825  -0.628  0.00  0.00    +0.197 A 
ATOM      2  N   UNL     1       1.070  -5.287  -0.102  0.00  0.00    -0.122 NA
ATOM      3  N   UNL     1       1.056  -6.571  -0.166  0.00  0.00    -0.135 NA
ATOM      4  C   UNL     1       2.151  -7.004  -0.723  0.00  0.00    +0.125 A 
ATOM      5  N   UNL     1       2.909  -5.908  -1.038  0.00  0.00    -0.275 N 
ENDROOT
BRANCH   5   6
ATOM      6  C   UNL     1       4.170  -5.898  -1.653  0.00  0.00    +0.050 A 
ATOM      7  C   UNL     1       4.312  -6.357  -2.955  0.00  0.00    +0.028 A 
ATOM      8  C   UNL     1       5.553  -6.341  -3.561  0.00  0.00    +0.022 A 
ATOM      9  C   UNL     1       6.657  -5.878  -2.867  0.00  0.00    +0.041 A 
ATOM     10  C   UNL     1       6.519  -5.425  -1.566  0.00  0.00    +0.022 A 
ATOM     11  C   UNL     1       5.279  -5.434  -0.959  0.00  0.00    +0.028 A 
ATOM     12 CL   UNL     1       8.217  -5.865  -3.628  0.00  0.00    -0.084 Cl
ENDBRANCH   5   6
BRANCH   4  13
ATOM     13  C   UNL     1       2.516  -8.445  -0.973  0.00  0.00    -0.003 C 
ATOM     14  C   UNL     1       2.928  -9.104   0.345  0.00  0.00    -0.005 C 
BRANCH  13  17
ATOM     15  C   UNL     1       1.710 -10.531  -1.902  0.00  0.00    -0.096 C 
ATOM     16  C   UNL     1       0.225  -9.132  -0.599  0.00  0.00    -0.096 C 
ATOM     17  N   UNL     1       1.349  -9.139  -1.558  0.00  0.00    +0.382 N 
ATOM     18  H   UNL     1       1.062  -8.648  -2.412  0.00  0.00    -0.082 HD
ENDBRANCH  13  17
ENDBRANCH   4  13
BRANCH   1  19
ATOM     19  S   UNL     1       2.647  -3.132  -0.772  0.00  0.00    -0.073 S 
BRANCH  19  20
ATOM     20  C   UNL     1       1.277  -2.352   0.117  0.00  0.00    +0.143 C 
BRANCH  20  21
ATOM     21  C   UNL     1       1.359  -0.856  -0.047  0.00  0.00    +0.234 C 
ATOM     22  O   UNL     1       2.407  -0.338  -0.369  0.00  0.00    -0.274 OA
ATOM     23  N   UNL     1       0.268  -0.094   0.164  0.00  0.00    -0.239 N 
ATOM     24  C   UNL     1       0.342   1.244   0.018  0.00  0.00    +0.303 C 
ATOM     25  O   UNL     1       1.392   1.763  -0.305  0.00  0.00    -0.253 OA
ATOM     26  N   UNL     1      -0.751   2.005   0.224  0.00  0.00    -0.313 N 
ATOM     27  H   UNL     1      -0.570  -0.508   0.422  0.00  0.00    +0.159 HD
ATOM     28  H   UNL     1      -1.591   1.590   0.478  0.00  0.00    +0.146 HD
ATOM     29  H   UNL     1      -0.698   2.968   0.119  0.00  0.00    +0.146 HD
ENDBRANCH  20  21
BRANCH  20  31
ATOM     30  C   UNL     1       2.632  -2.096   2.200  0.00  0.00    +0.009 C 
ATOM     31  C   UNL     1       1.364  -2.708   1.602  0.00  0.00    +0.005 C 
ATOM     32  C   UNL     1       0.138  -2.154   2.332  0.00  0.00    +0.009 C 
ENDBRANCH  20  31
ENDBRANCH  19  20
ENDBRANCH   1  19
TORSDOF 7
