REMARK  Name = ZINC67247803
REMARK  13 active torsions:
REMARK  status: ('A' for Active; 'I' for Inactive)
REMARK    1  A    between atoms: C_1  and  C_2
REMARK    2  A    between atoms: C_3  and  C_11
REMARK    3  A    between atoms: C_4  and  C_10
REMARK    4  A    between atoms: N_5  and  C_7
REMARK    5  A    between atoms: C_7  and  C_8
REMARK    6  A    between atoms: C_8  and  O_9
REMARK    7  A    between atoms: C_11  and  N_12
REMARK    8  A    between atoms: N_12  and  C_13
REMARK    9  A    between atoms: C_13  and  C_15
REMARK   10  A    between atoms: C_13  and  C_16
REMARK   11  A    between atoms: C_19  and  S_22
REMARK   12  A    between atoms: S_22  and  N_25
REMARK   13  A    between atoms: N_25  and  C_26
REMARK                            x       y       z     vdW  Elec       q    Type
REMARK                         _______ _______ _______ _____ _____    ______ ____
ROOT
ATOM      1  N   UNL     1       1.374  -0.169  -3.038  0.00  0.00    +0.386 N 
ATOM      2  H   UNL     1       1.843   0.513  -2.461  0.00  0.00    -0.085 HD
ATOM      3  H   UNL     1       1.863  -1.050  -2.981  0.00  0.00    -0.085 HD
ENDROOT
BRANCH   1   4
ATOM      4  C   UNL     1       1.360   0.294  -4.432  0.00  0.00    -0.044 C 
ATOM      5  C   UNL     1       0.731   1.687  -4.500  0.00  0.00    -0.009 C 
BRANCH   4   6
ATOM      6  C   UNL     1       2.772   0.354  -4.955  0.00  0.00    -0.062 A 
ATOM      7  C   UNL     1       3.792   0.812  -4.141  0.00  0.00    +0.004 A 
ATOM      8  C   UNL     1       5.087   0.867  -4.621  0.00  0.00    +0.029 A 
ATOM      9  C   UNL     1       5.363   0.465  -5.914  0.00  0.00    +0.105 A 
ATOM     10  C   UNL     1       4.343   0.007  -6.728  0.00  0.00    +0.029 A 
ATOM     11  C   UNL     1       3.049  -0.053  -6.247  0.00  0.00    +0.004 A 
BRANCH   9  12
ATOM     12  S   UNL     1       7.013   0.537  -6.526  0.00  0.00    +0.058 S 
ATOM     13  O   UNL     1       6.919   0.620  -7.942  0.00  0.00    -0.153 OA
ATOM     14  O   UNL     1       7.692   1.515  -5.750  0.00  0.00    -0.153 OA
BRANCH  12  15
ATOM     15  N   UNL     1       7.727  -0.918  -6.184  0.00  0.00    -0.193 NA
ATOM     16  C   UNL     1       7.231  -2.143  -6.815  0.00  0.00    +0.127 C 
ATOM     17  H   UNL     1       8.473  -0.958  -5.565  0.00  0.00    +0.148 HD
ENDBRANCH  12  15
ENDBRANCH   9  12
ENDBRANCH   4   6
ENDBRANCH   1   4
BRANCH   1  18
ATOM     18  C   UNL     1      -0.006  -0.343  -2.566  0.00  0.00    -0.042 C 
BRANCH  18  21
ATOM     19  C   UNL     1      -0.018   1.503   0.010  0.00  0.00    +0.068 C 
ATOM     20  C   UNL     1       0.002  -0.004   0.002  0.00  0.00    +0.062 A 
ATOM     21  C   UNL     1       0.008  -0.818  -1.135  0.00  0.00    -0.021 A 
ATOM     22  C   UNL     1       0.028  -2.107  -0.725  0.00  0.00    +0.038 A 
ATOM     23  N   UNL     1       0.034  -2.109   0.625  0.00  0.00    -0.266 N 
ATOM     24  N   UNL     1       0.023  -0.777   1.058  0.00  0.00    -0.176 NA
ATOM     25  C   UNL     1       0.040  -3.323  -1.615  0.00  0.00    +0.065 C 
BRANCH  23  26
ATOM     26  C   UNL     1       0.055  -3.295   1.485  0.00  0.00    +0.171 C 
BRANCH  26  27
ATOM     27  C   UNL     1       1.504  -3.688   1.777  0.00  0.00    +0.179 C 
BRANCH  27  28
ATOM     28  O   UNL     1       1.524  -4.844   2.616  0.00  0.00    -0.393 OA
ATOM     29  H   UNL     1       2.413  -5.150   2.843  0.00  0.00    +0.209 HD
ENDBRANCH  27  28
ENDBRANCH  26  27
ENDBRANCH  23  26
ENDBRANCH  18  21
ENDBRANCH   1  18
TORSDOF 9
