REMARK  Name = ZINC08762924
REMARK  11 active torsions:
REMARK  status: ('A' for Active; 'I' for Inactive)
REMARK    1  A    between atoms: C_1  and  C_2
REMARK    2  A    between atoms: C_2  and  C_4
REMARK    3  A    between atoms: C_2  and  N_57
REMARK    4  A    between atoms: C_11  and  C_13
REMARK    5  A    between atoms: C_11  and  C_14
REMARK    6  A    between atoms: C_11  and  N_57
REMARK    7  A    between atoms: N_16  and  C_17
REMARK    8  A    between atoms: C_20  and  C_23
REMARK    9  A    between atoms: N_25  and  C_26
REMARK   10  A    between atoms: C_31  and  O_32
REMARK   11  A    between atoms: O_32  and  C_33
REMARK                            x       y       z     vdW  Elec       q    Type
REMARK                         _______ _______ _______ _____ _____    ______ ____
ROOT
ATOM      1  C   UNL     1      -1.326   6.003   1.867  0.00  0.00    +0.203 C 
ATOM      2  O   UNL     1      -2.338   5.357   2.033  0.00  0.00    -0.277 OA
ATOM      3  N   UNL     1      -1.396   7.342   1.730  0.00  0.00    -0.287 N 
ATOM      4  H   UNL     1      -0.582   7.868   1.683  0.00  0.00    +0.155 HD
ENDROOT
BRANCH   3   5
ATOM      5  C   UNL     1      -2.638   7.971   1.655  0.00  0.00    +0.033 A 
ATOM      6  C   UNL     1      -3.743   7.272   1.179  0.00  0.00    +0.024 A 
ATOM      7  C   UNL     1      -4.972   7.888   1.108  0.00  0.00    +0.015 A 
ATOM      8  C   UNL     1      -5.106   9.222   1.505  0.00  0.00    +0.037 A 
ATOM      9  C   UNL     1      -3.994   9.923   1.978  0.00  0.00    +0.015 A 
ATOM     10  C   UNL     1      -2.769   9.299   2.051  0.00  0.00    +0.024 A 
BRANCH   8  11
ATOM     11  C   UNL     1      -6.421   9.888   1.426  0.00  0.00    +0.248 C 
ATOM     12  O   UNL     1      -6.537  11.048   1.772  0.00  0.00    -0.270 OA
ATOM     13  N   UNL     1      -7.493   9.210   0.970  0.00  0.00    -0.279 N 
ATOM     14  H   UNL     1      -7.417   8.267   0.758  0.00  0.00    +0.155 HD
BRANCH  13  15
ATOM     15  C   UNL     1      -8.718   9.868   0.802  0.00  0.00    +0.076 A 
ATOM     16  C   UNL     1      -9.092  10.876   1.679  0.00  0.00    +0.027 A 
ATOM     17  C   UNL     1     -10.299  11.528   1.508  0.00  0.00    +0.002 A 
ATOM     18  C   UNL     1     -11.141  11.170   0.472  0.00  0.00    +0.004 A 
ATOM     19  C   UNL     1     -10.778  10.162  -0.403  0.00  0.00    +0.047 A 
ATOM     20  C   UNL     1      -9.567   9.508  -0.242  0.00  0.00    +0.141 A 
BRANCH  20  21
ATOM     21  O   UNL     1      -9.209   8.517  -1.101  0.00  0.00    -0.493 OA
ATOM     22  C   UNL     1     -10.129   8.201  -2.147  0.00  0.00    +0.277 C 
ENDBRANCH  20  21
ENDBRANCH  13  15
ENDBRANCH   8  11
ENDBRANCH   3   5
BRANCH   1  23
ATOM     23  C   UNL     1       0.011   5.310   1.816  0.00  0.00    +0.014 C 
ATOM     24  C   UNL     1       0.906   5.844   2.936  0.00  0.00    -0.004 C 
BRANCH  23  25
ATOM     25  N   UNL     1      -0.189   3.859   1.995  0.00  0.00    +0.391 N 
ATOM     26  H   UNL     1      -0.230   3.644   2.998  0.00  0.00    -0.084 HD
ATOM     27  H   UNL     1      -1.071   3.581   1.549  0.00  0.00    -0.084 HD
BRANCH  25  29
ATOM     28  C   UNL     1       0.639   2.901  -0.108  0.00  0.00    -0.009 C 
ATOM     29  C   UNL     1       0.923   3.109   1.381  0.00  0.00    -0.040 C 
BRANCH  29  30
ATOM     30  C   UNL     1       1.050   1.770   2.060  0.00  0.00    -0.026 A 
ATOM     31  C   UNL     1      -0.045   1.205   2.686  0.00  0.00    +0.005 A 
ATOM     32  C   UNL     1       0.071  -0.024   3.308  0.00  0.00    +0.000 A 
ATOM     33  C   UNL     1       1.283  -0.690   3.305  0.00  0.00    +0.003 A 
ATOM     34  C   UNL     1       2.380  -0.127   2.680  0.00  0.00    +0.038 A 
ATOM     35  C   UNL     1       2.264   1.105   2.057  0.00  0.00    +0.125 A 
ATOM     36  F   UNL     1       3.336   1.656   1.446  0.00  0.00    -0.205 F 
ENDBRANCH  29  30
ENDBRANCH  25  29
ENDBRANCH  23  25
ENDBRANCH   1  23
TORSDOF 8
