REMARK  Name = ZINC39679087
REMARK  13 active torsions:
REMARK  status: ('A' for Active; 'I' for Inactive)
REMARK    1  A    between atoms: C_1  and  N_2
REMARK    2  A    between atoms: N_2  and  C_3
REMARK    3  A    between atoms: N_2  and  C_4
REMARK    4  A    between atoms: C_4  and  C_5
REMARK    5  A    between atoms: C_5  and  C_6
REMARK    6  A    between atoms: C_6  and  C_7
REMARK    7  A    between atoms: C_7  and  N_8
REMARK    8  A    between atoms: C_9  and  C_11
REMARK    9  A    between atoms: C_22  and  C_24
REMARK   10  A    between atoms: C_24  and  C_25
REMARK   11  A    between atoms: C_25  and  C_26
REMARK   12  A    between atoms: C_29  and  O_32
REMARK   13  A    between atoms: O_32  and  C_33
REMARK                            x       y       z     vdW  Elec       q    Type
REMARK                         _______ _______ _______ _____ _____    ______ ____
ROOT
ATOM      1  C   UNL     1      -5.795  -6.442  -0.330  0.00  0.00    +0.100 C 
ATOM      2  C   UNL     1      -6.613  -5.804  -1.475  0.00  0.00    +0.121 C 
ATOM      3  N   UNL     1      -6.526  -6.780  -2.587  0.00  0.00    -0.300 N 
ATOM      4  C   UNL     1      -6.629  -8.103  -1.925  0.00  0.00    +0.115 C 
ATOM      5  C   UNL     1      -5.811  -7.951  -0.627  0.00  0.00    -0.004 C 
ATOM      6  C   UNL     1      -6.486  -8.707   0.513  0.00  0.00    -0.010 C 
ATOM      7  C   UNL     1      -6.438 -10.210   0.223  0.00  0.00    -0.082 C 
ATOM      8  N   UNL     1      -5.041 -10.639   0.084  0.00  0.00    +0.379 N 
ATOM      9  C   UNL     1      -4.427  -9.976  -1.073  0.00  0.00    -0.082 C 
ATOM     10  C   UNL     1      -4.390  -8.464  -0.837  0.00  0.00    -0.010 C 
ATOM     11  C   UNL     1      -6.385  -6.523  -3.903  0.00  0.00    +0.216 C 
ATOM     12  O   UNL     1      -6.329  -7.438  -4.697  0.00  0.00    -0.276 OA
ATOM     13  H   UNL     1      -4.531 -10.395   0.920  0.00  0.00    -0.086 HD
ATOM     14  H   UNL     1      -5.010 -11.639  -0.047  0.00  0.00    -0.086 HD
ENDROOT
BRANCH   1  16
ATOM     15  N   UNL     1      -3.676  -5.862   0.806  0.00  0.00    -0.315 N 
ATOM     16  C   UNL     1      -4.381  -5.921  -0.341  0.00  0.00    +0.218 C 
ATOM     17  O   UNL     1      -3.878  -5.554  -1.382  0.00  0.00    -0.275 OA
ATOM     18  H   UNL     1      -4.079  -6.155   1.638  0.00  0.00    +0.149 HD
BRANCH  15  19
ATOM     19  C   UNL     1      -2.302  -5.355   0.795  0.00  0.00    +0.104 C 
BRANCH  19  20
ATOM     20  C   UNL     1      -1.733  -5.394   2.215  0.00  0.00    +0.017 C 
BRANCH  20  21
ATOM     21  C   UNL     1      -0.298  -4.864   2.204  0.00  0.00    -0.017 C 
BRANCH  21  22
ATOM     22  C   UNL     1       0.271  -4.903   3.624  0.00  0.00    -0.080 C 
BRANCH  22  24
ATOM     23  C   UNL     1       2.154  -4.319   4.992  0.00  0.00    -0.097 C 
ATOM     24  N   UNL     1       1.649  -4.394   3.614  0.00  0.00    +0.376 N 
ATOM     25  C   UNL     1       2.499  -5.300   2.830  0.00  0.00    -0.097 C 
ATOM     26  H   UNL     1       1.665  -3.475   3.199  0.00  0.00    -0.083 HD
ENDBRANCH  22  24
ENDBRANCH  21  22
ENDBRANCH  20  21
ENDBRANCH  19  20
ENDBRANCH  15  19
ENDBRANCH   1  16
BRANCH  11  27
ATOM     27  C   UNL     1      -6.297  -5.099  -4.387  0.00  0.00    +0.100 C 
BRANCH  27  28
ATOM     28  C   UNL     1      -6.142  -5.087  -5.909  0.00  0.00    +0.044 C 
BRANCH  28  29
ATOM     29  C   UNL     1      -6.053  -3.663  -6.394  0.00  0.00    -0.047 A 
ATOM     30  C   UNL     1      -7.205  -2.976  -6.732  0.00  0.00    +0.007 A 
ATOM     31  C   UNL     1      -7.127  -1.671  -7.177  0.00  0.00    +0.046 A 
ATOM     32  C   UNL     1      -5.892  -1.048  -7.284  0.00  0.00    +0.120 A 
ATOM     33  C   UNL     1      -4.738  -1.739  -6.944  0.00  0.00    +0.046 A 
ATOM     34  C   UNL     1      -4.822  -3.043  -6.495  0.00  0.00    +0.007 A 
BRANCH  32  35
ATOM     35  O   UNL     1      -5.812   0.236  -7.722  0.00  0.00    -0.495 OA
ATOM     36  C   UNL     1      -4.507   0.812  -7.807  0.00  0.00    +0.277 C 
ENDBRANCH  32  35
ENDBRANCH  28  29
ENDBRANCH  27  28
ENDBRANCH  11  27
TORSDOF 10
