REMARK  Name = ZINC45069620
REMARK  8 active torsions:
REMARK  status: ('A' for Active; 'I' for Inactive)
REMARK    1  A    between atoms: C_1  and  C_2
REMARK    2  A    between atoms: C_2  and  C_4
REMARK    3  A    between atoms: C_2  and  N_13
REMARK    4  A    between atoms: N_13  and  C_14
REMARK    5  A    between atoms: C_14  and  C_15
REMARK    6  A    between atoms: C_15  and  C_16
REMARK    7  A    between atoms: C_16  and  S_17
REMARK    8  A    between atoms: S_17  and  N_20
REMARK                            x       y       z     vdW  Elec       q    Type
REMARK                         _______ _______ _______ _____ _____    ______ ____
ROOT
ATOM      1  N   UNL     1       0.713  -0.491   1.192  0.00  0.00    +0.383 N 
ATOM      2  H   UNL     1       0.290  -0.099   2.020  0.00  0.00    -0.085 HD
ATOM      3  H   UNL     1       0.655  -1.497   1.230  0.00  0.00    -0.085 HD
ENDROOT
BRANCH   1   5
ATOM      4  C   UNL     1      -0.019   1.526   0.010  0.00  0.00    -0.009 C 
ATOM      5  C   UNL     1       0.002  -0.004   0.002  0.00  0.00    -0.043 C 
BRANCH   5   6
ATOM      6  C   UNL     1      -1.412  -0.526   0.013  0.00  0.00    -0.042 A 
ATOM      7  C   UNL     1      -2.014  -0.864   1.210  0.00  0.00    +0.005 A 
ATOM      8  C   UNL     1      -3.311  -1.342   1.221  0.00  0.00    +0.022 A 
ATOM      9  C   UNL     1      -4.007  -1.484   0.034  0.00  0.00    +0.061 A 
ATOM     10  C   UNL     1      -3.405  -1.146  -1.165  0.00  0.00    +0.078 A 
ATOM     11  C   UNL     1      -2.108  -0.661  -1.175  0.00  0.00    +0.062 A 
ATOM     12 CL   UNL     1      -1.353  -0.229  -2.678  0.00  0.00    -0.082 Cl
ATOM     13 CL   UNL     1      -4.277  -1.323  -2.656  0.00  0.00    -0.081 Cl
ATOM     14 CL   UNL     1      -5.635  -2.086   0.049  0.00  0.00    -0.082 Cl
ENDBRANCH   5   6
ENDBRANCH   1   5
BRANCH   1  15
ATOM     15  C   UNL     1       2.122  -0.083   1.122  0.00  0.00    -0.080 C 
BRANCH  15  16
ATOM     16  C   UNL     1       2.862  -0.589   2.361  0.00  0.00    +0.005 C 
BRANCH  16  17
ATOM     17  C   UNL     1       4.330  -0.164   2.288  0.00  0.00    +0.183 C 
BRANCH  17  18
ATOM     18  S   UNL     1       5.207  -0.765   3.758  0.00  0.00    +0.027 S 
ATOM     19  O   UNL     1       4.742  -0.087   4.917  0.00  0.00    -0.158 OA
ATOM     20  O   UNL     1       5.290  -2.183   3.733  0.00  0.00    -0.158 OA
BRANCH  18  21
ATOM     21  N   UNL     1       6.768  -0.247   3.563  0.00  0.00    -0.208 NA
ATOM     22  H   UNL     1       7.015   0.263   2.776  0.00  0.00    +0.144 HD
ATOM     23  H   UNL     1       7.435  -0.453   4.237  0.00  0.00    +0.144 HD
ENDBRANCH  18  21
ENDBRANCH  17  18
ENDBRANCH  16  17
ENDBRANCH  15  16
ENDBRANCH   1  15
TORSDOF 7
