REMARK  Name = ZINC44910088
REMARK  5 active torsions:
REMARK  status: ('A' for Active; 'I' for Inactive)
REMARK    1  A    between atoms: C_9  and  C_12
REMARK    2  A    between atoms: C_12  and  N_13
REMARK    3  A    between atoms: N_16  and  C_17
REMARK    4  A    between atoms: C_17  and  C_18
REMARK    5  A    between atoms: C_18  and  N_19
REMARK                            x       y       z     vdW  Elec       q    Type
REMARK                         _______ _______ _______ _____ _____    ______ ____
ROOT
ATOM      1  N   UNL     1       6.008  -1.982  -0.760  0.00  0.00    -0.296 N 
ATOM      2  C   UNL     1       7.280  -2.393  -0.587  0.00  0.00    +0.300 C 
ATOM      3  O   UNL     1       7.522  -3.319   0.164  0.00  0.00    -0.253 OA
ATOM      4  N   UNL     1       8.283  -1.779  -1.245  0.00  0.00    -0.298 N 
ATOM      5  H   UNL     1       5.815  -1.243  -1.358  0.00  0.00    +0.150 HD
ATOM      6  H   UNL     1       8.089  -1.040  -1.843  0.00  0.00    +0.150 HD
ENDROOT
BRANCH   1   7
ATOM      7  C   UNL     1       4.918  -2.649  -0.044  0.00  0.00    +0.153 C 
BRANCH   7  16
ATOM      8  C   UNL     1      -0.017   1.378   0.010  0.00  0.00    +0.004 A 
ATOM      9  C   UNL     1       1.170   2.088   0.002  0.00  0.00    +0.004 A 
ATOM     10  C   UNL     1       2.378   1.418  -0.012  0.00  0.00    +0.049 A 
ATOM     11  C   UNL     1       2.404   0.031  -0.019  0.00  0.00    +0.163 A 
ATOM     12  C   UNL     1       1.212  -0.683  -0.014  0.00  0.00    +0.162 A 
ATOM     13  C   UNL     1       0.002  -0.004   0.002  0.00  0.00    +0.049 A 
ATOM     14  O   UNL     1       1.214  -2.043  -0.029  0.00  0.00    -0.485 OA
ATOM     15  C   UNL     1       2.441  -2.689   0.331  0.00  0.00    +0.275 C 
ATOM     16  C   UNL     1       3.587  -1.993  -0.416  0.00  0.00    +0.228 C 
ATOM     17  O   UNL     1       3.602  -0.615  -0.029  0.00  0.00    -0.480 OA
ENDBRANCH   7  16
ENDBRANCH   1   7
BRANCH   4  18
ATOM     18  C   UNL     1       9.665  -2.227  -1.056  0.00  0.00    +0.124 C 
BRANCH  18  19
ATOM     19  C   UNL     1      10.600  -1.369  -1.911  0.00  0.00    +0.121 C 
BRANCH  19  20
ATOM     20  N   UNL     1      11.982  -1.816  -1.723  0.00  0.00    -0.329 N 
ATOM     21  C   UNL     1      13.016  -1.183  -2.402  0.00  0.00    +0.096 A 
ATOM     22  C   UNL     1      12.733  -0.120  -3.254  0.00  0.00    +0.041 A 
ATOM     23  C   UNL     1      13.771   0.501  -3.923  0.00  0.00    +0.005 A 
ATOM     24  C   UNL     1      15.064   0.037  -3.717  0.00  0.00    +0.018 A 
ATOM     25  C   UNL     1      15.273  -1.022  -2.857  0.00  0.00    +0.084 A 
ATOM     26  N   UNL     1      14.263  -1.592  -2.227  0.00  0.00    -0.350 N 
ATOM     27  H   UNL     1      12.175  -2.555  -1.125  0.00  0.00    +0.147 HD
ATOM     28  H   UNL     1      14.438  -2.332  -1.625  0.00  0.00    +0.166 HD
ENDBRANCH  19  20
ENDBRANCH  18  19
ENDBRANCH   4  18
TORSDOF 5
