REMARK  Name = ZINC05062292
REMARK  7 active torsions:
REMARK  status: ('A' for Active; 'I' for Inactive)
REMARK    1  A    between atoms: C_3  and  S_23
REMARK    2  A    between atoms: C_6  and  C_7
REMARK    3  A    between atoms: C_7  and  C_8
REMARK    4  A    between atoms: C_8  and  N_9
REMARK    5  A    between atoms: C_10  and  C_12
REMARK    6  A    between atoms: C_12  and  C_13
REMARK    7  A    between atoms: S_23  and  N_26
REMARK                            x       y       z     vdW  Elec       q    Type
REMARK                         _______ _______ _______ _____ _____    ______ ____
ROOT
ATOM      1  C   UNL     1      -1.293  -0.775   0.011  0.00  0.00    +0.054 C 
ENDROOT
BRANCH   1   7
ATOM      2  C   UNL     1      -0.017   1.378   0.010  0.00  0.00    +0.005 A 
ATOM      3  C   UNL     1       1.171   2.086   0.002  0.00  0.00    +0.029 A 
ATOM      4  C   UNL     1       2.377   1.411  -0.013  0.00  0.00    +0.105 A 
ATOM      5  C   UNL     1       2.396   0.029  -0.020  0.00  0.00    +0.029 A 
ATOM      6  C   UNL     1       1.208  -0.679  -0.012  0.00  0.00    +0.005 A 
ATOM      7  C   UNL     1       0.002  -0.004   0.002  0.00  0.00    -0.046 A 
BRANCH   4   8
ATOM      8  S   UNL     1       3.891   2.312  -0.024  0.00  0.00    +0.056 S 
ATOM      9  O   UNL     1       4.872   1.453  -0.588  0.00  0.00    -0.153 OA
ATOM     10  O   UNL     1       3.597   3.593  -0.566  0.00  0.00    -0.153 OA
BRANCH   8  11
ATOM     11  N   UNL     1       4.327   2.556   1.555  0.00  0.00    -0.204 NA
ATOM     12  H   UNL     1       5.265   2.623   1.794  0.00  0.00    +0.144 HD
ATOM     13  H   UNL     1       3.645   2.631   2.241  0.00  0.00    +0.144 HD
ENDBRANCH   8  11
ENDBRANCH   4   8
ENDBRANCH   1   7
BRANCH   1  14
ATOM     14  C   UNL     1      -1.745  -1.028  -1.429  0.00  0.00    +0.109 C 
BRANCH  14  15
ATOM     15  N   UNL     1      -3.004  -1.778  -1.420  0.00  0.00    -0.315 N 
ATOM     16  C   UNL     1      -3.594  -2.117  -2.584  0.00  0.00    +0.213 C 
ATOM     17  O   UNL     1      -3.084  -1.801  -3.637  0.00  0.00    -0.276 OA
ATOM     18  H   UNL     1      -3.412  -2.031  -0.578  0.00  0.00    +0.149 HD
BRANCH  16  19
ATOM     19  C   UNL     1      -4.889  -2.888  -2.575  0.00  0.00    +0.099 C 
BRANCH  19  20
ATOM     20  C   UNL     1      -5.341  -3.141  -4.014  0.00  0.00    +0.001 C 
ATOM     21  C   UNL     1      -5.751  -1.814  -4.692  0.00  0.00    +0.007 C 
ATOM     22  C   UNL     1      -7.255  -2.004  -5.056  0.00  0.00    -0.010 C 
ATOM     23  C   UNL     1      -7.246  -3.035  -6.226  0.00  0.00    +0.004 C 
ATOM     24  C   UNL     1      -6.831  -4.370  -5.567  0.00  0.00    +0.004 C 
ATOM     25  C   UNL     1      -6.635  -4.012  -4.032  0.00  0.00    -0.007 C 
ATOM     26  C   UNL     1      -7.732  -2.899  -3.857  0.00  0.00    +0.007 C 
ENDBRANCH  19  20
ENDBRANCH  16  19
ENDBRANCH  14  15
ENDBRANCH   1  14
TORSDOF 7
