REMARK  Name = ZINC36066266
REMARK  10 active torsions:
REMARK  status: ('A' for Active; 'I' for Inactive)
REMARK    1  A    between atoms: C_1  and  C_2
REMARK    2  A    between atoms: C_2  and  N_3
REMARK    3  A    between atoms: C_7  and  C_9
REMARK    4  A    between atoms: C_9  and  N_10
REMARK    5  A    between atoms: C_11  and  C_36
REMARK    6  A    between atoms: C_19  and  C_25
REMARK    7  A    between atoms: N_27  and  C_28
REMARK    8  A    between atoms: C_32  and  O_34
REMARK    9  A    between atoms: O_34  and  C_35
REMARK   10  A    between atoms: N_38  and  C_39
REMARK                            x       y       z     vdW  Elec       q    Type
REMARK                         _______ _______ _______ _____ _____    ______ ____
ROOT
ATOM      1  N   UNL     1      -1.304  -1.907   0.941  0.00  0.00    -0.288 N 
ATOM      2  C   UNL     1      -1.999  -0.971   1.880  0.00  0.00    +0.198 C 
ATOM      3  C   UNL     1      -3.433  -1.359   1.698  0.00  0.00    +0.127 C 
ATOM      4  C   UNL     1      -3.760  -2.710   2.308  0.00  0.00    +0.009 C 
ATOM      5  C   UNL     1      -5.050  -2.907   2.076  0.00  0.00    +0.004 C 
ATOM      6  C   UNL     1      -5.497  -1.687   1.262  0.00  0.00    +0.155 C 
ATOM      7  O   UNL     1      -4.626  -0.622   1.829  0.00  0.00    -0.358 OA
ATOM      8  C   UNL     1      -4.839  -1.966  -0.145  0.00  0.00    +0.123 C 
ATOM      9  C   UNL     1      -3.405  -1.509   0.124  0.00  0.00    +0.128 C 
ATOM     10  C   UNL     1      -2.175  -2.301  -0.045  0.00  0.00    +0.223 C 
ATOM     11  O   UNL     1      -1.971  -3.144  -0.893  0.00  0.00    -0.275 OA
ENDROOT
BRANCH   8  12
ATOM     12  C   UNL     1      -4.903  -3.432  -0.490  0.00  0.00    +0.224 C 
ATOM     13  O   UNL     1      -3.880  -4.061  -0.656  0.00  0.00    -0.275 OA
ATOM     14  N   UNL     1      -6.098  -4.043  -0.616  0.00  0.00    -0.285 N 
ATOM     15  H   UNL     1      -6.916  -3.527  -0.547  0.00  0.00    +0.155 HD
BRANCH  14  16
ATOM     16  C   UNL     1      -6.158  -5.422  -0.845  0.00  0.00    +0.037 A 
ATOM     17  C   UNL     1      -7.181  -6.176  -0.285  0.00  0.00    +0.023 A 
ATOM     18  C   UNL     1      -7.240  -7.538  -0.511  0.00  0.00    +0.005 A 
ATOM     19  C   UNL     1      -6.282  -8.153  -1.295  0.00  0.00    +0.046 A 
ATOM     20  C   UNL     1      -5.257  -7.404  -1.857  0.00  0.00    +0.122 A 
ATOM     21  C   UNL     1      -5.198  -6.037  -1.637  0.00  0.00    +0.069 A 
BRANCH  20  22
ATOM     22  O   UNL     1      -4.315  -8.010  -2.627  0.00  0.00    -0.495 OA
ATOM     23  C   UNL     1      -4.442  -9.421  -2.816  0.00  0.00    +0.277 C 
ENDBRANCH  20  22
ENDBRANCH  14  16
ENDBRANCH   8  12
BRANCH   2  24
ATOM     24  C   UNL     1      -1.553  -1.203   3.301  0.00  0.00    +0.237 C 
ATOM     25  O   UNL     1      -1.173  -2.302   3.645  0.00  0.00    -0.274 OA
ATOM     26  N   UNL     1      -1.576  -0.190   4.189  0.00  0.00    -0.311 N 
ATOM     27  H   UNL     1      -1.943   0.671   3.933  0.00  0.00    +0.149 HD
BRANCH  26  28
ATOM     28  C   UNL     1      -1.048  -0.388   5.541  0.00  0.00    +0.073 C 
ATOM     29  C   UNL     1      -2.134  -0.997   6.429  0.00  0.00    +0.022 C 
ATOM     30  C   UNL     1      -1.582  -1.204   7.841  0.00  0.00    +0.002 C 
ATOM     31  C   UNL     1      -1.146   0.143   8.420  0.00  0.00    +0.000 C 
ATOM     32  C   UNL     1      -0.059   0.752   7.532  0.00  0.00    +0.002 C 
ATOM     33  C   UNL     1      -0.611   0.959   6.120  0.00  0.00    +0.022 C 
ENDBRANCH  26  28
ENDBRANCH   2  24
BRANCH   1  34
ATOM     34  C   UNL     1       0.093  -2.332   1.054  0.00  0.00    +0.093 C 
BRANCH  34  39
ATOM     35  N   UNL     1       2.404  -1.727   0.467  0.00  0.00    +0.382 N 
ATOM     36  C   UNL     1       2.961  -2.014  -0.872  0.00  0.00    -0.078 C 
ATOM     37  C   UNL     1       2.067  -1.214  -1.852  0.00  0.00    -0.020 C 
ATOM     38  C   UNL     1       0.670  -1.363  -1.195  0.00  0.00    -0.016 C 
ATOM     39  C   UNL     1       0.990  -1.337   0.314  0.00  0.00    -0.051 C 
ATOM     40  H   UNL     1       2.920  -0.971   0.893  0.00  0.00    -0.081 HD
BRANCH  35  42
ATOM     41  C   UNL     1       3.970  -3.275   1.539  0.00  0.00    -0.017 C 
ATOM     42  C   UNL     1       2.498  -2.927   1.309  0.00  0.00    -0.082 C 
ENDBRANCH  35  42
ENDBRANCH  34  39
ENDBRANCH   1  34
TORSDOF 8
