REMARK  Name = ZINC04192189
REMARK  7 active torsions:
REMARK  status: ('A' for Active; 'I' for Inactive)
REMARK    1  A    between atoms: C_1  and  C_2
REMARK    2  A    between atoms: C_3  and  O_28
REMARK    3  A    between atoms: C_11  and  C_13
REMARK    4  A    between atoms: C_20  and  C_26
REMARK    5  A    between atoms: C_20  and  C_27
REMARK    6  A    between atoms: C_22  and  S_24
REMARK    7  A    between atoms: S_24  and  C_25
REMARK                            x       y       z     vdW  Elec       q    Type
REMARK                         _______ _______ _______ _____ _____    ______ ____
ROOT
ATOM      1  C   UNL     1      -0.018   1.503   0.010  0.00  0.00    +0.051 C 
ATOM      2  C   UNL     1       0.002  -0.004   0.002  0.00  0.00    +0.033 A 
ATOM      3  C   UNL     1       0.006  -0.688  -1.202  0.00  0.00    +0.123 A 
ATOM      4  C   UNL     1       0.025  -2.076  -1.208  0.00  0.00    +0.046 A 
ATOM      5  C   UNL     1       0.043  -2.769  -0.015  0.00  0.00    +0.011 A 
ATOM      6  C   UNL     1       0.042  -2.088   1.192  0.00  0.00    +0.002 A 
ATOM      7  C   UNL     1       0.023  -0.704   1.203  0.00  0.00    +0.134 A 
ATOM      8  O   UNL     1       0.012   0.002   2.363  0.00  0.00    -0.466 OA
ATOM      9  C   UNL     1       0.406  -0.673   3.559  0.00  0.00    +0.186 C 
ATOM     10  C   UNL     1      -0.362  -1.999   3.640  0.00  0.00    +0.084 C 
ATOM     11  C   UNL     1       0.070  -2.884   2.472  0.00  0.00    +0.058 C 
ATOM     12  C   UNL     1       0.047   0.191   4.771  0.00  0.00    +0.096 C 
ATOM     13  C   UNL     1       0.997   1.398   4.805  0.00  0.00    +0.034 C 
ATOM     14  N   UNL     1       2.368   0.875   4.904  0.00  0.00    -0.320 N 
ATOM     15  C   UNL     1       2.718  -0.214   4.140  0.00  0.00    +0.131 C 
ATOM     16  N   UNL     1       1.839  -0.939   3.527  0.00  0.00    -0.331 N 
ATOM     17  C   UNL     1       0.684   2.272   6.020  0.00  0.00    +0.031 C 
ATOM     18  C   UNL     1       0.843   2.216   3.521  0.00  0.00    +0.031 C 
ATOM     19  H   UNL     1       3.014   1.291   5.497  0.00  0.00    +0.148 HD
ATOM     20  H   UNL     1       2.152  -1.703   3.017  0.00  0.00    +0.165 HD
ENDROOT
BRANCH  11  21
ATOM     21  C   UNL     1      -0.862  -4.062   2.351  0.00  0.00    -0.040 A 
ATOM     22  C   UNL     1      -2.207  -3.857   2.108  0.00  0.00    +0.004 A 
ATOM     23  C   UNL     1      -3.061  -4.938   1.997  0.00  0.00    +0.000 A 
ATOM     24  C   UNL     1      -2.570  -6.224   2.129  0.00  0.00    +0.000 A 
ATOM     25  C   UNL     1      -1.225  -6.428   2.371  0.00  0.00    +0.000 A 
ATOM     26  C   UNL     1      -0.370  -5.348   2.478  0.00  0.00    +0.004 A 
ENDBRANCH  11  21
BRANCH  15  27
ATOM     27  S   UNL     1       4.422  -0.636   3.991  0.00  0.00    -0.096 S 
ATOM     28  C   UNL     1       5.274   0.618   4.988  0.00  0.00    +0.092 C 
ENDBRANCH  15  27
BRANCH   3  29
ATOM     29  O   UNL     1      -0.010  -0.002  -2.375  0.00  0.00    -0.506 OA
ATOM     30  H   UNL     1       0.869   0.208  -2.719  0.00  0.00    +0.292 HD
ENDBRANCH   3  29
TORSDOF 3
