REMARK  Name = ZINC49753808
REMARK  9 active torsions:
REMARK  status: ('A' for Active; 'I' for Inactive)
REMARK    1  A    between atoms: C_5  and  N_7
REMARK    2  A    between atoms: C_8  and  C_10
REMARK    3  A    between atoms: C_10  and  N_11
REMARK    4  A    between atoms: N_11  and  C_12
REMARK    5  A    between atoms: N_11  and  C_15
REMARK    6  A    between atoms: C_12  and  C_13
REMARK    7  A    between atoms: C_13  and  O_14
REMARK    8  A    between atoms: C_15  and  C_16
REMARK    9  A    between atoms: C_16  and  O_17
REMARK                            x       y       z     vdW  Elec       q    Type
REMARK                         _______ _______ _______ _____ _____    ______ ____
ROOT
ATOM      1  N   UNL     1       0.419  -1.239  -0.951  0.00  0.00    -0.286 N 
ATOM      2  C   UNL     1      -0.445  -2.161  -0.481  0.00  0.00    +0.201 C 
ATOM      3  O   UNL     1      -1.585  -1.844  -0.216  0.00  0.00    -0.278 OA
ATOM      4  H   UNL     1       1.306  -1.507  -1.238  0.00  0.00    +0.155 HD
ENDROOT
BRANCH   1   9
ATOM      5  C   UNL     1      -1.352   1.913  -0.284  0.00  0.00    +0.002 A 
ATOM      6  C   UNL     1      -0.721   2.762  -1.174  0.00  0.00    +0.001 A 
ATOM      7  C   UNL     1       0.288   2.287  -1.991  0.00  0.00    +0.016 A 
ATOM      8  C   UNL     1       0.669   0.960  -1.920  0.00  0.00    +0.035 A 
ATOM      9  C   UNL     1       0.036   0.105  -1.026  0.00  0.00    +0.047 A 
ATOM     10  C   UNL     1      -0.977   0.586  -0.207  0.00  0.00    +0.024 A 
ATOM     11  I   UNL     1       2.197   0.239  -3.158  0.00  0.00    -0.042 I 
ENDBRANCH   1   9
BRANCH   2  12
ATOM     12  C   UNL     1       0.006  -3.585  -0.285  0.00  0.00    +0.019 C 
BRANCH  12  13
ATOM     13  N   UNL     1      -1.111  -4.386   0.233  0.00  0.00    +0.388 N 
ATOM     14  H   UNL     1      -1.471  -3.958   1.073  0.00  0.00    -0.081 HD
BRANCH  13  15
ATOM     15  C   UNL     1      -2.176  -4.451  -0.778  0.00  0.00    -0.050 C 
BRANCH  15  16
ATOM     16  C   UNL     1      -3.405  -5.139  -0.180  0.00  0.00    +0.137 C 
BRANCH  16  17
ATOM     17  O   UNL     1      -3.936  -4.334   0.875  0.00  0.00    -0.397 OA
ATOM     18  H   UNL     1      -4.718  -4.710   1.300  0.00  0.00    +0.209 HD
ENDBRANCH  16  17
ENDBRANCH  15  16
ENDBRANCH  13  15
BRANCH  13  19
ATOM     19  C   UNL     1      -0.641  -5.744   0.537  0.00  0.00    -0.050 C 
BRANCH  19  20
ATOM     20  C   UNL     1       0.368  -5.689   1.686  0.00  0.00    +0.137 C 
BRANCH  20  21
ATOM     21  O   UNL     1      -0.287  -5.241   2.874  0.00  0.00    -0.397 OA
ATOM     22  H   UNL     1       0.307  -5.109   3.625  0.00  0.00    +0.209 HD
ENDBRANCH  20  21
ENDBRANCH  19  20
ENDBRANCH  13  19
ENDBRANCH  12  13
ENDBRANCH   2  12
TORSDOF 9
