REMARK  Name = ZINC47579653
REMARK  6 active torsions:
REMARK  status: ('A' for Active; 'I' for Inactive)
REMARK    1  A    between atoms: C_1  and  C_2
REMARK    2  A    between atoms: C_7  and  C_10
REMARK    3  A    between atoms: C_14  and  C_17
REMARK    4  A    between atoms: C_17  and  N_18
REMARK    5  A    between atoms: N_21  and  C_22
REMARK    6  A    between atoms: C_22  and  C_23
REMARK                            x       y       z     vdW  Elec       q    Type
REMARK                         _______ _______ _______ _____ _____    ______ ____
ROOT
ATOM      1  C   UNL     1      -0.045  -2.168   3.728  0.00  0.00    +0.039 C 
ATOM      2  C   UNL     1      -0.987  -1.773   2.589  0.00  0.00    +0.133 C 
ATOM      3  C   UNL     1      -0.596  -2.529   1.315  0.00  0.00    +0.137 C 
ATOM      4  N   UNL     1      -1.389  -1.995   0.196  0.00  0.00    -0.312 N 
ATOM      5  C   UNL     1      -1.418  -0.537   0.002  0.00  0.00    +0.137 C 
ATOM      6  C   UNL     1      -1.770   0.122   1.341  0.00  0.00    +0.133 C 
ATOM      7  O   UNL     1      -0.886  -0.366   2.353  0.00  0.00    -0.371 OA
ATOM      8  C   UNL     1      -3.214  -0.218   1.714  0.00  0.00    +0.039 C 
ATOM      9  C   UNL     1      -2.091  -2.844  -0.652  0.00  0.00    +0.099 A 
ATOM     10  C   UNL     1      -2.927  -2.308  -1.627  0.00  0.00    +0.042 A 
ATOM     11  C   UNL     1      -3.619  -3.164  -2.464  0.00  0.00    +0.010 A 
ATOM     12  C   UNL     1      -3.451  -4.533  -2.299  0.00  0.00    -0.014 A 
ATOM     13  C   UNL     1      -2.604  -4.995  -1.311  0.00  0.00    +0.089 A 
ATOM     14  N   UNL     1      -1.953  -4.155  -0.530  0.00  0.00    -0.349 N 
ATOM     15  H   UNL     1      -1.361  -4.507   0.154  0.00  0.00    +0.167 HD
ENDROOT
BRANCH  12  16
ATOM     16  C   UNL     1      -4.185  -5.503  -3.188  0.00  0.00    +0.142 C 
BRANCH  16  17
ATOM     17  N   UNL     1      -3.369  -5.796  -4.369  0.00  0.00    -0.295 N 
ATOM     18  C   UNL     1      -3.827  -6.645  -5.310  0.00  0.00    +0.300 C 
ATOM     19  O   UNL     1      -4.917  -7.168  -5.179  0.00  0.00    -0.253 OA
ATOM     20  N   UNL     1      -3.077  -6.914  -6.397  0.00  0.00    -0.297 N 
ATOM     21  H   UNL     1      -2.500  -5.378  -4.474  0.00  0.00    +0.151 HD
ATOM     22  H   UNL     1      -2.208  -6.497  -6.502  0.00  0.00    +0.150 HD
BRANCH  20  23
ATOM     23  C   UNL     1      -3.575  -7.837  -7.420  0.00  0.00    +0.137 C 
BRANCH  23  24
ATOM     24  C   UNL     1      -2.538  -7.967  -8.538  0.00  0.00    +0.135 C 
ATOM     25  C   UNL     1      -3.103  -8.841  -9.678  0.00  0.00    +0.035 C 
ATOM     26  C   UNL     1      -1.863  -9.675 -10.099  0.00  0.00    +0.031 C 
ATOM     27  C   UNL     1      -1.149  -9.852  -8.735  0.00  0.00    +0.160 C 
ATOM     28  O   UNL     1      -1.361  -8.612  -8.037  0.00  0.00    -0.375 OA
ENDBRANCH  23  24
ENDBRANCH  20  23
ENDBRANCH  16  17
ENDBRANCH  12  16
TORSDOF 4
