REMARK  Name = ZINC25680387
REMARK  7 active torsions:
REMARK  status: ('A' for Active; 'I' for Inactive)
REMARK    1  A    between atoms: C_1  and  C_2
REMARK    2  A    between atoms: C_2  and  C_4
REMARK    3  A    between atoms: C_2  and  N_19
REMARK    4  A    between atoms: N_6  and  C_7
REMARK    5  A    between atoms: C_8  and  C_17
REMARK    6  A    between atoms: C_22  and  C_25
REMARK    7  A    between atoms: C_28  and  O_31
REMARK                            x       y       z     vdW  Elec       q    Type
REMARK                         _______ _______ _______ _____ _____    ______ ____
ROOT
ATOM      1  C   UNL     1      -0.130   8.127  -0.000  0.00  0.00    -0.004 C 
ATOM      2  C   UNL     1       1.345   7.766   0.185  0.00  0.00    +0.017 C 
ENDROOT
BRANCH   2   3
ATOM      3  N   UNL     1       1.496   6.305   0.179  0.00  0.00    +0.390 N 
ATOM      4  C   UNL     1       1.231   5.752  -1.159  0.00  0.00    -0.073 C 
ATOM      5  C   UNL     1       1.712   4.297  -1.185  0.00  0.00    +0.017 C 
ATOM      6  C   UNL     1       1.168   3.564   0.010  0.00  0.00    -0.048 C 
ATOM      7  C   UNL     1       0.683   4.185   1.063  0.00  0.00    -0.041 C 
ATOM      8  C   UNL     1       0.613   5.681   1.172  0.00  0.00    -0.050 C 
ATOM      9  H   UNL     1       2.538   6.078   0.452  0.00  0.00    -0.080 HD
BRANCH   6  10
ATOM     10  C   UNL     1       1.184   2.087   0.002  0.00  0.00    -0.022 A 
ATOM     11  C   UNL     1      -0.017   1.374   0.010  0.00  0.00    +0.012 A 
ATOM     12  C   UNL     1       0.002  -0.004   0.002  0.00  0.00    +0.046 A 
ATOM     13  C   UNL     1       1.213  -0.684  -0.013  0.00  0.00    +0.117 A 
ATOM     14  C   UNL     1       2.409   0.021  -0.021  0.00  0.00    +0.046 A 
ATOM     15  C   UNL     1       2.399   1.400  -0.013  0.00  0.00    +0.012 A 
BRANCH  13  16
ATOM     16  O   UNL     1       1.227  -2.042  -0.020  0.00  0.00    -0.507 OA
ATOM     17  H   UNL     1       2.186  -2.582  -0.032  0.00  0.00    +0.292 HD
ENDBRANCH  13  16
ENDBRANCH   6  10
ENDBRANCH   2   3
BRANCH   2  18
ATOM     18  C   UNL     1       1.836   8.317   1.499  0.00  0.00    +0.204 C 
ATOM     19  O   UNL     1       2.269   7.567   2.347  0.00  0.00    -0.277 OA
ATOM     20  N   UNL     1       1.793   9.644   1.731  0.00  0.00    -0.280 N 
ATOM     21  H   UNL     1       1.400  10.325   0.962  0.00  0.00    +0.155 HD
BRANCH  20  22
ATOM     22  C   UNL     1       2.245  10.152   2.941  0.00  0.00    +0.090 A 
ATOM     23  C   UNL     1       2.282  11.471   3.361  0.00  0.00    +0.084 A 
ATOM     24  C   UNL     1       2.807  11.745   4.692  0.00  0.00    -0.018 A 
ATOM     25  C   UNL     1       3.216  10.655   5.378  0.00  0.00    -0.004 A 
ATOM     26  S   UNL     1       2.894   9.289   4.296  0.00  0.00    -0.077 S 
ATOM     27  C   UNL     1       3.811  10.607   6.750  0.00  0.00    +0.043 C 
ATOM     28  C   UNL     1       2.941  11.433   7.707  0.00  0.00    +0.005 C 
ATOM     29  C   UNL     1       3.446  12.873   7.698  0.00  0.00    +0.001 C 
ATOM     30  C   UNL     1       3.984  13.232   6.314  0.00  0.00    +0.005 C 
ATOM     31  C   UNL     1       2.873  13.152   5.272  0.00  0.00    +0.037 C 
BRANCH  23  32
ATOM     32  C   UNL     1       1.820  12.530   2.516  0.00  0.00    +0.102 C 
ATOM     33  N   UNL     1       1.453  13.371   1.846  0.00  0.00    -0.191 NA
ENDBRANCH  23  32
ENDBRANCH  20  22
ENDBRANCH   2  18
TORSDOF 6
