REMARK  Name = ZINC20002115
REMARK  6 active torsions:
REMARK  status: ('A' for Active; 'I' for Inactive)
REMARK    1  A    between atoms: C_4  and  C_9
REMARK    2  A    between atoms: C_5  and  C_7
REMARK    3  A    between atoms: C_7  and  N_8
REMARK    4  A    between atoms: C_9  and  S_10
REMARK    5  A    between atoms: S_10  and  N_13
REMARK    6  A    between atoms: N_13  and  C_14
REMARK                            x       y       z     vdW  Elec       q    Type
REMARK                         _______ _______ _______ _____ _____    ______ ____
ROOT
ATOM      1  S   UNL     1      -1.810   0.589   1.967  0.00  0.00    +0.034 S 
ATOM      2  O   UNL     1      -2.281   1.362   3.063  0.00  0.00    -0.158 OA
ATOM      3  O   UNL     1      -2.696   0.182   0.934  0.00  0.00    -0.158 OA
ENDROOT
BRANCH   1   4
ATOM      4  N   UNL     1      -0.698   1.558   1.214  0.00  0.00    -0.191 NA
ATOM      5  H   UNL     1      -0.362   2.479   1.712  0.00  0.00    +0.148 HD
BRANCH   4   6
ATOM      6  C   UNL     1      -0.013   1.086   0.008  0.00  0.00    +0.076 C 
ATOM      7  C   UNL     1      -0.753   1.593  -1.231  0.00  0.00    +0.020 C 
ATOM      8  C   UNL     1       0.150   1.452  -2.458  0.00  0.00    +0.002 C 
ATOM      9  C   UNL     1       0.200  -0.015  -2.889  0.00  0.00    +0.000 C 
ATOM     10  C   UNL     1       1.104  -0.797  -1.935  0.00  0.00    +0.000 C 
ATOM     11  C   UNL     1       2.376   0.008  -1.661  0.00  0.00    +0.000 C 
ATOM     12  C   UNL     1       2.395   0.450  -0.196  0.00  0.00    +0.002 C 
ATOM     13  C   UNL     1       1.423   1.615  -0.003  0.00  0.00    +0.020 C 
ENDBRANCH   4   6
ENDBRANCH   1   4
BRANCH   1  14
ATOM     14  C   UNL     1      -0.857  -0.832   2.570  0.00  0.00    +0.220 C 
BRANCH  14  18
ATOM     15  C   UNL     1      -3.468  -3.547   4.584  0.00  0.00    +0.000 A 
ATOM     16  C   UNL     1      -2.844  -2.536   5.290  0.00  0.00    +0.000 A 
ATOM     17  C   UNL     1      -1.995  -1.660   4.639  0.00  0.00    +0.005 A 
ATOM     18  C   UNL     1      -1.778  -1.790   3.280  0.00  0.00    -0.024 A 
ATOM     19  C   UNL     1      -2.402  -2.801   2.574  0.00  0.00    -0.060 A 
ATOM     20  C   UNL     1      -3.247  -3.680   3.226  0.00  0.00    +0.002 A 
BRANCH  19  21
ATOM     21  C   UNL     1      -2.160  -2.946   1.094  0.00  0.00    -0.050 C 
BRANCH  21  22
ATOM     22  N   UNL     1      -0.880  -3.630   0.871  0.00  0.00    +0.381 N 
ATOM     23  H   UNL     1      -0.704  -3.736  -0.210  0.00  0.00    -0.090 HD
ATOM     24  H   UNL     1      -0.911  -4.626   1.337  0.00  0.00    -0.090 HD
ATOM     25  H   UNL     1      -0.067  -3.041   1.319  0.00  0.00    -0.090 HD
ENDBRANCH  21  22
ENDBRANCH  19  21
ENDBRANCH  14  18
ENDBRANCH   1  14
TORSDOF 6
