REMARK  Name = ZINC08751037
REMARK  7 active torsions:
REMARK  status: ('A' for Active; 'I' for Inactive)
REMARK    1  A    between atoms: C_1  and  C_2
REMARK    2  A    between atoms: C_2  and  C_4
REMARK    3  A    between atoms: C_2  and  O_15
REMARK    4  A    between atoms: N_6  and  C_7
REMARK    5  A    between atoms: C_12  and  C_13
REMARK    6  A    between atoms: O_15  and  C_16
REMARK    7  A    between atoms: C_16  and  C_18
REMARK                            x       y       z     vdW  Elec       q    Type
REMARK                         _______ _______ _______ _____ _____    ______ ____
ROOT
ATOM      1  C   UNL     1       1.403   4.393  -0.520  0.00  0.00    +0.062 C 
ATOM      2  C   UNL     1       1.230   3.415   0.644  0.00  0.00    +0.259 C 
ENDROOT
BRANCH   2   3
ATOM      3  C   UNL     1      -0.218   3.012   0.750  0.00  0.00    +0.258 C 
ATOM      4  O   UNL     1      -0.533   1.846   0.640  0.00  0.00    -0.271 OA
ATOM      5  N   UNL     1      -1.164   3.948   0.962  0.00  0.00    -0.281 N 
ATOM      6  H   UNL     1      -0.908   4.871   1.115  0.00  0.00    +0.155 HD
BRANCH   5   7
ATOM      7  C   UNL     1      -2.512   3.590   0.961  0.00  0.00    +0.051 A 
ATOM      8  C   UNL     1      -2.905   2.353   1.453  0.00  0.00    +0.024 A 
ATOM      9  C   UNL     1      -4.240   2.003   1.456  0.00  0.00    +0.002 A 
ATOM     10  C   UNL     1      -5.195   2.875   0.960  0.00  0.00    +0.001 A 
ATOM     11  C   UNL     1      -4.823   4.105   0.462  0.00  0.00    +0.021 A 
ATOM     12  C   UNL     1      -3.476   4.476   0.457  0.00  0.00    +0.073 A 
BRANCH  12  13
ATOM     13  C   UNL     1      -3.082   5.752  -0.059  0.00  0.00    +0.101 C 
ATOM     14  N   UNL     1      -2.770   6.764  -0.469  0.00  0.00    -0.191 NA
ENDBRANCH  12  13
ENDBRANCH   5   7
ENDBRANCH   2   3
BRANCH   2  15
ATOM     15  O   UNL     1       2.045   2.236   0.411  0.00  0.00    -0.448 OA
BRANCH  15  16
ATOM     16  C   UNL     1       3.306   2.260   0.886  0.00  0.00    +0.362 C 
ATOM     17  O   UNL     1       3.713   3.239   1.480  0.00  0.00    -0.243 OA
BRANCH  16  18
ATOM     18  C   UNL     1       4.190   1.099   0.687  0.00  0.00    +0.188 A 
ATOM     19  C   UNL     1       5.573   1.115   1.197  0.00  0.00    +0.135 A 
ATOM     20  N   UNL     1       6.355  -0.002   0.985  0.00  0.00    -0.345 N 
ATOM     21  H   UNL     1       7.269  -0.033   1.308  0.00  0.00    +0.167 HD
ATOM     22  C   UNL     1       5.822  -1.056   0.313  0.00  0.00    +0.104 A 
ATOM     23  C   UNL     1       4.543  -1.020  -0.142  0.00  0.00    +0.129 A 
ATOM     24  N   UNL     1       3.758   0.029   0.043  0.00  0.00    -0.244 NA
ATOM     25  H   UNL     1       6.943   2.248   2.204  0.00  0.00    +0.157 HD
ATOM     26  N   UNL     1       5.992   2.205   1.839  0.00  0.00    -0.383 N 
ATOM     27  H   UNL     1       5.357   3.002   1.966  0.00  0.00    +0.157 HD
ENDBRANCH  16  18
ENDBRANCH  15  16
ENDBRANCH   2  15
TORSDOF 6
