REMARK  Name = ZINC35999743
REMARK  7 active torsions:
REMARK  status: ('A' for Active; 'I' for Inactive)
REMARK    1  A    between atoms: C_1  and  C_2
REMARK    2  A    between atoms: C_5  and  N_9
REMARK    3  A    between atoms: C_7  and  O_8
REMARK    4  A    between atoms: C_10  and  C_12
REMARK    5  A    between atoms: C_17  and  O_30
REMARK    6  A    between atoms: N_22  and  N_23
REMARK    7  A    between atoms: N_23  and  C_24
REMARK                            x       y       z     vdW  Elec       q    Type
REMARK                         _______ _______ _______ _____ _____    ______ ____
ROOT
ATOM      1  C   UNL     1      -0.181  -6.284  -1.187  0.00  0.00    +0.099 A 
ATOM      2  C   UNL     1      -0.168  -6.981  -2.374  0.00  0.00    +0.030 A 
ATOM      3  C   UNL     1      -0.210  -8.444  -2.303  0.00  0.00    +0.018 A 
ATOM      4  C   UNL     1       0.068  -9.222  -3.434  0.00  0.00    +0.015 A 
ATOM      5  C   UNL     1       0.026 -10.584  -3.348  0.00  0.00    +0.046 A 
ATOM      6  C   UNL     1      -0.291 -11.206  -2.143  0.00  0.00    +0.120 A 
ATOM      7  C   UNL     1      -0.571 -10.450  -1.013  0.00  0.00    +0.092 A 
ATOM      8  C   UNL     1      -0.534  -9.069  -1.084  0.00  0.00    +0.141 A 
ATOM      9  O   UNL     1      -0.811  -8.313   0.009  0.00  0.00    -0.437 OA
ATOM     10  C   UNL     1      -0.232  -7.076   0.063  0.00  0.00    +0.224 A 
ATOM     11  N   UNL     1       0.256  -6.607   1.177  0.00  0.00    -0.276 N 
ATOM     12  H   UNL     1       0.754  -5.774   1.176  0.00  0.00    +0.187 HD
ENDROOT
BRANCH   1  14
ATOM     13  N   UNL     1      -0.293  -4.156   0.005  0.00  0.00    -0.281 N 
ATOM     14  C   UNL     1      -0.140  -4.814  -1.161  0.00  0.00    +0.253 C 
ATOM     15  O   UNL     1       0.032  -4.192  -2.193  0.00  0.00    -0.270 OA
ATOM     16  H   UNL     1      -0.377  -4.652   0.835  0.00  0.00    +0.155 HD
BRANCH  13  21
ATOM     17  C   UNL     1      -0.440   1.518   0.054  0.00  0.00    +0.047 C 
ATOM     18  C   UNL     1      -0.401   0.011   0.042  0.00  0.00    -0.009 A 
ATOM     19  C   UNL     1       0.410  -0.651  -0.859  0.00  0.00    +0.009 A 
ATOM     20  C   UNL     1       0.448  -2.032  -0.873  0.00  0.00    +0.024 A 
ATOM     21  C   UNL     1      -0.330  -2.758   0.020  0.00  0.00    +0.037 A 
ATOM     22  C   UNL     1      -1.145  -2.095   0.926  0.00  0.00    +0.069 A 
ATOM     23  C   UNL     1      -1.176  -0.709   0.941  0.00  0.00    +0.122 A 
BRANCH  23  24
ATOM     24  O   UNL     1      -1.969  -0.056   1.830  0.00  0.00    -0.506 OA
ATOM     25  H   UNL     1      -2.862   0.121   1.505  0.00  0.00    +0.292 HD
ENDBRANCH  23  24
ENDBRANCH  13  21
ENDBRANCH   1  14
BRANCH  11  26
ATOM     26  N   UNL     1       0.060  -7.304   2.377  0.00  0.00    -0.258 N 
ATOM     27  H   UNL     1      -0.438  -8.137   2.378  0.00  0.00    +0.172 HD
BRANCH  26  28
ATOM     28  C   UNL     1       0.581  -6.803   3.567  0.00  0.00    +0.046 A 
ATOM     29  C   UNL     1       1.291  -5.606   3.568  0.00  0.00    +0.024 A 
ATOM     30  C   UNL     1       1.806  -5.113   4.750  0.00  0.00    +0.002 A 
ATOM     31  C   UNL     1       1.617  -5.806   5.932  0.00  0.00    +0.000 A 
ATOM     32  C   UNL     1       0.912  -6.996   5.935  0.00  0.00    +0.002 A 
ATOM     33  C   UNL     1       0.389  -7.494   4.758  0.00  0.00    +0.024 A 
ENDBRANCH  26  28
ENDBRANCH  11  26
BRANCH   6  34
ATOM     34  O   UNL     1      -0.328 -12.561  -2.073  0.00  0.00    -0.507 OA
ATOM     35  H   UNL     1       0.517 -12.965  -1.834  0.00  0.00    +0.292 HD
ENDBRANCH   6  34
TORSDOF 6
