REMARK  Name = ZINC22965795
REMARK  16 active torsions:
REMARK  status: ('A' for Active; 'I' for Inactive)
REMARK    1  A    between atoms: C_1  and  C_2
REMARK    2  A    between atoms: C_2  and  C_3
REMARK    3  A    between atoms: C_3  and  C_4
REMARK    4  A    between atoms: C_4  and  N_5
REMARK    5  A    between atoms: N_5  and  C_6
REMARK    6  A    between atoms: C_7  and  N_19
REMARK    7  A    between atoms: N_8  and  C_15
REMARK    8  A    between atoms: C_15  and  C_16
REMARK    9  A    between atoms: C_16  and  C_17
REMARK   10  A    between atoms: C_16  and  C_18
REMARK   11  A    between atoms: C_20  and  C_22
REMARK   12  A    between atoms: C_22  and  N_23
REMARK   13  A    between atoms: N_23  and  C_24
REMARK   14  A    between atoms: N_23  and  C_25
REMARK   15  A    between atoms: C_25  and  C_26
REMARK   16  A    between atoms: C_31  and  C_32
REMARK                            x       y       z     vdW  Elec       q    Type
REMARK                         _______ _______ _______ _____ _____    ______ ____
ROOT
ATOM      1  N   UNL     1       1.170   1.368  -0.388  0.00  0.00    -0.266 N 
ATOM      2  C   UNL     1      -0.050   0.811  -0.541  0.00  0.00    +0.203 C 
ATOM      3  O   UNL     1      -0.154  -0.388  -0.693  0.00  0.00    -0.277 OA
ENDROOT
BRANCH   1   4
ATOM      4  C   UNL     1       2.315   0.548  -0.308  0.00  0.00    +0.140 A 
ATOM      5  C   UNL     1       2.478  -0.329   0.746  0.00  0.00    +0.127 A 
ATOM      6  N   UNL     1       3.605  -1.116   0.796  0.00  0.00    -0.280 N 
ATOM      7  C   UNL     1       4.537  -1.032  -0.170  0.00  0.00    +0.331 A 
ATOM      8  O   UNL     1       5.527  -1.737  -0.107  0.00  0.00    -0.246 OA
ATOM      9  N   UNL     1       4.396  -0.184  -1.204  0.00  0.00    -0.273 N 
ATOM     10  H   UNL     1       5.173  -0.128  -1.980  0.00  0.00    +0.173 HD
ATOM     11  C   UNL     1       3.308   0.605  -1.304  0.00  0.00    +0.277 A 
ATOM     12  O   UNL     1       3.187   1.367  -2.248  0.00  0.00    -0.266 OA
BRANCH   5  13
ATOM     13  N   UNL     1       1.526  -0.414   1.733  0.00  0.00    -0.343 N 
ATOM     14  H   UNL     1       1.662  -1.115   2.570  0.00  0.00    +0.144 HD
ATOM     15  H   UNL     1       0.627   0.219   1.686  0.00  0.00    +0.144 HD
ENDBRANCH   5  13
BRANCH   6  16
ATOM     16  C   UNL     1       3.790  -2.051   1.909  0.00  0.00    +0.131 C 
BRANCH  16  17
ATOM     17  C   UNL     1       3.172  -3.403   1.547  0.00  0.00    +0.003 C 
ATOM     18  C   UNL     1       3.936  -4.015   0.371  0.00  0.00    +0.009 C 
ATOM     19  C   UNL     1       3.254  -4.340   2.753  0.00  0.00    +0.009 C 
ENDBRANCH  16  17
ENDBRANCH   6  16
ENDBRANCH   1   4
BRANCH   1  20
ATOM     20  C   UNL     1       1.305   2.825  -0.306  0.00  0.00    +0.114 C 
BRANCH  20  21
ATOM     21  C   UNL     1       1.305   3.255   1.162  0.00  0.00    +0.019 C 
BRANCH  21  23
ATOM     22  C   UNL     1       1.446   5.206   2.716  0.00  0.00    +0.004 C 
ATOM     23  C   UNL     1       1.446   4.776   1.248  0.00  0.00    -0.002 C 
ENDBRANCH  21  23
ENDBRANCH  20  21
ENDBRANCH   1  20
BRANCH   2  24
ATOM     24  C   UNL     1      -1.281   1.679  -0.529  0.00  0.00    +0.019 C 
BRANCH  24  25
ATOM     25  N   UNL     1      -2.473   0.842  -0.719  0.00  0.00    +0.386 N 
ATOM     26  C   UNL     1      -2.670  -0.060   0.424  0.00  0.00    -0.095 C 
ATOM     27  H   UNL     1      -2.312   0.223  -1.614  0.00  0.00    -0.081 HD
BRANCH  25  28
ATOM     28  C   UNL     1      -3.666   1.667  -0.950  0.00  0.00    -0.042 C 
BRANCH  28  29
ATOM     29  C   UNL     1      -4.807   0.788  -1.392  0.00  0.00    -0.052 A 
ATOM     30  C   UNL     1      -5.838   0.501  -0.516  0.00  0.00    +0.002 A 
ATOM     31  C   UNL     1      -6.887  -0.301  -0.923  0.00  0.00    +0.000 A 
ATOM     32  C   UNL     1      -6.901  -0.825  -2.203  0.00  0.00    +0.001 A 
ATOM     33  C   UNL     1      -5.869  -0.541  -3.076  0.00  0.00    +0.012 A 
ATOM     34  C   UNL     1      -4.821   0.265  -2.671  0.00  0.00    +0.056 A 
BRANCH  34  35
ATOM     35  C   UNL     1      -3.695   0.574  -3.624  0.00  0.00    +0.418 C 
ATOM     36  F   UNL     1      -3.945  -0.041  -4.856  0.00  0.00    -0.166 F 
ATOM     37  F   UNL     1      -3.603   1.958  -3.804  0.00  0.00    -0.166 F 
ATOM     38  F   UNL     1      -2.493   0.091  -3.097  0.00  0.00    -0.166 F 
ENDBRANCH  34  35
ENDBRANCH  28  29
ENDBRANCH  25  28
ENDBRANCH  24  25
ENDBRANCH   2  24
TORSDOF 12
