REMARK  Name = ZINC55214223
REMARK  5 active torsions:
REMARK  status: ('A' for Active; 'I' for Inactive)
REMARK    1  A    between atoms: C_1  and  C_2
REMARK    2  A    between atoms: C_3  and  S_9
REMARK    3  A    between atoms: N_5  and  C_7
REMARK    4  A    between atoms: S_9  and  N_12
REMARK    5  A    between atoms: C_20  and  C_22
REMARK                            x       y       z     vdW  Elec       q    Type
REMARK                         _______ _______ _______ _____ _____    ______ ____
ROOT
ATOM      1  S   UNL     1      -0.203  -0.318  -2.649  0.00  0.00    +0.066 S 
ATOM      2  O   UNL     1      -0.620   0.625  -1.672  0.00  0.00    -0.153 OA
ATOM      3  O   UNL     1      -0.316  -1.720  -2.451  0.00  0.00    -0.153 OA
ENDROOT
BRANCH   1   4
ATOM      4  N   UNL     1       1.395  -0.010  -2.953  0.00  0.00    -0.169 NA
ATOM      5  C   UNL     1       2.009   1.250  -2.509  0.00  0.00    +0.115 C 
ATOM      6  C   UNL     1       3.080   0.922  -1.458  0.00  0.00    +0.060 C 
ATOM      7  C   UNL     1       3.862  -0.263  -1.925  0.00  0.00    -0.004 A 
ATOM      8  C   UNL     1       3.530  -1.153  -2.898  0.00  0.00    -0.019 A 
ATOM      9  C   UNL     1       4.436  -2.185  -3.139  0.00  0.00    +0.013 A 
ATOM     10  C   UNL     1       5.582  -2.259  -2.425  0.00  0.00    +0.046 A 
ATOM     11  S   UNL     1       5.436  -0.842  -1.346  0.00  0.00    -0.101 S 
ATOM     12  C   UNL     1       2.222  -0.995  -3.663  0.00  0.00    +0.107 C 
ATOM     13  C   UNL     1       1.492  -2.338  -3.722  0.00  0.00    +0.031 C 
ENDBRANCH   1   4
BRANCH   1  16
ATOM     14  C   UNL     1      -1.503  -2.372  -4.918  0.00  0.00    +0.069 C 
ATOM     15  C   UNL     1      -1.612  -0.873  -5.030  0.00  0.00    +0.088 A 
ATOM     16  C   UNL     1      -1.094   0.056  -4.123  0.00  0.00    +0.164 A 
ATOM     17  C   UNL     1      -1.400   1.296  -4.576  0.00  0.00    +0.153 A 
ATOM     18  N   UNL     1      -2.087   1.153  -5.730  0.00  0.00    -0.254 N 
ATOM     19  N   UNL     1      -2.202  -0.217  -5.996  0.00  0.00    -0.173 NA
ATOM     20  C   UNL     1      -2.614   2.240  -6.559  0.00  0.00    +0.174 C 
ATOM     21 CL   UNL     1      -0.984   2.797  -3.811  0.00  0.00    -0.060 Cl
ENDBRANCH   1  16
TORSDOF 2
