REMARK  Name = ZINC02111826
REMARK  4 active torsions:
REMARK  status: ('A' for Active; 'I' for Inactive)
REMARK    1  A    between atoms: C_1  and  C_2
REMARK    2  A    between atoms: C_2  and  O_4
REMARK    3  A    between atoms: O_4  and  C_5
REMARK    4  A    between atoms: C_9  and  C_16
REMARK                            x       y       z     vdW  Elec       q    Type
REMARK                         _______ _______ _______ _____ _____    ______ ____
ROOT
ATOM      1  C   UNL     1      -0.024   1.368   0.003  0.00  0.00    +0.135 A 
ATOM      2  C   UNL     1       1.173   2.075   0.084  0.00  0.00    +0.047 A 
ATOM      3  C   UNL     1       2.368   1.413   0.063  0.00  0.00    +0.016 A 
ATOM      4  C   UNL     1       2.390   0.021  -0.041  0.00  0.00    +0.026 A 
ATOM      5  C   UNL     1       3.664  -0.719  -0.065  0.00  0.00    +0.006 A 
ATOM      6  C   UNL     1       3.609  -2.099  -0.168  0.00  0.00    +0.101 A 
ATOM      7  C   UNL     1       2.361  -2.736  -0.245  0.00  0.00    +0.338 A 
ATOM      8  O   UNL     1       2.322  -3.951  -0.336  0.00  0.00    -0.245 OA
ATOM      9  O   UNL     1       1.210  -2.046  -0.222  0.00  0.00    -0.422 OA
ATOM     10  C   UNL     1       1.186  -0.699  -0.122  0.00  0.00    +0.143 A 
ATOM     11  C   UNL     1      -0.020  -0.013  -0.100  0.00  0.00    +0.093 A 
ENDROOT
BRANCH   5  12
ATOM     12  C   UNL     1       4.956  -0.012   0.018  0.00  0.00    +0.068 A 
ATOM     13  C   UNL     1       5.843  -0.040  -1.043  0.00  0.00    +0.027 A 
ATOM     14  C   UNL     1       7.072   0.658  -0.922  0.00  0.00    +0.019 A 
ATOM     15  C   UNL     1       7.991   0.655  -1.982  0.00  0.00    +0.026 A 
ATOM     16  C   UNL     1       9.175   1.324  -1.857  0.00  0.00    +0.019 A 
ATOM     17  C   UNL     1       9.476   2.010  -0.687  0.00  0.00    +0.019 A 
ATOM     18  C   UNL     1       8.587   2.026   0.366  0.00  0.00    +0.048 A 
ATOM     19  C   UNL     1       7.375   1.351   0.263  0.00  0.00    +0.139 A 
ATOM     20  O   UNL     1       6.505   1.369   1.296  0.00  0.00    -0.422 OA
ATOM     21  C   UNL     1       5.326   0.728   1.230  0.00  0.00    +0.345 A 
ATOM     22  O   UNL     1       4.564   0.762   2.178  0.00  0.00    -0.245 OA
ATOM     23 BR   UNL     1      10.412   1.319  -3.287  0.00  0.00    -0.050 Br
ENDBRANCH   5  12
BRANCH   1  24
ATOM     24  O   UNL     1      -1.205   2.038   0.019  0.00  0.00    -0.426 OA
BRANCH  24  26
ATOM     25  C   UNL     1      -3.357   2.492   1.141  0.00  0.00    +0.136 C 
ATOM     26  C   UNL     1      -1.978   1.885   1.106  0.00  0.00    +0.309 C 
ATOM     27  O   UNL     1      -1.568   1.262   2.056  0.00  0.00    -0.251 OA
ENDBRANCH  24  26
ENDBRANCH   1  24
TORSDOF 3
