REMARK  Name = ZINC17903453
REMARK  8 active torsions:
REMARK  status: ('A' for Active; 'I' for Inactive)
REMARK    1  A    between atoms: C_7  and  N_23
REMARK    2  A    between atoms: C_9  and  N_11
REMARK    3  A    between atoms: C_12  and  C_14
REMARK    4  A    between atoms: C_14  and  O_15
REMARK    5  A    between atoms: O_15  and  C_16
REMARK    6  A    between atoms: C_24  and  C_26
REMARK    7  A    between atoms: C_26  and  O_27
REMARK    8  A    between atoms: O_27  and  C_28
REMARK                            x       y       z     vdW  Elec       q    Type
REMARK                         _______ _______ _______ _____ _____    ______ ____
ROOT
ATOM      1  C   UNL     1      -0.148   0.979   1.007  0.00  0.00    +0.002 A 
ATOM      2  C   UNL     1       0.680   1.904   0.448  0.00  0.00    +0.009 A 
ATOM      3  C   UNL     1       1.921   1.507  -0.079  0.00  0.00    -0.014 A 
ATOM      4  C   UNL     1       2.795   2.441  -0.661  0.00  0.00    +0.009 A 
ATOM      5  C   UNL     1       3.992   2.031  -1.164  0.00  0.00    +0.002 A 
ATOM      6  C   UNL     1       4.372   0.694  -1.113  0.00  0.00    +0.024 A 
ATOM      7  C   UNL     1       3.543  -0.253  -0.550  0.00  0.00    +0.043 A 
ATOM      8  C   UNL     1       2.298   0.143  -0.021  0.00  0.00    +0.025 A 
ATOM      9  C   UNL     1       1.421  -0.793   0.563  0.00  0.00    +0.043 A 
ATOM     10  C   UNL     1       0.212  -0.364   1.069  0.00  0.00    +0.024 A 
ENDROOT
BRANCH   9  11
ATOM     11  N   UNL     1       1.773  -2.142   0.630  0.00  0.00    -0.282 N 
ATOM     12  C   UNL     1       0.880  -3.090   0.283  0.00  0.00    +0.255 C 
ATOM     13  O   UNL     1      -0.198  -2.770  -0.172  0.00  0.00    -0.272 OA
ATOM     14  H   UNL     1       2.661  -2.397   0.926  0.00  0.00    +0.155 HD
BRANCH  12  15
ATOM     15  C   UNL     1       1.220  -4.547   0.462  0.00  0.00    +0.324 C 
BRANCH  15  16
ATOM     16  O   UNL     1       0.121  -5.349   0.026  0.00  0.00    -0.483 OA
BRANCH  16  17
ATOM     17  C   UNL     1       0.265  -6.697   0.120  0.00  0.00    +0.121 A 
ATOM     18  C   UNL     1       1.439  -7.236   0.627  0.00  0.00    +0.047 A 
ATOM     19  C   UNL     1       1.584  -8.607   0.722  0.00  0.00    +0.023 A 
ATOM     20  C   UNL     1       0.560  -9.442   0.311  0.00  0.00    +0.041 A 
ATOM     21  C   UNL     1      -0.611  -8.906  -0.195  0.00  0.00    +0.023 A 
ATOM     22  C   UNL     1      -0.762  -7.536  -0.285  0.00  0.00    +0.047 A 
ATOM     23 CL   UNL     1       0.745 -11.164   0.431  0.00  0.00    -0.084 Cl
ENDBRANCH  16  17
ENDBRANCH  15  16
ENDBRANCH  12  15
ENDBRANCH   9  11
BRANCH   7  24
ATOM     24  N   UNL     1       3.933  -1.593  -0.505  0.00  0.00    -0.282 N 
ATOM     25  C   UNL     1       5.204  -1.915  -0.192  0.00  0.00    +0.255 C 
ATOM     26  O   UNL     1       6.032  -1.041  -0.049  0.00  0.00    -0.272 OA
ATOM     27  H   UNL     1       3.289  -2.292  -0.699  0.00  0.00    +0.155 HD
BRANCH  25  28
ATOM     28  C   UNL     1       5.594  -3.360  -0.021  0.00  0.00    +0.324 C 
BRANCH  28  29
ATOM     29  O   UNL     1       6.983  -3.442   0.306  0.00  0.00    -0.483 OA
BRANCH  29  30
ATOM     30  C   UNL     1       7.500  -4.685   0.496  0.00  0.00    +0.121 A 
ATOM     31  C   UNL     1       6.688  -5.802   0.364  0.00  0.00    +0.047 A 
ATOM     32  C   UNL     1       7.215  -7.064   0.557  0.00  0.00    +0.023 A 
ATOM     33  C   UNL     1       8.552  -7.215   0.882  0.00  0.00    +0.041 A 
ATOM     34  C   UNL     1       9.363  -6.102   1.014  0.00  0.00    +0.023 A 
ATOM     35  C   UNL     1       8.841  -4.838   0.815  0.00  0.00    +0.047 A 
ATOM     36 CL   UNL     1       9.212  -8.802   1.125  0.00  0.00    -0.084 Cl
ENDBRANCH  29  30
ENDBRANCH  28  29
ENDBRANCH  25  28
ENDBRANCH   7  24
TORSDOF 8
