REMARK  Name = ZINC46685493
REMARK  9 active torsions:
REMARK  status: ('A' for Active; 'I' for Inactive)
REMARK    1  A    between atoms: C_4  and  C_7
REMARK    2  A    between atoms: C_7  and  C_8
REMARK    3  A    between atoms: C_8  and  C_10
REMARK    4  A    between atoms: C_8  and  N_25
REMARK    5  A    between atoms: N_16  and  C_19
REMARK    6  A    between atoms: C_19  and  C_20
REMARK    7  A    between atoms: C_26  and  O_28
REMARK    8  A    between atoms: O_28  and  C_29
REMARK    9  A    between atoms: C_29  and  C_30
REMARK                            x       y       z     vdW  Elec       q    Type
REMARK                         _______ _______ _______ _____ _____    ______ ____
ROOT
ATOM      1  C   UNL     1       4.171  -0.963   1.399  0.00  0.00    +0.166 C 
ENDROOT
BRANCH   1   2
ATOM      2  C   UNL     1       5.543  -1.588   1.383  0.00  0.00    +0.236 C 
ATOM      3  O   UNL     1       5.715  -2.683   1.875  0.00  0.00    -0.274 OA
ATOM      4  N   UNL     1       6.577  -0.931   0.823  0.00  0.00    -0.302 N 
ATOM      5  C   UNL     1       6.338   0.404   0.236  0.00  0.00    +0.106 C 
ATOM      6  C   UNL     1       7.485   1.372   0.579  0.00  0.00    +0.000 C 
ATOM      7  C   UNL     1       7.923   1.148   2.009  0.00  0.00    -0.077 C 
ATOM      8  N   UNL     1       9.036   0.202   2.030  0.00  0.00    +0.384 N 
ATOM      9  C   UNL     1       8.661  -1.159   2.092  0.00  0.00    -0.059 C 
ATOM     10  C   UNL     1       7.883  -1.555   0.822  0.00  0.00    +0.089 C 
ATOM     11  H   UNL     1       9.588   0.342   1.197  0.00  0.00    -0.081 HD
BRANCH   8  12
ATOM     12  C   UNL     1       9.880   0.504   3.194  0.00  0.00    -0.036 C 
BRANCH  12  13
ATOM     13  C   UNL     1      11.102  -0.377   3.171  0.00  0.00    -0.027 A 
ATOM     14  C   UNL     1      12.310  -0.146   2.602  0.00  0.00    +0.009 A 
ATOM     15  C   UNL     1      13.296  -1.109   2.709  0.00  0.00    +0.008 A 
ATOM     16  C   UNL     1      13.026  -2.255   3.380  0.00  0.00    +0.045 A 
ATOM     17  S   UNL     1      11.337  -1.993   3.894  0.00  0.00    -0.103 S 
ENDBRANCH  12  13
ENDBRANCH   8  12
ENDBRANCH   1   2
BRANCH   1  18
ATOM     18  N   UNL     1       3.229  -1.870   2.059  0.00  0.00    -0.269 N 
ATOM     19  C   UNL     1       2.116  -1.379   2.640  0.00  0.00    +0.401 C 
ATOM     20  O   UNL     1       1.895  -0.184   2.616  0.00  0.00    -0.226 OA
ATOM     21  H   UNL     1       3.406  -2.823   2.078  0.00  0.00    +0.153 HD
BRANCH  19  22
ATOM     22  O   UNL     1       1.250  -2.212   3.247  0.00  0.00    -0.446 OA
BRANCH  22  23
ATOM     23  C   UNL     1       0.092  -1.623   3.842  0.00  0.00    +0.269 C 
BRANCH  23  24
ATOM     24  C   UNL     1      -0.754  -2.701   4.469  0.00  0.00    -0.010 A 
ATOM     25  C   UNL     1      -1.734  -3.331   3.724  0.00  0.00    +0.007 A 
ATOM     26  C   UNL     1      -2.511  -4.320   4.299  0.00  0.00    +0.000 A 
ATOM     27  C   UNL     1      -2.306  -4.679   5.618  0.00  0.00    +0.000 A 
ATOM     28  C   UNL     1      -1.326  -4.051   6.362  0.00  0.00    +0.000 A 
ATOM     29  C   UNL     1      -0.546  -3.065   5.786  0.00  0.00    +0.007 A 
ENDBRANCH  23  24
ENDBRANCH  22  23
ENDBRANCH  19  22
ENDBRANCH   1  18
BRANCH   1  30
ATOM     30  C   UNL     1       3.711  -0.707  -0.038  0.00  0.00    +0.067 C 
BRANCH  30  34
ATOM     31  C   UNL     1      -0.017   1.378   0.010  0.00  0.00    +0.000 A 
ATOM     32  C   UNL     1       1.171   2.086   0.002  0.00  0.00    +0.000 A 
ATOM     33  C   UNL     1       2.377   1.411  -0.013  0.00  0.00    +0.004 A 
ATOM     34  C   UNL     1       2.396   0.029  -0.020  0.00  0.00    -0.045 A 
ATOM     35  C   UNL     1       1.208  -0.679  -0.012  0.00  0.00    +0.004 A 
ATOM     36  C   UNL     1       0.002  -0.004   0.002  0.00  0.00    +0.000 A 
ENDBRANCH  30  34
ENDBRANCH   1  30
TORSDOF 9
