REMARK  Name = ZINC27520247
REMARK  8 active torsions:
REMARK  status: ('A' for Active; 'I' for Inactive)
REMARK    1  A    between atoms: C_1  and  C_2
REMARK    2  A    between atoms: C_2  and  O_3
REMARK    3  A    between atoms: O_3  and  C_4
REMARK    4  A    between atoms: C_4  and  C_6
REMARK    5  A    between atoms: C_10  and  N_11
REMARK    6  A    between atoms: C_13  and  C_23
REMARK    7  A    between atoms: N_25  and  C_26
REMARK    8  A    between atoms: C_30  and  C_32
REMARK                            x       y       z     vdW  Elec       q    Type
REMARK                         _______ _______ _______ _____ _____    ______ ____
ROOT
ATOM      1  N   UNL     1      -6.238   2.845   0.879  0.00  0.00    -0.319 N 
ATOM      2  C   UNL     1      -6.156   1.628   0.372  0.00  0.00    +0.212 A 
ATOM      3  C   UNL     1      -4.858   0.941   0.243  0.00  0.00    +0.098 A 
ATOM      4  C   UNL     1      -4.870  -0.447   0.238  0.00  0.00    +0.030 A 
ATOM      5  C   UNL     1      -6.124  -1.107   0.320  0.00  0.00    +0.020 A 
ATOM      6  C   UNL     1      -6.187  -2.494   0.505  0.00  0.00    +0.031 A 
ATOM      7  C   UNL     1      -7.412  -3.113   0.614  0.00  0.00    +0.042 A 
ATOM      8  C   UNL     1      -8.584  -2.372   0.530  0.00  0.00    +0.023 A 
ATOM      9  C   UNL     1      -8.538  -1.008   0.322  0.00  0.00    +0.048 A 
ATOM     10  C   UNL     1      -7.315  -0.365   0.200  0.00  0.00    +0.138 A 
ATOM     11  O   UNL     1      -7.263   0.965  -0.054  0.00  0.00    -0.439 OA
ATOM     12 CL   UNL     1      -7.494  -4.830   0.858  0.00  0.00    -0.084 Cl
ATOM     13  H   UNL     1      -5.327   3.363   1.214  0.00  0.00    +0.169 HD
ENDROOT
BRANCH   1  18
ATOM     14  C   UNL     1      -7.737   4.722   1.495  0.00  0.00    +0.093 A 
ATOM     15  C   UNL     1      -9.130   5.135   1.489  0.00  0.00    -0.021 A 
ATOM     16  C   UNL     1     -10.018   4.242   0.998  0.00  0.00    -0.004 A 
ATOM     17  S   UNL     1      -9.046   2.839   0.523  0.00  0.00    -0.075 S 
ATOM     18  C   UNL     1      -7.436   3.451   0.986  0.00  0.00    +0.095 A 
ATOM     19  C   UNL     1     -11.502   4.410   0.883  0.00  0.00    +0.043 C 
ATOM     20  C   UNL     1     -11.924   5.605   1.750  0.00  0.00    +0.005 C 
ATOM     21  C   UNL     1     -10.990   6.782   1.450  0.00  0.00    +0.005 C 
ATOM     22  C   UNL     1      -9.596   6.493   2.006  0.00  0.00    +0.037 C 
BRANCH  14  23
ATOM     23  C   UNL     1      -6.719   5.574   1.994  0.00  0.00    +0.342 C 
ATOM     24  O   UNL     1      -6.159   6.354   1.247  0.00  0.00    -0.245 OA
BRANCH  23  25
ATOM     25  O   UNL     1      -6.372   5.520   3.297  0.00  0.00    -0.461 OA
BRANCH  25  27
ATOM     26  C   UNL     1      -5.086   6.202   5.226  0.00  0.00    +0.048 C 
ATOM     27  C   UNL     1      -5.339   6.407   3.731  0.00  0.00    +0.229 C 
ENDBRANCH  25  27
ENDBRANCH  23  25
ENDBRANCH  14  23
ENDBRANCH   1  18
BRANCH   3  28
ATOM     28  C   UNL     1      -3.599   1.697   0.130  0.00  0.00    +0.253 C 
ATOM     29  O   UNL     1      -3.617   2.913   0.137  0.00  0.00    -0.270 OA
ATOM     30  N   UNL     1      -2.427   1.041   0.019  0.00  0.00    -0.281 N 
ATOM     31  H   UNL     1      -2.417  -0.055  -0.075  0.00  0.00    +0.155 HD
BRANCH  30  32
ATOM     32  C   UNL     1      -1.224   1.754   0.023  0.00  0.00    +0.034 A 
ATOM     33  C   UNL     1      -0.148   1.308  -0.734  0.00  0.00    +0.023 A 
ATOM     34  C   UNL     1       1.041   2.011  -0.723  0.00  0.00    +0.002 A 
ATOM     35  C   UNL     1       1.159   3.161   0.036  0.00  0.00    +0.003 A 
ATOM     36  C   UNL     1       0.088   3.611   0.786  0.00  0.00    -0.049 A 
ATOM     37  C   UNL     1      -1.104   2.913   0.780  0.00  0.00    +0.026 A 
ATOM     38  C   UNL     1       0.221   4.865   1.612  0.00  0.00    +0.044 C 
ENDBRANCH  30  32
ENDBRANCH   3  28
TORSDOF 6
