REMARK  Name = ZINC00746575
REMARK  9 active torsions:
REMARK  status: ('A' for Active; 'I' for Inactive)
REMARK    1  A    between atoms: C_4  and  C_7
REMARK    2  A    between atoms: C_7  and  C_8
REMARK    3  A    between atoms: C_8  and  N_9
REMARK    4  A    between atoms: C_10  and  C_12
REMARK    5  A    between atoms: C_14  and  N_23
REMARK    6  A    between atoms: C_17  and  N_18
REMARK    7  A    between atoms: C_24  and  C_26
REMARK    8  A    between atoms: C_27  and  C_28
REMARK    9  A    between atoms: C_31  and  N_34
REMARK                            x       y       z     vdW  Elec       q    Type
REMARK                         _______ _______ _______ _____ _____    ______ ____
ROOT
ATOM      1  C   UNL     1      -2.157  -4.264  -0.191  0.00  0.00    +0.059 A 
ATOM      2  C   UNL     1      -2.267  -2.876  -0.086  0.00  0.00    +0.038 A 
ATOM      3  C   UNL     1      -1.127  -2.092  -0.087  0.00  0.00    +0.034 A 
ATOM      4  C   UNL     1       0.129  -2.683  -0.198  0.00  0.00    +0.025 A 
ATOM      5  C   UNL     1       0.247  -4.053  -0.296  0.00  0.00    +0.026 A 
ATOM      6  C   UNL     1      -0.888  -4.854  -0.297  0.00  0.00    +0.042 A 
ENDROOT
BRANCH   6   7
ATOM      7  N   UNL     1      -0.768  -6.236  -0.401  0.00  0.00    -0.329 N 
ATOM      8  C   UNL     1       0.056  -6.611  -1.579  0.00  0.00    +0.105 C 
ATOM      9  C   UNL     1       0.513  -8.053  -1.247  0.00  0.00    +0.020 C 
ATOM     10  C   UNL     1       0.762  -7.995   0.278  0.00  0.00    +0.020 C 
ATOM     11  C   UNL     1      -0.069  -6.797   0.775  0.00  0.00    +0.105 C 
ENDBRANCH   6   7
BRANCH   1  13
ATOM     12  N   UNL     1      -4.587  -4.532  -0.197  0.00  0.00    -0.311 N 
ATOM     13  C   UNL     1      -3.368  -5.106  -0.191  0.00  0.00    +0.246 C 
ATOM     14  O   UNL     1      -3.266  -6.318  -0.185  0.00  0.00    -0.270 OA
ATOM     15  H   UNL     1      -4.668  -3.566  -0.201  0.00  0.00    +0.149 HD
BRANCH  12  16
ATOM     16  C   UNL     1      -5.790  -5.369  -0.197  0.00  0.00    +0.109 C 
BRANCH  16  17
ATOM     17  C   UNL     1      -7.032  -4.475  -0.204  0.00  0.00    +0.054 C 
BRANCH  17  21
ATOM     18  C   UNL     1     -10.540  -6.913  -0.204  0.00  0.00    +0.000 A 
ATOM     19  C   UNL     1      -9.976  -6.513   0.993  0.00  0.00    +0.000 A 
ATOM     20  C   UNL     1      -8.841  -5.725   0.993  0.00  0.00    +0.004 A 
ATOM     21  C   UNL     1      -8.270  -5.336  -0.204  0.00  0.00    -0.046 A 
ATOM     22  C   UNL     1      -8.837  -5.731  -1.401  0.00  0.00    +0.004 A 
ATOM     23  C   UNL     1      -9.969  -6.524  -1.401  0.00  0.00    +0.000 A 
ENDBRANCH  17  21
ENDBRANCH  16  17
ENDBRANCH  12  16
ENDBRANCH   1  13
BRANCH   3  24
ATOM     24  N   UNL     1      -1.236  -0.700   0.018  0.00  0.00    -0.282 N 
ATOM     25  C   UNL     1      -0.288   0.004   0.668  0.00  0.00    +0.241 C 
ATOM     26  O   UNL     1       0.613  -0.577   1.244  0.00  0.00    -0.270 OA
ATOM     27  H   UNL     1      -1.994  -0.242  -0.378  0.00  0.00    +0.155 HD
BRANCH  25  28
ATOM     28  C   UNL     1      -0.342   1.466   0.680  0.00  0.00    +0.068 C 
ATOM     29  C   UNL     1       0.607   2.170   1.331  0.00  0.00    +0.013 C 
BRANCH  29  30
ATOM     30  C   UNL     1       0.553   3.641   1.344  0.00  0.00    -0.025 A 
ATOM     31  C   UNL     1      -0.477   4.312   0.678  0.00  0.00    +0.010 A 
ATOM     32  C   UNL     1      -0.523   5.691   0.698  0.00  0.00    +0.033 A 
ATOM     33  C   UNL     1       0.452   6.409   1.367  0.00  0.00    +0.126 A 
ATOM     34  C   UNL     1       1.478   5.752   2.024  0.00  0.00    +0.033 A 
ATOM     35  C   UNL     1       1.535   4.375   2.017  0.00  0.00    +0.010 A 
BRANCH  33  36
ATOM     36  N   UNL     1       0.398   7.888   1.380  0.00  0.00    +0.056 N 
ATOM     37  O   UNL     1       1.255   8.524   1.968  0.00  0.00    -0.126 OA
ATOM     38  O   UNL     1      -0.504   8.470   0.803  0.00  0.00    -0.126 OA
ENDBRANCH  33  36
ENDBRANCH  29  30
ENDBRANCH  25  28
ENDBRANCH   3  24
TORSDOF 9
