REMARK  Name = ZINC56692601
REMARK  13 active torsions:
REMARK  status: ('A' for Active; 'I' for Inactive)
REMARK    1  A    between atoms: C_1  and  C_2
REMARK    2  A    between atoms: C_2  and  C_3
REMARK    3  A    between atoms: C_2  and  C_4
REMARK    4  A    between atoms: C_4  and  C_6
REMARK    5  A    between atoms: C_4  and  N_22
REMARK    6  A    between atoms: C_6  and  N_7
REMARK    7  A    between atoms: N_10  and  C_11
REMARK    8  A    between atoms: C_13  and  N_18
REMARK    9  A    between atoms: C_19  and  C_21
REMARK   10  A    between atoms: N_22  and  C_23
REMARK   11  A    between atoms: N_22  and  C_26
REMARK   12  A    between atoms: C_23  and  C_24
REMARK   13  A    between atoms: C_26  and  C_27
REMARK                            x       y       z     vdW  Elec       q    Type
REMARK                         _______ _______ _______ _____ _____    ______ ____
ROOT
ATOM      1  N   UNL     1      -3.846  -2.696  -1.655  0.00  0.00    -0.301 N 
ATOM      2  C   UNL     1      -4.860  -2.881  -2.523  0.00  0.00    +0.304 C 
ATOM      3  O   UNL     1      -4.649  -2.851  -3.720  0.00  0.00    -0.253 OA
ATOM      4  N   UNL     1      -6.108  -3.100  -2.064  0.00  0.00    -0.268 N 
ATOM      5  H   UNL     1      -4.014  -2.720  -0.700  0.00  0.00    +0.150 HD
ATOM      6  H   UNL     1      -6.294  -3.038  -1.114  0.00  0.00    +0.156 HD
ENDROOT
BRANCH   4   7
ATOM      7  C   UNL     1      -7.138  -3.415  -2.959  0.00  0.00    +0.055 A 
ATOM      8  C   UNL     1      -6.853  -4.099  -4.132  0.00  0.00    +0.048 A 
ATOM      9  C   UNL     1      -7.875  -4.410  -5.017  0.00  0.00    +0.035 A 
ATOM     10  C   UNL     1      -9.181  -4.037  -4.726  0.00  0.00    +0.025 A 
ATOM     11  C   UNL     1      -9.463  -3.356  -3.557  0.00  0.00    +0.023 A 
ATOM     12  C   UNL     1      -8.447  -3.049  -2.671  0.00  0.00    +0.062 A 
ATOM     13 CL   UNL     1      -8.806  -2.199  -1.201  0.00  0.00    -0.082 Cl
BRANCH   9  14
ATOM     14  N   UNL     1      -7.591  -5.099  -6.201  0.00  0.00    -0.286 N 
ATOM     15  C   UNL     1      -8.482  -5.980  -6.699  0.00  0.00    +0.214 C 
ATOM     16  O   UNL     1      -9.564  -6.114  -6.167  0.00  0.00    -0.276 OA
ATOM     17  C   UNL     1      -8.134  -6.798  -7.916  0.00  0.00    +0.109 C 
ATOM     18  H   UNL     1      -6.753  -4.944  -6.664  0.00  0.00    +0.155 HD
ENDBRANCH   9  14
ENDBRANCH   4   7
BRANCH   1  19
ATOM     19  C   UNL     1      -2.489  -2.459  -2.153  0.00  0.00    +0.091 C 
BRANCH  19  20
ATOM     20  C   UNL     1      -1.510  -2.441  -0.977  0.00  0.00    -0.048 C 
BRANCH  20  22
ATOM     21  C   UNL     1      -0.215  -0.582  -2.031  0.00  0.00    +0.005 C 
ATOM     22  C   UNL     1      -0.129  -2.003  -1.470  0.00  0.00    -0.029 C 
ATOM     23  C   UNL     1       0.862  -2.032  -0.304  0.00  0.00    +0.005 C 
ENDBRANCH  20  22
BRANCH  20  24
ATOM     24  N   UNL     1      -1.418  -3.787  -0.396  0.00  0.00    +0.387 N 
ATOM     25  H   UNL     1      -0.770  -3.776   0.377  0.00  0.00    -0.080 HD
BRANCH  24  26
ATOM     26  C   UNL     1      -2.743  -4.206   0.080  0.00  0.00    -0.051 C 
BRANCH  26  27
ATOM     27  C   UNL     1      -2.616  -5.499   0.844  0.00  0.00    -0.053 C 
ATOM     28  C   UNL     1      -3.071  -5.584   2.069  0.00  0.00    +0.002 C 
ENDBRANCH  26  27
ENDBRANCH  24  26
BRANCH  24  29
ATOM     29  C   UNL     1      -0.944  -4.730  -1.418  0.00  0.00    -0.051 C 
BRANCH  29  30
ATOM     30  C   UNL     1       0.563  -4.732  -1.440  0.00  0.00    -0.053 C 
ATOM     31  C   UNL     1       1.218  -5.857  -1.290  0.00  0.00    +0.002 C 
ENDBRANCH  29  30
ENDBRANCH  24  29
ENDBRANCH  20  24
ENDBRANCH  19  20
ENDBRANCH   1  19
TORSDOF 10
