REMARK  Name = ZINC20573297
REMARK  7 active torsions:
REMARK  status: ('A' for Active; 'I' for Inactive)
REMARK    1  A    between atoms: C_1  and  O_2
REMARK    2  A    between atoms: O_2  and  C_3
REMARK    3  A    between atoms: C_6  and  C_9
REMARK    4  A    between atoms: C_9  and  C_10
REMARK    5  A    between atoms: C_10  and  C_11
REMARK    6  A    between atoms: N_13  and  C_14
REMARK    7  A    between atoms: C_14  and  C_15
REMARK                            x       y       z     vdW  Elec       q    Type
REMARK                         _______ _______ _______ _____ _____    ______ ____
ROOT
ATOM      1  C   UNL     1       1.250  -4.731   9.914  0.00  0.00    +0.233 C 
ATOM      2  O   UNL     1       0.093  -4.392   9.778  0.00  0.00    -0.274 OA
ATOM      3  N   UNL     1       1.645  -5.335  11.052  0.00  0.00    -0.300 N 
ATOM      4  C   UNL     1       3.044  -5.746  11.234  0.00  0.00    +0.110 C 
ATOM      5  C   UNL     1       3.077  -7.231  11.607  0.00  0.00    +0.047 C 
ATOM      6  C   UNL     1       2.187  -7.466  12.828  0.00  0.00    +0.064 C 
ATOM      7  C   UNL     1       0.744  -7.081  12.499  0.00  0.00    +0.047 C 
ATOM      8  C   UNL     1       0.688  -5.589  12.137  0.00  0.00    +0.110 C 
ATOM      9  C   UNL     1       2.248  -8.915  13.230  0.00  0.00    +0.057 A 
ATOM     10  C   UNL     1       2.961  -9.371  14.286  0.00  0.00    +0.039 A 
ATOM     11  N   UNL     1       2.795 -10.691  14.358  0.00  0.00    -0.349 N 
ATOM     12  C   UNL     1       2.006 -11.077  13.387  0.00  0.00    +0.171 A 
ATOM     13  N   UNL     1       1.646  -9.993  12.662  0.00  0.00    -0.348 N 
ATOM     14  H   UNL     1       1.067  -9.986  11.883  0.00  0.00    +0.166 HD
ATOM     15  C   UNL     1       3.780  -8.468  15.176  0.00  0.00    +0.070 C 
ATOM     16  C   UNL     1       3.967  -7.130  14.448  0.00  0.00    +0.088 C 
ATOM     17  N   UNL     1       2.670  -6.649  13.953  0.00  0.00    -0.305 NA
ATOM     18  H   UNL     1       2.719  -5.675  13.697  0.00  0.00    +0.123 HD
ATOM     19  H   UNL     1       3.194 -11.274  15.023  0.00  0.00    +0.166 HD
ENDROOT
BRANCH   1  20
ATOM     20  C   UNL     1       2.244  -4.478   8.810  0.00  0.00    +0.200 C 
BRANCH  20  23
ATOM     21  C   UNL     1       2.269  -3.489   6.583  0.00  0.00    +0.214 C 
ATOM     22  O   UNL     1       3.453  -3.743   6.516  0.00  0.00    -0.276 OA
ATOM     23  N   UNL     1       1.572  -3.815   7.690  0.00  0.00    -0.307 N 
ATOM     24  H   UNL     1       0.625  -3.612   7.744  0.00  0.00    +0.149 HD
BRANCH  21  25
ATOM     25  C   UNL     1       1.577  -2.808   5.431  0.00  0.00    +0.100 C 
BRANCH  25  26
ATOM     26  C   UNL     1       2.587  -2.550   4.310  0.00  0.00    +0.044 C 
BRANCH  26  30
ATOM     27  C   UNL     1       0.626  -0.618   1.042  0.00  0.00    +0.120 A 
ATOM     28  C   UNL     1       1.202   0.138   2.051  0.00  0.00    +0.046 A 
ATOM     29  C   UNL     1       1.835  -0.488   3.107  0.00  0.00    +0.007 A 
ATOM     30  C   UNL     1       1.895  -1.869   3.158  0.00  0.00    -0.047 A 
ATOM     31  C   UNL     1       1.322  -2.625   2.152  0.00  0.00    +0.007 A 
ATOM     32  C   UNL     1       0.682  -2.003   1.098  0.00  0.00    +0.046 A 
BRANCH  27  34
ATOM     33  C   UNL     1      -0.017   1.425   0.010  0.00  0.00    +0.277 C 
ATOM     34  O   UNL     1       0.002  -0.004   0.002  0.00  0.00    -0.495 OA
ENDBRANCH  27  34
ENDBRANCH  26  30
ENDBRANCH  25  26
ENDBRANCH  21  25
ENDBRANCH  20  23
ENDBRANCH   1  20
TORSDOF 6
