REMARK  Name = ZINC08718185
REMARK  6 active torsions:
REMARK  status: ('A' for Active; 'I' for Inactive)
REMARK    1  A    between atoms: C_4  and  S_7
REMARK    2  A    between atoms: S_7  and  C_8
REMARK    3  A    between atoms: C_13  and  N_14
REMARK    4  A    between atoms: C_15  and  C_17
REMARK    5  A    between atoms: C_17  and  N_53
REMARK    6  A    between atoms: C_26  and  C_28
REMARK                            x       y       z     vdW  Elec       q    Type
REMARK                         _______ _______ _______ _____ _____    ______ ____
ROOT
ATOM      1  N   UNL     1      -0.963   3.012  -0.239  0.00  0.00    -0.286 N 
ATOM      2  C   UNL     1       0.079   2.158  -0.211  0.00  0.00    +0.201 C 
ATOM      3  O   UNL     1      -0.101   0.989   0.059  0.00  0.00    -0.278 OA
ATOM      4  H   UNL     1      -0.810   3.959  -0.379  0.00  0.00    +0.155 HD
ENDROOT
BRANCH   1  10
ATOM      5  C   UNL     1      -3.293   3.406   0.294  0.00  0.00    +0.034 A 
ATOM      6  C   UNL     1      -4.584   2.924   0.459  0.00  0.00    +0.017 A 
ATOM      7  C   UNL     1      -4.848   1.579   0.278  0.00  0.00    +0.001 A 
ATOM      8  C   UNL     1      -3.829   0.712  -0.072  0.00  0.00    +0.002 A 
ATOM      9  C   UNL     1      -2.542   1.184  -0.244  0.00  0.00    +0.024 A 
ATOM     10  C   UNL     1      -2.267   2.531  -0.065  0.00  0.00    +0.047 A 
BRANCH   5  11
ATOM     11  S   UNL     1      -2.952   5.118   0.530  0.00  0.00    -0.088 S 
BRANCH  11  15
ATOM     12  C   UNL     1      -0.762   5.263   4.492  0.00  0.00    +0.000 A 
ATOM     13  C   UNL     1      -1.066   6.438   3.828  0.00  0.00    +0.001 A 
ATOM     14  C   UNL     1      -1.734   6.398   2.620  0.00  0.00    +0.015 A 
ATOM     15  C   UNL     1      -2.100   5.175   2.071  0.00  0.00    +0.013 A 
ATOM     16  C   UNL     1      -1.798   3.996   2.744  0.00  0.00    +0.015 A 
ATOM     17  C   UNL     1      -1.125   4.044   3.948  0.00  0.00    +0.001 A 
ENDBRANCH  11  15
ENDBRANCH   5  11
ENDBRANCH   1  10
BRANCH   2  18
ATOM     18  C   UNL     1       1.468   2.653  -0.522  0.00  0.00    +0.020 C 
BRANCH  18  28
ATOM     19  C   UNL     1       2.319   0.666  -1.608  0.00  0.00    -0.041 C 
ATOM     20  C   UNL     1       3.364  -0.417  -1.552  0.00  0.00    -0.061 A 
ATOM     21  C   UNL     1       3.201  -1.534  -2.359  0.00  0.00    +0.002 A 
ATOM     22  C   UNL     1       4.136  -2.550  -2.342  0.00  0.00    +0.000 A 
ATOM     23  C   UNL     1       5.241  -2.455  -1.516  0.00  0.00    +0.000 A 
ATOM     24  C   UNL     1       5.404  -1.345  -0.712  0.00  0.00    +0.004 A 
ATOM     25  C   UNL     1       4.464  -0.325  -0.727  0.00  0.00    -0.047 A 
ATOM     26  C   UNL     1       4.679   0.863   0.175  0.00  0.00    +0.029 C 
ATOM     27  C   UNL     1       3.797   2.028  -0.277  0.00  0.00    +0.024 C 
ATOM     28  N   UNL     1       2.415   1.522  -0.413  0.00  0.00    +0.396 N 
ATOM     29  H   UNL     1       2.177   0.966   0.417  0.00  0.00    -0.080 HD
BRANCH  27  30
ATOM     30  C   UNL     1       3.831   3.121   0.760  0.00  0.00    +0.197 C 
ATOM     31  O   UNL     1       3.075   3.081   1.708  0.00  0.00    -0.278 OA
ATOM     32  N   UNL     1       4.701   4.142   0.635  0.00  0.00    -0.331 N 
ATOM     33  H   UNL     1       5.306   4.173  -0.123  0.00  0.00    +0.145 HD
ATOM     34  H   UNL     1       4.723   4.845   1.302  0.00  0.00    +0.145 HD
ENDBRANCH  27  30
ENDBRANCH  18  28
ENDBRANCH   2  18
TORSDOF 6
