REMARK  Name = ZINC12531689
REMARK  12 active torsions:
REMARK  status: ('A' for Active; 'I' for Inactive)
REMARK    1  A    between atoms: C_1  and  C_2
REMARK    2  A    between atoms: C_2  and  C_3
REMARK    3  A    between atoms: C_2  and  N_62
REMARK    4  A    between atoms: C_4  and  N_62
REMARK    5  A    between atoms: C_7  and  C_25
REMARK    6  A    between atoms: C_7  and  C_26
REMARK    7  A    between atoms: C_10  and  C_17
REMARK    8  A    between atoms: C_13  and  C_15
REMARK    9  A    between atoms: C_13  and  O_16
REMARK   10  A    between atoms: C_17  and  C_18
REMARK   11  A    between atoms: C_18  and  C_19
REMARK   12  A    between atoms: N_21  and  C_22
REMARK                            x       y       z     vdW  Elec       q    Type
REMARK                         _______ _______ _______ _____ _____    ______ ____
ROOT
ATOM      1  C   UNL     1       0.904   2.142   2.399  0.00  0.00    -0.064 C 
ATOM      2  C   UNL     1      -0.528   2.734   2.421  0.00  0.00    -0.009 C 
ATOM      3  C   UNL     1      -0.654   3.381   1.018  0.00  0.00    -0.033 C 
ATOM      4  C   UNL     1       0.754   3.959   0.751  0.00  0.00    +0.002 C 
ATOM      5  C   UNL     1       1.724   3.188   1.609  0.00  0.00    -0.038 C 
ATOM      6  C   UNL     1       2.869   2.510   0.894  0.00  0.00    +0.008 C 
ATOM      7  C   UNL     1       3.341   3.353  -0.291  0.00  0.00    +0.035 C 
ATOM      8  C   UNL     1       2.194   3.410  -1.300  0.00  0.00    +0.064 C 
ATOM      9  C   UNL     1       0.998   4.121  -0.712  0.00  0.00    +0.039 C 
ATOM     10  C   UNL     1       1.793   1.986  -1.688  0.00  0.00    +0.041 C 
ATOM     11  C   UNL     1      -1.008   2.324  -0.031  0.00  0.00    +0.011 C 
ATOM     12  C   UNL     1      -1.703   4.495   1.031  0.00  0.00    +0.011 C 
ENDROOT
BRANCH   1  13
ATOM     13  N   UNL     1       1.423   2.009   3.773  0.00  0.00    +0.383 N 
ATOM     14  H   UNL     1       1.880   2.886   4.050  0.00  0.00    -0.085 HD
ATOM     15  H   UNL     1       0.644   1.813   4.412  0.00  0.00    -0.085 HD
BRANCH  13  17
ATOM     16  C   UNL     1       3.354   1.159   5.018  0.00  0.00    -0.014 C 
ATOM     17  C   UNL     1       2.402   0.907   3.847  0.00  0.00    -0.078 C 
ATOM     18  C   UNL     1       1.665  -0.416   4.064  0.00  0.00    -0.014 C 
ENDBRANCH  13  17
ENDBRANCH   1  13
BRANCH   8  19
ATOM     19  O   UNL     1       2.629   4.110  -2.467  0.00  0.00    -0.389 OA
ATOM     20  H   UNL     1       3.384   3.702  -2.913  0.00  0.00    +0.210 HD
ENDBRANCH   8  19
BRANCH   5  21
ATOM     21  C   UNL     1       2.316   4.175   2.618  0.00  0.00    +0.015 C 
BRANCH  21  22
ATOM     22  C   UNL     1       1.192   4.768   3.470  0.00  0.00    +0.096 C 
BRANCH  22  23
ATOM     23  C   UNL     1       1.756   5.836   4.372  0.00  0.00    +0.213 C 
ATOM     24  O   UNL     1       2.940   6.097   4.335  0.00  0.00    -0.276 OA
ATOM     25  N   UNL     1       0.945   6.501   5.218  0.00  0.00    -0.312 N 
ATOM     26  H   UNL     1      -0.002   6.292   5.247  0.00  0.00    +0.149 HD
BRANCH  25  27
ATOM     27  C   UNL     1       1.493   7.539   6.094  0.00  0.00    +0.073 C 
ATOM     28  C   UNL     1       1.026   7.553   7.551  0.00  0.00    +0.024 C 
ATOM     29  C   UNL     1       0.536   8.630   6.580  0.00  0.00    +0.024 C 
ENDBRANCH  25  27
ENDBRANCH  22  23
ENDBRANCH  21  22
ENDBRANCH   5  21
TORSDOF 7
