REMARK  Name = ZINC17304400
REMARK  5 active torsions:
REMARK  status: ('A' for Active; 'I' for Inactive)
REMARK    1  A    between atoms: C_1  and  C_2
REMARK    2  A    between atoms: C_3  and  C_14
REMARK    3  A    between atoms: C_4  and  C_13
REMARK    4  A    between atoms: N_5  and  C_7
REMARK    5  A    between atoms: C_14  and  C_16
REMARK                            x       y       z     vdW  Elec       q    Type
REMARK                         _______ _______ _______ _____ _____    ______ ____
ROOT
ATOM      1  C   UNL     1       3.547   0.727  -0.051  0.00  0.00    +0.251 C 
ATOM      2  O   UNL     1       4.174   0.640   0.985  0.00  0.00    -0.282 OA
ENDROOT
BRANCH   1   3
ATOM      3  C   UNL     1       4.269   0.844  -1.352  0.00  0.00    +0.291 C 
ATOM      4  O   UNL     1       3.646   1.030  -2.377  0.00  0.00    -0.266 OA
ATOM      5  N   UNL     1       5.613   0.744  -1.388  0.00  0.00    -0.249 N 
ATOM      6  C   UNL     1       6.282   0.854  -2.594  0.00  0.00    +0.201 A 
ATOM      7  N   UNL     1       5.687   1.062  -3.805  0.00  0.00    -0.326 N 
ATOM      8  H   UNL     1       4.706   1.161  -3.975  0.00  0.00    +0.169 HD
ATOM      9  C   UNL     1       6.693   1.111  -4.753  0.00  0.00    +0.067 A 
ATOM     10  C   UNL     1       6.712   1.295  -6.128  0.00  0.00    +0.028 A 
ATOM     11  C   UNL     1       7.913   1.293  -6.805  0.00  0.00    +0.002 A 
ATOM     12  C   UNL     1       9.106   1.109  -6.120  0.00  0.00    +0.002 A 
ATOM     13  C   UNL     1       9.107   0.926  -4.756  0.00  0.00    +0.030 A 
ATOM     14  C   UNL     1       7.898   0.924  -4.055  0.00  0.00    +0.091 A 
ATOM     15  N   UNL     1       7.580   0.778  -2.743  0.00  0.00    -0.214 NA
ATOM     16  H   UNL     1       6.111   0.596  -0.569  0.00  0.00    +0.158 HD
ENDBRANCH   1   3
BRANCH   1  19
ATOM     17  C   UNL     1       1.708  -1.862  -0.097  0.00  0.00    +0.068 C 
ATOM     18  C   UNL     1       1.245  -0.429  -0.045  0.00  0.00    +0.072 A 
ATOM     19  C   UNL     1       2.079   0.715  -0.025  0.00  0.00    +0.071 A 
ATOM     20  C   UNL     1       1.247   1.823   0.024  0.00  0.00    +0.053 A 
ATOM     21  N   UNL     1      -0.019   1.372   0.033  0.00  0.00    -0.236 N 
ATOM     22  N   UNL     1       0.005  -0.026  -0.011  0.00  0.00    -0.171 NA
ATOM     23  C   UNL     1       1.681   3.266   0.061  0.00  0.00    +0.066 C 
BRANCH  21  24
ATOM     24  C   UNL     1      -1.171   2.169   0.073  0.00  0.00    +0.066 A 
ATOM     25  C   UNL     1      -1.175   3.350   0.803  0.00  0.00    +0.028 A 
ATOM     26  C   UNL     1      -2.310   4.136   0.836  0.00  0.00    +0.002 A 
ATOM     27  C   UNL     1      -3.446   3.743   0.151  0.00  0.00    +0.000 A 
ATOM     28  C   UNL     1      -3.446   2.565  -0.573  0.00  0.00    +0.002 A 
ATOM     29  C   UNL     1      -2.313   1.777  -0.614  0.00  0.00    +0.028 A 
ENDBRANCH  21  24
ENDBRANCH   1  19
TORSDOF 3
