REMARK  Name = ZINC51046046
REMARK  6 active torsions:
REMARK  status: ('A' for Active; 'I' for Inactive)
REMARK    1  A    between atoms: C_1  and  C_2
REMARK    2  A    between atoms: C_2  and  C_4
REMARK    3  A    between atoms: C_2  and  N_15
REMARK    4  A    between atoms: N_6  and  C_7
REMARK    5  A    between atoms: C_19  and  C_22
REMARK    6  A    between atoms: N_24  and  C_25
REMARK                            x       y       z     vdW  Elec       q    Type
REMARK                         _______ _______ _______ _____ _____    ______ ____
ROOT
ATOM      1  C   UNL     1      -0.608   1.544  -0.184  0.00  0.00    -0.004 C 
ATOM      2  C   UNL     1      -0.031   0.147   0.055  0.00  0.00    +0.016 C 
ENDROOT
BRANCH   2   3
ATOM      3  N   UNL     1      -1.083  -0.735   0.578  0.00  0.00    +0.388 N 
ATOM      4  C   UNL     1      -1.646  -0.152   1.801  0.00  0.00    -0.078 C 
ATOM      5  C   UNL     1      -2.797  -1.025   2.304  0.00  0.00    -0.018 C 
ATOM      6  C   UNL     1      -2.270  -2.432   2.603  0.00  0.00    +0.009 C 
ATOM      7  C   UNL     1      -1.619  -3.001   1.340  0.00  0.00    +0.058 C 
ATOM      8  C   UNL     1      -0.511  -2.055   0.872  0.00  0.00    -0.065 C 
ATOM      9  H   UNL     1      -1.812  -0.832  -0.113  0.00  0.00    -0.081 HD
BRANCH   7  10
ATOM     10  C   UNL     1      -1.030  -4.355   1.644  0.00  0.00    +0.215 C 
ATOM     11  O   UNL     1       0.159  -4.546   1.497  0.00  0.00    -0.276 OA
ATOM     12  N   UNL     1      -1.824  -5.353   2.079  0.00  0.00    -0.312 N 
ATOM     13  H   UNL     1      -2.775  -5.200   2.196  0.00  0.00    +0.149 HD
BRANCH  12  14
ATOM     14  C   UNL     1      -1.252  -6.669   2.374  0.00  0.00    +0.073 C 
ATOM     15  C   UNL     1      -2.018  -7.899   1.883  0.00  0.00    +0.024 C 
ATOM     16  C   UNL     1      -1.997  -7.555   3.374  0.00  0.00    +0.024 C 
ENDBRANCH  12  14
ENDBRANCH   7  10
ENDBRANCH   2   3
BRANCH   2  17
ATOM     17  C   UNL     1       0.492  -0.409  -1.244  0.00  0.00    +0.203 C 
ATOM     18  O   UNL     1      -0.226  -1.091  -1.945  0.00  0.00    -0.277 OA
ATOM     19  N   UNL     1       1.758  -0.149  -1.628  0.00  0.00    -0.286 N 
ATOM     20  H   UNL     1       2.355   0.334  -1.035  0.00  0.00    +0.155 HD
BRANCH  19  21
ATOM     21  C   UNL     1       2.211  -0.577  -2.881  0.00  0.00    +0.053 A 
ATOM     22  C   UNL     1       1.299  -0.885  -3.882  0.00  0.00    +0.025 A 
ATOM     23  C   UNL     1       1.749  -1.306  -5.119  0.00  0.00    +0.003 A 
ATOM     24  C   UNL     1       3.105  -1.422  -5.361  0.00  0.00    +0.021 A 
ATOM     25  C   UNL     1       4.017  -1.116  -4.367  0.00  0.00    +0.061 A 
ATOM     26  C   UNL     1       3.574  -0.688  -3.128  0.00  0.00    +0.080 A 
ATOM     27 CL   UNL     1       4.717  -0.297  -1.882  0.00  0.00    -0.080 Cl
ATOM     28 CL   UNL     1       5.719  -1.263  -4.675  0.00  0.00    -0.082 Cl
ENDBRANCH  19  21
ENDBRANCH   2  17
TORSDOF 5
