REMARK  Name = ZINC39350748
REMARK  11 active torsions:
REMARK  status: ('A' for Active; 'I' for Inactive)
REMARK    1  A    between atoms: C_1  and  O_2
REMARK    2  A    between atoms: O_2  and  C_3
REMARK    3  A    between atoms: C_6  and  C_9
REMARK    4  A    between atoms: C_9  and  N_10
REMARK    5  A    between atoms: C_11  and  C_13
REMARK    6  A    between atoms: C_13  and  C_14
REMARK    7  A    between atoms: C_14  and  C_15
REMARK    8  A    between atoms: N_17  and  N_18
REMARK    9  A    between atoms: C_19  and  C_21
REMARK   10  A    between atoms: C_26  and  O_31
REMARK   11  A    between atoms: O_31  and  C_32
REMARK                            x       y       z     vdW  Elec       q    Type
REMARK                         _______ _______ _______ _____ _____    ______ ____
ROOT
ATOM      1  N   UNL     1     -10.515  -5.406  -6.046  0.00  0.00    -0.232 N 
ATOM      2  C   UNL     1     -11.676  -6.062  -6.241  0.00  0.00    +0.255 C 
ATOM      3  O   UNL     1     -12.315  -6.460  -5.290  0.00  0.00    -0.272 OA
ATOM      4  H   UNL     1     -10.004  -5.088  -6.806  0.00  0.00    +0.173 HD
ENDROOT
BRANCH   2   5
ATOM      5  C   UNL     1     -12.181  -6.301  -7.641  0.00  0.00    +0.191 C 
ATOM      6  C   UNL     1     -11.483  -7.497  -8.249  0.00  0.00    +0.016 C 
ATOM      7  C   UNL     1     -12.453  -8.398  -8.524  0.00  0.00    -0.000 A 
ATOM      8  C   UNL     1     -12.427  -9.740  -9.114  0.00  0.00    +0.056 A 
ATOM      9  C   UNL     1     -13.586 -10.423  -9.271  0.00  0.00    +0.129 A 
ATOM     10  C   UNL     1     -14.829  -9.891  -8.885  0.00  0.00    +0.048 A 
ATOM     11  C   UNL     1     -14.955  -8.665  -8.334  0.00  0.00    +0.029 A 
ATOM     12  C   UNL     1     -13.763  -7.838  -8.117  0.00  0.00    +0.043 A 
ATOM     13  N   UNL     1     -13.609  -6.638  -7.613  0.00  0.00    -0.370 N 
ATOM     14  H   UNL     1     -14.318  -6.068  -7.277  0.00  0.00    +0.161 HD
BRANCH   9  15
ATOM     15  O   UNL     1     -13.547 -11.666  -9.819  0.00  0.00    -0.456 OA
BRANCH  15  16
ATOM     16  C   UNL     1     -14.110 -11.841 -11.043  0.00  0.00    +0.128 A 
ATOM     17  C   UNL     1     -14.583 -10.747 -11.754  0.00  0.00    +0.046 A 
ATOM     18  C   UNL     1     -15.155 -10.928 -12.998  0.00  0.00    +0.004 A 
ATOM     19  C   UNL     1     -15.256 -12.197 -13.536  0.00  0.00    +0.000 A 
ATOM     20  C   UNL     1     -14.786 -13.289 -12.830  0.00  0.00    +0.004 A 
ATOM     21  C   UNL     1     -14.208 -13.114 -11.588  0.00  0.00    +0.046 A 
ENDBRANCH  15  16
ENDBRANCH   9  15
ENDBRANCH   2   5
BRANCH   1  24
ATOM     22  C   UNL     1      -8.885  -4.528  -4.550  0.00  0.00    +0.230 C 
ATOM     23  O   UNL     1      -8.246  -4.130  -5.500  0.00  0.00    -0.274 OA
ATOM     24  N   UNL     1     -10.046  -5.184  -4.744  0.00  0.00    -0.234 N 
ATOM     25  H   UNL     1     -10.557  -5.502  -3.984  0.00  0.00    +0.173 HD
BRANCH  22  26
ATOM     26  C   UNL     1      -8.380  -4.289  -3.150  0.00  0.00    +0.106 C 
BRANCH  26  27
ATOM     27  C   UNL     1      -7.054  -3.529  -3.209  0.00  0.00    +0.105 C 
BRANCH  27  29
ATOM     28  N   UNL     1      -5.388  -2.635  -1.614  0.00  0.00    -0.311 N 
ATOM     29  C   UNL     1      -6.549  -3.291  -1.809  0.00  0.00    +0.214 C 
ATOM     30  O   UNL     1      -7.188  -3.689  -0.858  0.00  0.00    -0.276 OA
ATOM     31  H   UNL     1      -4.877  -2.316  -2.374  0.00  0.00    +0.149 HD
BRANCH  28  32
ATOM     32  C   UNL     1      -4.897  -2.402  -0.253  0.00  0.00    +0.139 C 
BRANCH  32  36
ATOM     33  C   UNL     1      -1.191  -0.281  -0.417  0.00  0.00    +0.120 A 
ATOM     34  C   UNL     1      -2.389   0.417  -0.354  0.00  0.00    +0.046 A 
ATOM     35  C   UNL     1      -3.586  -0.271  -0.301  0.00  0.00    +0.009 A 
ATOM     36  C   UNL     1      -3.591  -1.654  -0.311  0.00  0.00    -0.030 A 
ATOM     37  C   UNL     1      -2.398  -2.351  -0.374  0.00  0.00    +0.009 A 
ATOM     38  C   UNL     1      -1.199  -1.668  -0.433  0.00  0.00    +0.046 A 
BRANCH  33  40
ATOM     39  C   UNL     1      -0.081   1.821  -0.450  0.00  0.00    +0.277 C 
ATOM     40  O   UNL     1      -0.013   0.394  -0.469  0.00  0.00    -0.495 OA
ENDBRANCH  33  40
ENDBRANCH  32  36
ENDBRANCH  28  32
ENDBRANCH  27  29
ENDBRANCH  26  27
ENDBRANCH  22  26
ENDBRANCH   1  24
TORSDOF 10
