REMARK  Name = ZINC19933790
REMARK  4 active torsions:
REMARK  status: ('A' for Active; 'I' for Inactive)
REMARK    1  A    between atoms: C_1  and  C_2
REMARK    2  A    between atoms: C_2  and  O_3
REMARK    3  A    between atoms: O_3  and  C_4
REMARK    4  A    between atoms: C_9  and  C_10
REMARK                            x       y       z     vdW  Elec       q    Type
REMARK                         _______ _______ _______ _____ _____    ______ ____
ROOT
ATOM      1  C   UNL     1       1.990  -1.397  -3.491  0.00  0.00    +0.212 C 
ATOM      2  N   UNL     1       2.189  -2.124  -4.758  0.00  0.00    -0.294 N 
ATOM      3  C   UNL     1       3.324  -2.912  -4.883  0.00  0.00    +0.159 C 
ATOM      4  N   UNL     1       4.541  -2.298  -4.586  0.00  0.00    -0.259 N 
ATOM      5  C   UNL     1       4.493  -1.349  -3.568  0.00  0.00    +0.205 A 
ATOM      6  N   UNL     1       3.298  -0.904  -3.044  0.00  0.00    -0.288 N 
ATOM      7  C   UNL     1       3.596   0.022  -2.087  0.00  0.00    +0.072 A 
ATOM      8  C   UNL     1       2.808   0.798  -1.244  0.00  0.00    +0.028 A 
ATOM      9  C   UNL     1       3.466   1.652  -0.374  0.00  0.00    +0.002 A 
ATOM     10  C   UNL     1       4.847   1.740  -0.335  0.00  0.00    +0.002 A 
ATOM     11  C   UNL     1       5.653   0.979  -1.163  0.00  0.00    +0.030 A 
ATOM     12  C   UNL     1       5.011   0.109  -2.050  0.00  0.00    +0.091 A 
ATOM     13  N   UNL     1       5.490  -0.752  -2.975  0.00  0.00    -0.214 NA
ATOM     14  N   UNL     1       3.256  -4.158  -5.257  0.00  0.00    -0.375 N 
ATOM     15  H   UNL     1       5.362  -2.517  -5.054  0.00  0.00    +0.158 HD
ATOM     16  H   UNL     1       2.396  -4.559  -5.457  0.00  0.00    +0.158 HD
ATOM     17  H   UNL     1       1.547  -2.053  -5.482  0.00  0.00    +0.151 HD
ATOM     18  H   UNL     1       4.067  -4.686  -5.335  0.00  0.00    +0.158 HD
ENDROOT
BRANCH   1  24
ATOM     19  C   UNL     1       0.065  -2.647  -2.483  0.00  0.00    +0.127 A 
ATOM     20  C   UNL     1      -0.462  -3.507  -1.530  0.00  0.00    +0.046 A 
ATOM     21  C   UNL     1       0.357  -4.039  -0.553  0.00  0.00    +0.004 A 
ATOM     22  C   UNL     1       1.701  -3.715  -0.525  0.00  0.00    +0.001 A 
ATOM     23  C   UNL     1       2.228  -2.857  -1.472  0.00  0.00    +0.011 A 
ATOM     24  C   UNL     1       1.414  -2.327  -2.455  0.00  0.00    +0.035 A 
BRANCH  19  25
ATOM     25  O   UNL     1      -0.740  -2.122  -3.445  0.00  0.00    -0.492 OA
BRANCH  25  27
ATOM     26  C   UNL     1      -2.859  -1.812  -4.564  0.00  0.00    +0.048 C 
ATOM     27  C   UNL     1      -2.119  -2.495  -3.412  0.00  0.00    +0.225 C 
ENDBRANCH  25  27
ENDBRANCH  19  25
ENDBRANCH   1  24
TORSDOF 3
