REMARK  Name = ZINC22108918
REMARK  11 active torsions:
REMARK  status: ('A' for Active; 'I' for Inactive)
REMARK    1  A    between atoms: C_4  and  N_7
REMARK    2  A    between atoms: C_8  and  S_12
REMARK    3  A    between atoms: S_12  and  C_13
REMARK    4  A    between atoms: C_13  and  C_14
REMARK    5  A    between atoms: C_14  and  C_15
REMARK    6  A    between atoms: C_15  and  N_16
REMARK    7  A    between atoms: N_16  and  C_17
REMARK    8  A    between atoms: C_17  and  C_18
REMARK    9  A    between atoms: C_22  and  O_24
REMARK   10  A    between atoms: O_24  and  C_25
REMARK   11  A    between atoms: C_25  and  C_26
REMARK                            x       y       z     vdW  Elec       q    Type
REMARK                         _______ _______ _______ _____ _____    ______ ____
ROOT
ATOM      1  N   UNL     1      -3.905  -5.460  -1.398  0.00  0.00    +0.382 N 
ATOM      2  H   UNL     1      -3.073  -4.952  -1.907  0.00  0.00    -0.085 HD
ATOM      3  H   UNL     1      -4.851  -5.210  -1.901  0.00  0.00    -0.085 HD
ENDROOT
BRANCH   1   4
ATOM      4  C   UNL     1      -3.695  -6.913  -1.447  0.00  0.00    -0.081 C 
BRANCH   4   5
ATOM      5  C   UNL     1      -3.634  -7.371  -2.906  0.00  0.00    -0.008 C 
BRANCH   5   6
ATOM      6  C   UNL     1      -3.415  -8.884  -2.957  0.00  0.00    +0.075 C 
BRANCH   6   7
ATOM      7  S   UNL     1      -3.344  -9.426  -4.682  0.00  0.00    -0.084 S 
BRANCH   7   9
ATOM      8  N   UNL     1      -2.966 -12.089  -5.426  0.00  0.00    -0.187 N 
ATOM      9  C   UNL     1      -3.092 -11.154  -4.450  0.00  0.00    +0.214 A 
ATOM     10  N   UNL     1      -2.997 -11.783  -3.299  0.00  0.00    -0.101 NA
ATOM     11  N   UNL     1      -2.816 -13.041  -3.487  0.00  0.00    -0.022 NA
ATOM     12  N   UNL     1      -2.783 -13.307  -4.747  0.00  0.00    -0.038 NA
BRANCH   8  16
ATOM     13  C   UNL     1      -3.091 -11.481  -9.548  0.00  0.00    +0.000 A 
ATOM     14  C   UNL     1      -2.253 -12.444  -9.018  0.00  0.00    +0.002 A 
ATOM     15  C   UNL     1      -2.209 -12.648  -7.653  0.00  0.00    +0.028 A 
ATOM     16  C   UNL     1      -3.008 -11.885  -6.812  0.00  0.00    +0.070 A 
ATOM     17  C   UNL     1      -3.853 -10.922  -7.348  0.00  0.00    +0.028 A 
ATOM     18  C   UNL     1      -3.888 -10.719  -8.714  0.00  0.00    +0.002 A 
ENDBRANCH   8  16
ENDBRANCH   7   9
ENDBRANCH   6   7
ENDBRANCH   5   6
ENDBRANCH   4   5
ENDBRANCH   1   4
BRANCH   1  19
ATOM     19  C   UNL     1      -3.969  -4.984  -0.010  0.00  0.00    -0.047 C 
BRANCH  19  20
ATOM     20  C   UNL     1      -4.185  -3.493   0.000  0.00  0.00    -0.061 A 
ATOM     21  C   UNL     1      -5.469  -2.981   0.009  0.00  0.00    +0.002 A 
ATOM     22  C   UNL     1      -5.671  -1.613   0.018  0.00  0.00    +0.004 A 
ATOM     23  C   UNL     1      -4.589  -0.754   0.018  0.00  0.00    +0.045 A 
ATOM     24  C   UNL     1      -3.299  -1.265   0.009  0.00  0.00    +0.121 A 
ATOM     25  C   UNL     1      -3.100  -2.638  -0.005  0.00  0.00    +0.047 A 
BRANCH  24  26
ATOM     26  O   UNL     1      -2.233  -0.422   0.009  0.00  0.00    -0.487 OA
BRANCH  26  27
ATOM     27  C   UNL     1      -2.514   0.979   0.019  0.00  0.00    +0.266 C 
BRANCH  27  28
ATOM     28  C   UNL     1      -1.219   1.750   0.017  0.00  0.00    +0.008 A 
ATOM     29  C   UNL     1      -0.013   1.076   0.008  0.00  0.00    +0.010 A 
ATOM     30  C   UNL     1       1.175   1.783   0.000  0.00  0.00    +0.020 A 
ATOM     31  C   UNL     1       1.157   3.166   0.008  0.00  0.00    +0.042 A 
ATOM     32  C   UNL     1      -0.050   3.842   0.023  0.00  0.00    +0.040 A 
ATOM     33  C   UNL     1      -1.238   3.134   0.031  0.00  0.00    +0.049 A 
ATOM     34 CL   UNL     1      -2.754   3.981   0.049  0.00  0.00    -0.083 Cl
ATOM     35 CL   UNL     1       2.648   4.054  -0.001  0.00  0.00    -0.083 Cl
ENDBRANCH  27  28
ENDBRANCH  26  27
ENDBRANCH  24  26
ENDBRANCH  19  20
ENDBRANCH   1  19
TORSDOF 11
