REMARK  Name = ZINC17740316
REMARK  11 active torsions:
REMARK  status: ('A' for Active; 'I' for Inactive)
REMARK    1  A    between atoms: C_1  and  C_2
REMARK    2  A    between atoms: C_6  and  N_9
REMARK    3  A    between atoms: C_7  and  C_8
REMARK    4  A    between atoms: N_12  and  C_15
REMARK    5  A    between atoms: C_15  and  C_16
REMARK    6  A    between atoms: C_16  and  C_18
REMARK    7  A    between atoms: C_16  and  O_33
REMARK    8  A    between atoms: C_18  and  O_19
REMARK    9  A    between atoms: O_19  and  C_20
REMARK   10  A    between atoms: C_20  and  C_21
REMARK   11  A    between atoms: C_20  and  C_27
REMARK                            x       y       z     vdW  Elec       q    Type
REMARK                         _______ _______ _______ _____ _____    ______ ____
ROOT
ATOM      1  C   UNL     1       1.695  -6.792   4.827  0.00  0.00    +0.154 C 
ENDROOT
BRANCH   1   2
ATOM      2  O   UNL     1       2.866  -5.988   4.667  0.00  0.00    -0.388 OA
ATOM      3  H   UNL     1       3.024  -5.374   5.397  0.00  0.00    +0.210 HD
ENDBRANCH   1   2
BRANCH   1   4
ATOM      4  C   UNL     1       0.466  -5.887   4.932  0.00  0.00    +0.118 C 
BRANCH   4   8
ATOM      5  N   UNL     1      -1.120  -3.905   1.552  0.00  0.00    -0.391 NA
ATOM      6  C   UNL     1      -0.249  -5.065   1.326  0.00  0.00    +0.100 C 
ATOM      7  C   UNL     1      -0.185  -5.911   2.599  0.00  0.00    +0.102 C 
ATOM      8  N   UNL     1       0.336  -5.093   3.703  0.00  0.00    -0.297 NA
ATOM      9  C   UNL     1      -0.513  -3.913   3.924  0.00  0.00    +0.102 C 
ATOM     10  C   UNL     1      -0.573  -3.084   2.640  0.00  0.00    +0.100 C 
ATOM     11  H   UNL     1      -2.045  -4.222   1.802  0.00  0.00    +0.127 HD
BRANCH   5  17
ATOM     12  C   UNL     1      -3.780  -2.100  -2.161  0.00  0.00    +0.044 C 
ATOM     13  C   UNL     1      -2.466  -2.250  -1.437  0.00  0.00    -0.046 A 
ATOM     14  C   UNL     1      -1.332  -1.632  -1.929  0.00  0.00    +0.004 A 
ATOM     15  C   UNL     1      -0.127  -1.769  -1.266  0.00  0.00    +0.002 A 
ATOM     16  C   UNL     1      -0.057  -2.524  -0.109  0.00  0.00    +0.022 A 
ATOM     17  C   UNL     1      -1.191  -3.141   0.383  0.00  0.00    +0.017 A 
ATOM     18  C   UNL     1      -2.397  -3.000  -0.278  0.00  0.00    -0.028 A 
ATOM     19  C   UNL     1      -3.635  -3.669   0.261  0.00  0.00    +0.046 C 
ENDBRANCH   5  17
ENDBRANCH   4   8
ENDBRANCH   1   4
BRANCH   1  20
ATOM     20  C   UNL     1       1.822  -7.629   6.102  0.00  0.00    +0.193 C 
BRANCH  20  21
ATOM     21  O   UNL     1       2.900  -8.556   5.958  0.00  0.00    -0.365 OA
BRANCH  21  22
ATOM     22  C   UNL     1       3.105  -9.391   7.099  0.00  0.00    +0.178 C 
BRANCH  22  23
ATOM     23  C   UNL     1       3.666 -10.717   6.656  0.00  0.00    -0.015 A 
ATOM     24  C   UNL     1       4.622 -10.765   5.659  0.00  0.00    +0.006 A 
ATOM     25  C   UNL     1       5.137 -11.982   5.253  0.00  0.00    +0.000 A 
ATOM     26  C   UNL     1       4.695 -13.152   5.844  0.00  0.00    +0.000 A 
ATOM     27  C   UNL     1       3.739 -13.104   6.841  0.00  0.00    +0.000 A 
ATOM     28  C   UNL     1       3.228 -11.886   7.250  0.00  0.00    +0.006 A 
ENDBRANCH  22  23
BRANCH  22  29
ATOM     29  C   UNL     1       4.074  -8.725   8.041  0.00  0.00    -0.015 A 
ATOM     30  C   UNL     1       5.112  -7.962   7.540  0.00  0.00    +0.006 A 
ATOM     31  C   UNL     1       6.002  -7.352   8.404  0.00  0.00    +0.000 A 
ATOM     32  C   UNL     1       5.852  -7.503   9.770  0.00  0.00    +0.000 A 
ATOM     33  C   UNL     1       4.814  -8.264  10.271  0.00  0.00    +0.000 A 
ATOM     34  C   UNL     1       3.922  -8.872   9.407  0.00  0.00    +0.006 A 
ENDBRANCH  22  29
ENDBRANCH  21  22
ENDBRANCH  20  21
ENDBRANCH   1  20
TORSDOF 9
