REMARK  Name = ZINC61697575
REMARK  14 active torsions:
REMARK  status: ('A' for Active; 'I' for Inactive)
REMARK    1  A    between atoms: C_1  and  C_2
REMARK    2  A    between atoms: C_2  and  C_3
REMARK    3  A    between atoms: C_3  and  C_4
REMARK    4  A    between atoms: C_3  and  N_6
REMARK    5  A    between atoms: C_4  and  C_5
REMARK    6  A    between atoms: N_6  and  C_7
REMARK    7  A    between atoms: N_6  and  C_10
REMARK    8  A    between atoms: C_7  and  C_8
REMARK    9  A    between atoms: C_8  and  O_9
REMARK   10  A    between atoms: C_13  and  C_17
REMARK   11  A    between atoms: C_17  and  C_19
REMARK   12  A    between atoms: C_17  and  N_20
REMARK   13  A    between atoms: N_20  and  C_21
REMARK   14  A    between atoms: C_21  and  C_22
REMARK                            x       y       z     vdW  Elec       q    Type
REMARK                         _______ _______ _______ _____ _____    ______ ____
ROOT
ATOM      1  C   UNL     1       3.191  -0.713   0.152  0.00  0.00    +0.044 A 
ATOM      2  C   UNL     1       3.486   0.033  -0.982  0.00  0.00    +0.024 A 
ATOM      3  C   UNL     1       4.369  -0.462  -1.922  0.00  0.00    +0.004 A 
ATOM      4  C   UNL     1       4.959  -1.699  -1.735  0.00  0.00    -0.060 A 
ATOM      5  C   UNL     1       4.668  -2.445  -0.608  0.00  0.00    +0.019 A 
ATOM      6  C   UNL     1       3.789  -1.953   0.339  0.00  0.00    +0.039 A 
ATOM      7 BR   UNL     1       3.397  -2.970   1.885  0.00  0.00    -0.048 Br
ENDROOT
BRANCH   4   8
ATOM      8  C   UNL     1       5.921  -2.236  -2.763  0.00  0.00    -0.044 C 
ATOM      9  C   UNL     1       7.357  -2.006  -2.287  0.00  0.00    -0.009 C 
BRANCH   8  10
ATOM     10  N   UNL     1       5.690  -3.675  -2.946  0.00  0.00    +0.383 N 
ATOM     11  H   UNL     1       5.914  -4.162  -2.091  0.00  0.00    -0.085 HD
ATOM     12  H   UNL     1       4.722  -3.833  -3.180  0.00  0.00    -0.085 HD
BRANCH  10  13
ATOM     13  C   UNL     1       6.545  -4.174  -4.032  0.00  0.00    -0.085 C 
ATOM     14  C   UNL     1       6.304  -5.673  -4.222  0.00  0.00    -0.017 C 
ENDBRANCH  10  13
ENDBRANCH   8  10
ENDBRANCH   4   8
BRANCH   1  15
ATOM     15  N   UNL     1       2.299  -0.215   1.105  0.00  0.00    -0.324 N 
BRANCH  15  16
ATOM     16  C   UNL     1       2.667   0.948   1.916  0.00  0.00    +0.073 C 
BRANCH  16  18
ATOM     17  C   UNL     1       3.362  -0.482   3.842  0.00  0.00    +0.006 C 
ATOM     18  C   UNL     1       3.827   0.578   2.842  0.00  0.00    +0.019 C 
ENDBRANCH  16  18
BRANCH  16  19
ATOM     19  C   UNL     1       3.093   2.095   0.998  0.00  0.00    +0.019 C 
ATOM     20  C   UNL     1       1.886   2.580   0.192  0.00  0.00    +0.006 C 
ENDBRANCH  16  19
ENDBRANCH  15  16
BRANCH  15  21
ATOM     21  C   UNL     1       0.995  -0.856   1.293  0.00  0.00    +0.133 C 
BRANCH  21  22
ATOM     22  C   UNL     1      -0.053  -0.142   0.437  0.00  0.00    +0.174 C 
BRANCH  22  23
ATOM     23  O   UNL     1       0.276  -0.297  -0.945  0.00  0.00    -0.393 OA
ATOM     24  H   UNL     1      -0.347   0.132  -1.548  0.00  0.00    +0.209 HD
ENDBRANCH  22  23
ENDBRANCH  21  22
ENDBRANCH  15  21
ENDBRANCH   1  15
TORSDOF 10
