REMARK  Name = ZINC50051850
REMARK  7 active torsions:
REMARK  status: ('A' for Active; 'I' for Inactive)
REMARK    1  A    between atoms: C_1  and  N_2
REMARK    2  A    between atoms: C_3  and  C_5
REMARK    3  A    between atoms: C_9  and  N_11
REMARK    4  A    between atoms: N_14  and  C_15
REMARK    5  A    between atoms: C_15  and  C_16
REMARK    6  A    between atoms: N_21  and  C_23
REMARK    7  A    between atoms: C_23  and  C_24
REMARK                            x       y       z     vdW  Elec       q    Type
REMARK                         _______ _______ _______ _____ _____    ______ ____
ROOT
ATOM      1  N   UNL     1       1.875  -4.941   3.059  0.00  0.00    -0.269 N 
ATOM      2  C   UNL     1       1.802  -6.287   3.098  0.00  0.00    +0.304 C 
ATOM      3  O   UNL     1       1.278  -6.894   2.184  0.00  0.00    -0.253 OA
ATOM      4  N   UNL     1       2.309  -6.958   4.151  0.00  0.00    -0.299 N 
ATOM      5  H   UNL     1       2.359  -4.462   3.749  0.00  0.00    +0.156 HD
ATOM      6  H   UNL     1       2.727  -6.474   4.880  0.00  0.00    +0.150 HD
ENDROOT
BRANCH   1  11
ATOM      7  C   UNL     1      -0.546  -4.008   0.440  0.00  0.00    +0.038 A 
ATOM      8  C   UNL     1       0.028  -2.826  -0.032  0.00  0.00    +0.013 A 
ATOM      9  C   UNL     1       1.202  -2.360   0.522  0.00  0.00    +0.003 A 
ATOM     10  C   UNL     1       1.814  -3.060   1.546  0.00  0.00    +0.023 A 
ATOM     11  C   UNL     1       1.251  -4.237   2.023  0.00  0.00    +0.035 A 
ATOM     12  C   UNL     1       0.068  -4.710   1.476  0.00  0.00    +0.036 A 
BRANCH   7  15
ATOM     13  C   UNL     1      -3.643  -4.326  -1.741  0.00  0.00    +0.128 C 
ATOM     14  N   UNL     1      -2.396  -3.829  -1.154  0.00  0.00    -0.314 N 
ATOM     15  C   UNL     1      -1.805  -4.509  -0.152  0.00  0.00    +0.244 C 
ATOM     16  O   UNL     1      -2.305  -5.536   0.264  0.00  0.00    -0.270 OA
ATOM     17  H   UNL     1      -1.997  -3.010  -1.486  0.00  0.00    +0.149 HD
ENDBRANCH   7  15
ENDBRANCH   1  11
BRANCH   4  18
ATOM     18  C   UNL     1       2.230  -8.421   4.194  0.00  0.00    +0.107 C 
BRANCH  18  19
ATOM     19  C   UNL     1       2.874  -8.929   5.485  0.00  0.00    -0.011 C 
ATOM     20  C   UNL     1       2.059  -8.446   6.688  0.00  0.00    +0.001 C 
ATOM     21  C   UNL     1       2.667  -9.024   7.969  0.00  0.00    -0.018 C 
ATOM     22  C   UNL     1       2.701 -10.550   7.867  0.00  0.00    -0.078 C 
ATOM     23  N   UNL     1       3.517 -10.949   6.714  0.00  0.00    +0.383 N 
ATOM     24  C   UNL     1       2.902 -10.459   5.474  0.00  0.00    -0.073 C 
ATOM     25  H   UNL     1       4.442 -10.557   6.806  0.00  0.00    -0.081 HD
BRANCH  23  26
ATOM     26  C   UNL     1       3.611 -12.414   6.665  0.00  0.00    -0.036 C 
BRANCH  26  27
ATOM     27  C   UNL     1       4.361 -12.909   7.875  0.00  0.00    -0.027 A 
ATOM     28  C   UNL     1       3.879 -13.271   9.089  0.00  0.00    +0.009 A 
ATOM     29  C   UNL     1       4.763 -13.700  10.061  0.00  0.00    +0.008 A 
ATOM     30  C   UNL     1       6.087 -13.747   9.771  0.00  0.00    +0.045 A 
ATOM     31  S   UNL     1       6.114 -13.180   8.079  0.00  0.00    -0.103 S 
ENDBRANCH  26  27
ENDBRANCH  23  26
ENDBRANCH  18  19
ENDBRANCH   4  18
TORSDOF 6
