REMARK  Name = ZINC26483220
REMARK  10 active torsions:
REMARK  status: ('A' for Active; 'I' for Inactive)
REMARK    1  A    between atoms: C_1  and  C_2
REMARK    2  A    between atoms: C_2  and  C_4
REMARK    3  A    between atoms: C_2  and  N_15
REMARK    4  A    between atoms: N_6  and  C_7
REMARK    5  A    between atoms: C_8  and  C_12
REMARK    6  A    between atoms: N_15  and  C_16
REMARK    7  A    between atoms: N_15  and  C_17
REMARK    8  A    between atoms: C_17  and  C_18
REMARK    9  A    between atoms: C_21  and  O_24
REMARK   10  A    between atoms: O_24  and  C_25
REMARK                            x       y       z     vdW  Elec       q    Type
REMARK                         _______ _______ _______ _____ _____    ______ ____
ROOT
ATOM      1  C   UNL     1      -0.574   1.385   0.330  0.00  0.00    -0.004 C 
ATOM      2  C   UNL     1      -0.066  -0.055   0.244  0.00  0.00    +0.016 C 
ENDROOT
BRANCH   2   3
ATOM      3  C   UNL     1       0.333  -0.530   1.617  0.00  0.00    +0.204 C 
ATOM      4  O   UNL     1      -0.468  -1.119   2.311  0.00  0.00    -0.277 OA
ATOM      5  N   UNL     1       1.580  -0.299   2.074  0.00  0.00    -0.281 N 
ATOM      6  H   UNL     1       2.220   0.172   1.519  0.00  0.00    +0.155 HD
BRANCH   5   7
ATOM      7  C   UNL     1       1.947  -0.736   3.338  0.00  0.00    +0.084 A 
ATOM      8  C   UNL     1       3.172  -0.585   3.970  0.00  0.00    +0.065 A 
ATOM      9  C   UNL     1       3.287  -1.141   5.299  0.00  0.00    +0.022 A 
ATOM     10  C   UNL     1       2.185  -1.747   5.778  0.00  0.00    +0.048 A 
ATOM     11  S   UNL     1       1.008  -1.563   4.456  0.00  0.00    -0.081 S 
BRANCH   8  12
ATOM     12  C   UNL     1       4.294   0.103   3.323  0.00  0.00    +0.244 C 
ATOM     13  O   UNL     1       4.163   0.559   2.202  0.00  0.00    -0.270 OA
ATOM     14  N   UNL     1       5.470   0.230   3.969  0.00  0.00    -0.325 N 
ATOM     15  H   UNL     1       5.574  -0.134   4.862  0.00  0.00    +0.145 HD
ATOM     16  H   UNL     1       6.212   0.685   3.541  0.00  0.00    +0.145 HD
ENDBRANCH   8  12
ENDBRANCH   5   7
ENDBRANCH   2   3
BRANCH   2  17
ATOM     17  N   UNL     1      -1.130  -0.919  -0.283  0.00  0.00    +0.388 N 
ATOM     18  C   UNL     1      -0.631  -2.296  -0.399  0.00  0.00    -0.095 C 
ATOM     19  H   UNL     1      -1.921  -0.900   0.344  0.00  0.00    -0.081 HD
BRANCH  17  20
ATOM     20  C   UNL     1      -1.543  -0.436  -1.607  0.00  0.00    -0.042 C 
BRANCH  20  21
ATOM     21  C   UNL     1      -2.717  -1.246  -2.095  0.00  0.00    -0.064 A 
ATOM     22  C   UNL     1      -2.503  -2.397  -2.831  0.00  0.00    +0.005 A 
ATOM     23  C   UNL     1      -3.578  -3.141  -3.279  0.00  0.00    +0.046 A 
ATOM     24  C   UNL     1      -4.872  -2.733  -2.989  0.00  0.00    +0.127 A 
ATOM     25  C   UNL     1      -5.083  -1.578  -2.250  0.00  0.00    +0.046 A 
ATOM     26  C   UNL     1      -4.005  -0.840  -1.800  0.00  0.00    +0.005 A 
BRANCH  24  27
ATOM     27  O   UNL     1      -5.930  -3.463  -3.429  0.00  0.00    -0.434 OA
BRANCH  27  28
ATOM     28  C   UNL     1      -7.233  -2.983  -3.094  0.00  0.00    +0.541 C 
ATOM     29  F   UNL     1      -7.367  -2.929  -1.702  0.00  0.00    -0.166 F 
ATOM     30  F   UNL     1      -7.411  -1.703  -3.629  0.00  0.00    -0.166 F 
ENDBRANCH  27  28
ENDBRANCH  24  27
ENDBRANCH  20  21
ENDBRANCH  17  20
ENDBRANCH   2  17
TORSDOF 8
