REMARK  Name = ZINC21088547
REMARK  3 active torsions:
REMARK  status: ('A' for Active; 'I' for Inactive)
REMARK    1  A    between atoms: C_1  and  C_2
REMARK    2  A    between atoms: C_8  and  C_10
REMARK    3  A    between atoms: C_10  and  N_11
REMARK                            x       y       z     vdW  Elec       q    Type
REMARK                         _______ _______ _______ _____ _____    ______ ____
ROOT
ATOM      1  N   UNL     1      -0.055   1.239   0.002  0.00  0.00    -0.260 N 
ATOM      2  C   UNL     1       1.040   2.052   0.195  0.00  0.00    +0.061 A 
ATOM      3  C   UNL     1       1.029   2.631   1.485  0.00  0.00    +0.025 A 
ATOM      4  C   UNL     1       2.036   3.452   1.922  0.00  0.00    +0.002 A 
ATOM      5  C   UNL     1       3.098   3.726   1.080  0.00  0.00    +0.002 A 
ATOM      6  C   UNL     1       3.110   3.182  -0.179  0.00  0.00    +0.028 A 
ATOM      7  C   UNL     1       2.071   2.347  -0.644  0.00  0.00    +0.068 A 
ATOM      8  N   UNL     1       2.314   1.962  -1.974  0.00  0.00    -0.309 N 
ATOM      9  C   UNL     1       3.060   2.891  -2.720  0.00  0.00    +0.092 A 
ATOM     10  C   UNL     1       3.286   2.401  -3.941  0.00  0.00    +0.021 A 
ATOM     11  C   UNL     1       2.663   1.147  -4.001  0.00  0.00    +0.034 A 
ATOM     12  C   UNL     1       2.064   0.918  -2.783  0.00  0.00    +0.081 A 
ATOM     13  S   UNL     1       1.153  -0.560  -2.507  0.00  0.00    -0.098 S 
ATOM     14  C   UNL     1       1.120  -0.776  -0.713  0.00  0.00    +0.172 C 
ATOM     15  C   UNL     1      -0.111  -0.067  -0.201  0.00  0.00    +0.230 C 
ATOM     16  O   UNL     1      -1.133  -0.683   0.021  0.00  0.00    -0.274 OA
ENDROOT
BRANCH   1  17
ATOM     17  C   UNL     1      -1.350   1.923   0.018  0.00  0.00    +0.209 C 
BRANCH  17  25
ATOM     18  C   UNL     1      -4.950   6.616  -2.106  0.00  0.00    +0.007 C 
ATOM     19  C   UNL     1      -4.637   5.122  -2.003  0.00  0.00    -0.011 C 
ATOM     20  C   UNL     1      -3.617   4.739  -3.077  0.00  0.00    +0.022 C 
ATOM     21  C   UNL     1      -3.332   3.236  -2.993  0.00  0.00    +0.108 C 
ATOM     22  N   UNL     1      -2.916   2.909  -1.623  0.00  0.00    -0.300 N 
ATOM     23  C   UNL     1      -3.785   3.309  -0.507  0.00  0.00    +0.108 C 
ATOM     24  C   UNL     1      -4.062   4.816  -0.618  0.00  0.00    +0.022 C 
ATOM     25  C   UNL     1      -1.763   2.251  -1.393  0.00  0.00    +0.233 C 
ATOM     26  O   UNL     1      -1.057   1.922  -2.323  0.00  0.00    -0.274 OA
ENDBRANCH  17  25
ENDBRANCH   1  17
TORSDOF 2
