REMARK  Name = ZINC17027823
REMARK  5 active torsions:
REMARK  status: ('A' for Active; 'I' for Inactive)
REMARK    1  A    between atoms: C_1  and  C_2
REMARK    2  A    between atoms: C_2  and  C_3
REMARK    3  A    between atoms: C_2  and  C_4
REMARK    4  A    between atoms: C_4  and  N_5
REMARK    5  A    between atoms: C_6  and  C_8
REMARK                            x       y       z     vdW  Elec       q    Type
REMARK                         _______ _______ _______ _____ _____    ______ ____
ROOT
ATOM      1  C   UNL     1      -2.565  -4.129  -0.368  0.00  0.00    +0.148 A 
ATOM      2  C   UNL     1      -1.331  -4.830  -0.473  0.00  0.00    +0.205 A 
ATOM      3  C   UNL     1      -1.383  -6.284  -0.713  0.00  0.00    +0.046 A 
ATOM      4  C   UNL     1      -0.213  -7.036  -0.827  0.00  0.00    +0.014 A 
ATOM      5  C   UNL     1      -0.295  -8.393  -1.051  0.00  0.00    +0.001 A 
ATOM      6  C   UNL     1      -1.533  -9.011  -1.163  0.00  0.00    +0.002 A 
ATOM      7  C   UNL     1      -2.696  -8.280  -1.053  0.00  0.00    +0.026 A 
ATOM      8  C   UNL     1      -2.635  -6.908  -0.826  0.00  0.00    +0.053 A 
ATOM      9  N   UNL     1      -3.792  -6.162  -0.712  0.00  0.00    -0.321 N 
ATOM     10  H   UNL     1      -4.650  -6.607  -0.792  0.00  0.00    +0.169 HD
ATOM     11  C   UNL     1      -3.763  -4.829  -0.487  0.00  0.00    +0.265 A 
ATOM     12  O   UNL     1      -4.926  -4.158  -0.380  0.00  0.00    -0.267 OA
ATOM     13  O   UNL     1      -0.266  -4.247  -0.369  0.00  0.00    -0.286 OA
ENDROOT
BRANCH   1  15
ATOM     14  N   UNL     1      -1.418  -1.990  -0.134  0.00  0.00    -0.311 N 
ATOM     15  C   UNL     1      -2.575  -2.682  -0.130  0.00  0.00    +0.253 C 
ATOM     16  O   UNL     1      -3.628  -2.106   0.072  0.00  0.00    -0.270 OA
ATOM     17  H   UNL     1      -0.573  -2.458  -0.222  0.00  0.00    +0.149 HD
BRANCH  14  18
ATOM     18  C   UNL     1      -1.437  -0.530  -0.007  0.00  0.00    +0.107 C 
BRANCH  18  20
ATOM     19  C   UNL     1      -0.028   1.533  -0.034  0.00  0.00    +0.009 C 
ATOM     20  C   UNL     1      -0.003   0.003  -0.041  0.00  0.00    -0.000 C 
ATOM     21  C   UNL     1       0.757  -0.501   1.188  0.00  0.00    +0.009 C 
ENDBRANCH  18  20
ENDBRANCH  14  18
ENDBRANCH   1  15
TORSDOF 3
