REMARK  Name = ZINC42954925
REMARK  8 active torsions:
REMARK  status: ('A' for Active; 'I' for Inactive)
REMARK    1  A    between atoms: C_1  and  C_2
REMARK    2  A    between atoms: C_2  and  C_4
REMARK    3  A    between atoms: C_2  and  N_22
REMARK    4  A    between atoms: C_4  and  C_6
REMARK    5  A    between atoms: C_4  and  N_13
REMARK    6  A    between atoms: N_13  and  C_14
REMARK    7  A    between atoms: N_13  and  C_15
REMARK    8  A    between atoms: C_15  and  C_16
REMARK                            x       y       z     vdW  Elec       q    Type
REMARK                         _______ _______ _______ _____ _____    ______ ____
ROOT
ATOM      1  C   UNL     1       0.898  -0.687   1.180  0.00  0.00    +0.072 C 
ENDROOT
BRANCH   1   2
ATOM      2  C   UNL     1       2.311  -0.184   1.033  0.00  0.00    -0.032 A 
ATOM      3  C   UNL     1       2.623   1.116   1.385  0.00  0.00    +0.006 A 
ATOM      4  C   UNL     1       3.919   1.577   1.251  0.00  0.00    +0.015 A 
ATOM      5  C   UNL     1       4.904   0.737   0.765  0.00  0.00    +0.018 A 
ATOM      6  C   UNL     1       4.593  -0.564   0.413  0.00  0.00    +0.015 A 
ATOM      7  C   UNL     1       3.297  -1.026   0.552  0.00  0.00    +0.006 A 
ATOM      8 BR   UNL     1       6.678   1.367   0.582  0.00  0.00    -0.050 Br
ENDBRANCH   1   2
BRANCH   1  10
ATOM      9  C   UNL     1      -0.036   1.338   0.053  0.00  0.00    -0.012 C 
ATOM     10  C   UNL     1       0.055  -0.188   0.004  0.00  0.00    -0.056 C 
BRANCH  10  11
ATOM     11  N   UNL     1       0.683  -0.601  -1.258  0.00  0.00    +0.381 N 
ATOM     12  H   UNL     1       0.744  -1.608  -1.291  0.00  0.00    -0.090 HD
ATOM     13  H   UNL     1       0.128  -0.272  -2.034  0.00  0.00    -0.090 HD
ATOM     14  H   UNL     1       1.610  -0.206  -1.318  0.00  0.00    -0.090 HD
ENDBRANCH  10  11
ENDBRANCH   1  10
BRANCH   1  15
ATOM     15  N   UNL     1       0.328  -0.186   2.438  0.00  0.00    -0.295 NA
ATOM     16  C   UNL     1      -1.082  -0.576   2.569  0.00  0.00    +0.105 C 
BRANCH  15  17
ATOM     17  C   UNL     1       1.112  -0.647   3.591  0.00  0.00    +0.127 C 
BRANCH  17  18
ATOM     18  C   UNL     1       0.654   0.076   4.831  0.00  0.00    +0.005 A 
ATOM     19  C   UNL     1      -0.311  -0.274   5.716  0.00  0.00    +0.027 A 
ATOM     20  C   UNL     1      -0.564   0.553   6.795  0.00  0.00    +0.025 A 
ATOM     21  C   UNL     1       0.162   1.689   6.936  0.00  0.00    +0.060 A 
ATOM     22  S   UNL     1       1.248   1.612   5.521  0.00  0.00    -0.099 S 
ATOM     23 BR   UNL     1      -1.901   0.106   8.055  0.00  0.00    -0.050 Br
ENDBRANCH  17  18
ENDBRANCH  15  17
ENDBRANCH   1  15
TORSDOF 6
