REMARK  Name = ZINC17026559
REMARK  12 active torsions:
REMARK  status: ('A' for Active; 'I' for Inactive)
REMARK    1  A    between atoms: C_1  and  C_2
REMARK    2  A    between atoms: C_5  and  O_35
REMARK    3  A    between atoms: C_6  and  S_8
REMARK    4  A    between atoms: S_8  and  N_11
REMARK    5  A    between atoms: N_11  and  C_12
REMARK    6  A    between atoms: C_15  and  N_18
REMARK    7  A    between atoms: C_21  and  C_34
REMARK    8  A    between atoms: C_23  and  N_25
REMARK    9  A    between atoms: N_25  and  C_26
REMARK   10  A    between atoms: C_29  and  O_32
REMARK   11  A    between atoms: O_32  and  C_33
REMARK   12  A    between atoms: O_35  and  C_36
REMARK                            x       y       z     vdW  Elec       q    Type
REMARK                         _______ _______ _______ _____ _____    ______ ____
ROOT
ATOM      1  C   UNL     1      -3.526  -0.143  -3.005  0.00  0.00    +0.048 A 
ATOM      2  C   UNL     1      -2.890  -1.341  -2.706  0.00  0.00    +0.026 A 
ATOM      3  C   UNL     1      -1.662  -1.333  -2.075  0.00  0.00    +0.025 A 
ATOM      4  C   UNL     1      -1.063  -0.126  -1.739  0.00  0.00    +0.034 A 
ATOM      5  C   UNL     1      -1.701   1.072  -2.033  0.00  0.00    +0.025 A 
ATOM      6  C   UNL     1      -2.927   1.063  -2.669  0.00  0.00    +0.026 A 
ENDROOT
BRANCH   4   7
ATOM      7  N   UNL     1       0.183  -0.117  -1.099  0.00  0.00    -0.284 N 
ATOM      8  C   UNL     1       1.125   0.844  -1.429  0.00  0.00    +0.221 A 
ATOM      9  N   UNL     1       0.874   1.677  -2.429  0.00  0.00    -0.219 NA
ATOM     10  C   UNL     1       1.748   2.612  -2.771  0.00  0.00    +0.045 A 
ATOM     11  C   UNL     1       2.939   2.710  -2.079  0.00  0.00    +0.067 A 
ATOM     12  C   UNL     1       3.178   1.815  -1.034  0.00  0.00    +0.128 A 
ATOM     13  N   UNL     1       2.255   0.904  -0.741  0.00  0.00    -0.199 NA
ATOM     14  C   UNL     1       1.447   3.556  -3.906  0.00  0.00    +0.066 C 
ATOM     15  H   UNL     1       0.388  -0.786  -0.427  0.00  0.00    +0.155 HD
BRANCH  12  16
ATOM     16  N   UNL     1       4.359   1.875  -0.311  0.00  0.00    -0.299 N 
ATOM     17  H   UNL     1       5.028   2.543  -0.531  0.00  0.00    +0.154 HD
BRANCH  16  18
ATOM     18  C   UNL     1       4.588   0.973   0.734  0.00  0.00    +0.033 A 
ATOM     19  C   UNL     1       3.539   0.583   1.557  0.00  0.00    +0.027 A 
ATOM     20  C   UNL     1       3.764  -0.311   2.585  0.00  0.00    +0.047 A 
ATOM     21  C   UNL     1       5.040  -0.811   2.803  0.00  0.00    +0.120 A 
ATOM     22  C   UNL     1       6.089  -0.418   1.985  0.00  0.00    +0.047 A 
ATOM     23  C   UNL     1       5.864   0.472   0.953  0.00  0.00    +0.027 A 
BRANCH  21  24
ATOM     24  O   UNL     1       5.261  -1.688   3.818  0.00  0.00    -0.495 OA
ATOM     25  C   UNL     1       4.136  -2.050   4.621  0.00  0.00    +0.277 C 
ENDBRANCH  21  24
ENDBRANCH  16  18
ENDBRANCH  12  16
ENDBRANCH   4   7
BRANCH   1  26
ATOM     26  N   UNL     1      -4.771  -0.152  -3.645  0.00  0.00    -0.216 N 
ATOM     27  H   UNL     1      -4.903  -0.692  -4.440  0.00  0.00    +0.174 HD
BRANCH  26  28
ATOM     28  S   UNL     1      -6.016   0.759  -3.045  0.00  0.00    +0.076 S 
ATOM     29  O   UNL     1      -5.500   2.067  -2.839  0.00  0.00    -0.150 OA
ATOM     30  O   UNL     1      -7.141   0.506  -3.876  0.00  0.00    -0.150 OA
BRANCH  28  36
ATOM     31  C   UNL     1      -6.118   1.152   2.165  0.00  0.00    +0.044 C 
ATOM     32  C   UNL     1      -6.434   0.348   0.930  0.00  0.00    -0.048 A 
ATOM     33  C   UNL     1      -7.036  -0.891   1.049  0.00  0.00    +0.007 A 
ATOM     34  C   UNL     1      -7.326  -1.630  -0.081  0.00  0.00    +0.048 A 
ATOM     35  C   UNL     1      -7.020  -1.125  -1.337  0.00  0.00    +0.147 A 
ATOM     36  C   UNL     1      -6.412   0.117  -1.453  0.00  0.00    +0.150 A 
ATOM     37  C   UNL     1      -6.123   0.851  -0.319  0.00  0.00    +0.036 A 
BRANCH  35  38
ATOM     38  O   UNL     1      -7.311  -1.847  -2.451  0.00  0.00    -0.493 OA
ATOM     39  C   UNL     1      -8.025  -3.071  -2.263  0.00  0.00    +0.277 C 
ENDBRANCH  35  38
ENDBRANCH  28  36
ENDBRANCH  26  28
ENDBRANCH   1  26
TORSDOF 8
