REMARK  Name = ZINC11538533
REMARK  11 active torsions:
REMARK  status: ('A' for Active; 'I' for Inactive)
REMARK    1  A    between atoms: C_1  and  C_2
REMARK    2  A    between atoms: C_2  and  C_3
REMARK    3  A    between atoms: C_3  and  C_5
REMARK    4  A    between atoms: C_3  and  C_6
REMARK    5  A    between atoms: C_9  and  N_12
REMARK    6  A    between atoms: C_22  and  S_23
REMARK    7  A    between atoms: S_23  and  C_24
REMARK    8  A    between atoms: C_24  and  C_25
REMARK    9  A    between atoms: N_30  and  C_31
REMARK   10  A    between atoms: C_31  and  C_32
REMARK   11  A    between atoms: C_31  and  C_33
REMARK                            x       y       z     vdW  Elec       q    Type
REMARK                         _______ _______ _______ _____ _____    ______ ____
ROOT
ATOM      1  N   UNL     1       2.124   3.438   0.000  0.00  0.00    -0.255 N 
ATOM      2  C   UNL     1       3.359   3.667  -0.504  0.00  0.00    +0.267 A 
ATOM      3  O   UNL     1       3.667   4.758  -0.949  0.00  0.00    -0.267 OA
ATOM      4  C   UNL     1       4.314   2.552  -0.496  0.00  0.00    +0.065 A 
ATOM      5  C   UNL     1       5.610   2.688  -0.992  0.00  0.00    +0.015 A 
ATOM      6  C   UNL     1       6.460   1.617  -0.960  0.00  0.00    +0.001 A 
ATOM      7  C   UNL     1       6.046   0.397  -0.438  0.00  0.00    +0.002 A 
ATOM      8  C   UNL     1       4.782   0.236   0.054  0.00  0.00    +0.028 A 
ATOM      9  C   UNL     1       3.889   1.312   0.036  0.00  0.00    +0.079 A 
ATOM     10  N   UNL     1       2.631   1.199   0.519  0.00  0.00    -0.223 NA
ATOM     11  C   UNL     1       1.794   2.207   0.496  0.00  0.00    +0.177 A 
ENDROOT
BRANCH   1  15
ATOM     12  C   UNL     1      -0.694   6.508   0.044  0.00  0.00    -0.044 A 
ATOM     13  C   UNL     1       0.156   6.337   1.121  0.00  0.00    +0.006 A 
ATOM     14  C   UNL     1       1.091   5.320   1.109  0.00  0.00    +0.026 A 
ATOM     15  C   UNL     1       1.177   4.470   0.015  0.00  0.00    +0.052 A 
ATOM     16  C   UNL     1       0.326   4.649  -1.068  0.00  0.00    +0.026 A 
ATOM     17  C   UNL     1      -0.611   5.663  -1.048  0.00  0.00    +0.006 A 
BRANCH  12  18
ATOM     18  C   UNL     1      -1.713   7.618   0.059  0.00  0.00    +0.016 C 
ATOM     19  C   UNL     1      -1.460   8.560  -1.119  0.00  0.00    +0.012 C 
BRANCH  18  21
ATOM     20  C   UNL     1      -4.157   8.136   0.085  0.00  0.00    +0.004 C 
ATOM     21  C   UNL     1      -3.118   7.022  -0.056  0.00  0.00    +0.004 C 
ENDBRANCH  18  21
ENDBRANCH  12  18
ENDBRANCH   1  15
BRANCH  11  22
ATOM     22  S   UNL     1       0.172   1.968   1.140  0.00  0.00    -0.078 S 
BRANCH  22  23
ATOM     23  C   UNL     1       0.283   0.231   1.637  0.00  0.00    +0.173 C 
BRANCH  23  24
ATOM     24  C   UNL     1      -1.030  -0.206   2.234  0.00  0.00    +0.231 C 
ATOM     25  O   UNL     1      -1.950   0.579   2.315  0.00  0.00    -0.274 OA
ATOM     26  N   UNL     1      -1.181  -1.470   2.677  0.00  0.00    -0.239 N 
ATOM     27  C   UNL     1      -2.355  -1.861   3.210  0.00  0.00    +0.306 C 
ATOM     28  O   UNL     1      -3.277  -1.074   3.292  0.00  0.00    -0.252 OA
ATOM     29  N   UNL     1      -2.506  -3.125   3.654  0.00  0.00    -0.297 N 
ATOM     30  H   UNL     1      -0.444  -2.098   2.612  0.00  0.00    +0.159 HD
ATOM     31  H   UNL     1      -1.770  -3.753   3.588  0.00  0.00    +0.151 HD
BRANCH  29  32
ATOM     32  C   UNL     1      -3.782  -3.550   4.234  0.00  0.00    +0.068 C 
ATOM     33  C   UNL     1      -3.933  -5.065   4.081  0.00  0.00    +0.027 C 
ATOM     34  C   UNL     1      -3.816  -3.181   5.718  0.00  0.00    +0.027 C 
ENDBRANCH  29  32
ENDBRANCH  23  24
ENDBRANCH  22  23
ENDBRANCH  11  22
TORSDOF 7
