REMARK  Name = ZINC37112230
REMARK  11 active torsions:
REMARK  status: ('A' for Active; 'I' for Inactive)
REMARK    1  A    between atoms: C_1  and  C_2
REMARK    2  A    between atoms: C_2  and  C_3
REMARK    3  A    between atoms: C_3  and  C_5
REMARK    4  A    between atoms: C_3  and  N_6
REMARK    5  A    between atoms: N_6  and  C_7
REMARK    6  A    between atoms: N_6  and  C_9
REMARK    7  A    between atoms: C_7  and  C_8
REMARK    8  A    between atoms: C_9  and  C_11
REMARK    9  A    between atoms: C_9  and  C_12
REMARK   10  A    between atoms: N_14  and  C_15
REMARK   11  A    between atoms: C_18  and  N_22
REMARK                            x       y       z     vdW  Elec       q    Type
REMARK                         _______ _______ _______ _____ _____    ______ ____
ROOT
ATOM      1  C   UNL     1      -3.928  -1.727  -0.335  0.00  0.00    +0.203 C 
ATOM      2  O   UNL     1      -3.172  -2.330   0.397  0.00  0.00    -0.277 OA
ATOM      3  N   UNL     1      -4.687  -2.401  -1.222  0.00  0.00    -0.284 N 
ATOM      4  H   UNL     1      -5.223  -1.915  -1.869  0.00  0.00    +0.155 HD
ENDROOT
BRANCH   3   5
ATOM      5  C   UNL     1      -4.702  -3.803  -1.211  0.00  0.00    +0.070 A 
ATOM      6  C   UNL     1      -5.905  -4.483  -1.065  0.00  0.00    +0.065 A 
ATOM      7  C   UNL     1      -5.920  -5.865  -1.054  0.00  0.00    +0.044 A 
ATOM      8  C   UNL     1      -4.732  -6.574  -1.188  0.00  0.00    +0.027 A 
ATOM      9  C   UNL     1      -3.530  -5.893  -1.333  0.00  0.00    +0.044 A 
ATOM     10  C   UNL     1      -3.516  -4.512  -1.351  0.00  0.00    +0.065 A 
ATOM     11 CL   UNL     1      -2.014  -3.662  -1.540  0.00  0.00    -0.082 Cl
ATOM     12 CL   UNL     1      -7.388  -3.598  -0.897  0.00  0.00    -0.082 Cl
BRANCH   8  13
ATOM     13  N   UNL     1      -4.748  -7.972  -1.176  0.00  0.00    -0.358 N 
ATOM     14  H   UNL     1      -5.587  -8.447  -1.074  0.00  0.00    +0.142 HD
ATOM     15  H   UNL     1      -3.919  -8.467  -1.269  0.00  0.00    +0.142 HD
ENDBRANCH   8  13
ENDBRANCH   3   5
BRANCH   1  16
ATOM     16  C   UNL     1      -4.018  -0.225  -0.253  0.00  0.00    +0.017 C 
ATOM     17  C   UNL     1      -3.179   0.398  -1.370  0.00  0.00    -0.004 C 
BRANCH  16  18
ATOM     18  N   UNL     1      -3.512   0.225   1.050  0.00  0.00    +0.389 N 
ATOM     19  H   UNL     1      -2.606  -0.186   1.220  0.00  0.00    -0.080 HD
BRANCH  18  20
ATOM     20  C   UNL     1      -4.443  -0.190   2.108  0.00  0.00    -0.071 C 
ATOM     21  C   UNL     1      -5.872  -0.181   1.561  0.00  0.00    -0.013 C 
BRANCH  20  23
ATOM     22  C   UNL     1      -2.606  -1.652   2.960  0.00  0.00    +0.002 C 
ATOM     23  C   UNL     1      -4.086  -1.602   2.577  0.00  0.00    -0.019 C 
ENDBRANCH  20  23
ENDBRANCH  18  20
BRANCH  18  24
ATOM     24  C   UNL     1      -3.393   1.689   1.050  0.00  0.00    -0.081 C 
ATOM     25  C   UNL     1      -2.804   2.153   2.384  0.00  0.00    -0.017 C 
ENDBRANCH  18  24
ENDBRANCH  16  18
ENDBRANCH   1  16
TORSDOF 7
