REMARK  Name = ZINC04424633
REMARK  11 active torsions:
REMARK  status: ('A' for Active; 'I' for Inactive)
REMARK    1  A    between atoms: C_1  and  C_2
REMARK    2  A    between atoms: C_8  and  C_28
REMARK    3  A    between atoms: C_12  and  C_14
REMARK    4  A    between atoms: C_12  and  C_17
REMARK    5  A    between atoms: C_14  and  C_15
REMARK    6  A    between atoms: C_15  and  O_16
REMARK    7  A    between atoms: C_17  and  O_18
REMARK    8  A    between atoms: C_21  and  O_27
REMARK    9  A    between atoms: C_23  and  C_24
REMARK   10  A    between atoms: C_23  and  C_25
REMARK   11  A    between atoms: C_25  and  O_26
REMARK                            x       y       z     vdW  Elec       q    Type
REMARK                         _______ _______ _______ _____ _____    ______ ____
ROOT
ATOM      1  C   UNL     1       1.591   5.777   3.165  0.00  0.00    +0.010 C 
ATOM      2  C   UNL     1       1.575   4.381   2.546  0.00  0.00    +0.018 C 
ATOM      3  C   UNL     1       1.495   3.332   3.654  0.00  0.00    +0.006 C 
ATOM      4  C   UNL     1       2.863   3.136   4.316  0.00  0.00    +0.005 C 
ATOM      5  C   UNL     1       3.844   2.683   3.235  0.00  0.00    +0.008 C 
ATOM      6  C   UNL     1       4.049   3.803   2.225  0.00  0.00    +0.001 C 
ATOM      7  C   UNL     1       2.701   4.131   1.574  0.00  0.00    +0.079 C 
ATOM      8  C   UNL     1       2.876   5.298   0.576  0.00  0.00    +0.039 C 
ATOM      9  C   UNL     1       1.663   5.049  -0.364  0.00  0.00    +0.040 C 
ATOM     10  C   UNL     1       1.590   3.509  -0.401  0.00  0.00    +0.095 C 
ATOM     11  O   UNL     1       2.360   3.017   0.707  0.00  0.00    -0.364 OA
ATOM     12  C   UNL     1       5.009   3.312   1.131  0.00  0.00    +0.012 C 
ATOM     13  C   UNL     1       6.338   2.902   1.761  0.00  0.00    +0.032 C 
ATOM     14  C   UNL     1       6.132   1.745   2.728  0.00  0.00    +0.123 C 
ATOM     15  C   UNL     1       5.101   2.069   3.808  0.00  0.00    +0.020 C 
ATOM     16  C   UNL     1       4.722   0.720   4.468  0.00  0.00    +0.016 C 
ATOM     17  C   UNL     1       4.638   5.064   2.849  0.00  0.00    +0.014 C 
ENDROOT
BRANCH  14  18
ATOM     18  O   UNL     1       5.708   0.585   2.003  0.00  0.00    -0.391 OA
ATOM     19  H   UNL     1       6.338   0.287   1.333  0.00  0.00    +0.210 HD
ENDBRANCH  14  18
BRANCH  10  20
ATOM     20  C   UNL     1       0.140   3.040  -0.309  0.00  0.00    +0.065 C 
BRANCH  20  21
ATOM     21  C   UNL     1      -0.676   3.679  -1.435  0.00  0.00    +0.158 C 
BRANCH  21  22
ATOM     22  O   UNL     1      -2.049   3.306  -1.300  0.00  0.00    -0.395 OA
ATOM     23  H   UNL     1      -2.626   3.676  -1.982  0.00  0.00    +0.209 HD
ENDBRANCH  21  22
ENDBRANCH  20  21
ENDBRANCH  10  20
BRANCH  10  24
ATOM     24  C   UNL     1       2.205   3.005  -1.713  0.00  0.00    +0.190 C 
BRANCH  24  25
ATOM     25  O   UNL     1       2.214   1.576  -1.716  0.00  0.00    -0.392 OA
ATOM     26  H   UNL     1       2.591   1.187  -2.518  0.00  0.00    +0.210 HD
ENDBRANCH  24  25
ENDBRANCH  10  24
BRANCH  15  27
ATOM     27  C   UNL     1       5.739   2.934   4.894  0.00  0.00    +0.165 C 
BRANCH  27  28
ATOM     28  O   UNL     1       6.763   2.189   5.556  0.00  0.00    -0.394 OA
ATOM     29  H   UNL     1       7.213   2.677   6.260  0.00  0.00    +0.209 HD
ENDBRANCH  27  28
ENDBRANCH  15  27
TORSDOF 8
