REMARK  Name = ZINC47811818
REMARK  15 active torsions:
REMARK  status: ('A' for Active; 'I' for Inactive)
REMARK    1  A    between atoms: C_1  and  C_2
REMARK    2  A    between atoms: C_2  and  C_3
REMARK    3  A    between atoms: C_3  and  C_4
REMARK    4  A    between atoms: C_3  and  C_5
REMARK    5  A    between atoms: C_3  and  N_6
REMARK    6  A    between atoms: C_7  and  C_9
REMARK    7  A    between atoms: C_12  and  N_15
REMARK    8  A    between atoms: N_18  and  C_19
REMARK    9  A    between atoms: C_19  and  C_20
REMARK   10  A    between atoms: C_20  and  C_22
REMARK   11  A    between atoms: C_20  and  N_23
REMARK   12  A    between atoms: N_23  and  C_24
REMARK   13  A    between atoms: N_23  and  C_26
REMARK   14  A    between atoms: C_24  and  C_25
REMARK   15  A    between atoms: C_26  and  C_27
REMARK                            x       y       z     vdW  Elec       q    Type
REMARK                         _______ _______ _______ _____ _____    ______ ____
ROOT
ATOM      1  C   UNL     1      -0.191  -4.692  -1.180  0.00  0.00    +0.037 A 
ATOM      2  C   UNL     1       0.999  -5.086  -1.798  0.00  0.00    +0.015 A 
ATOM      3  C   UNL     1       1.260  -6.424  -1.994  0.00  0.00    +0.024 A 
ATOM      4  C   UNL     1       0.341  -7.382  -1.580  0.00  0.00    +0.035 A 
ATOM      5  C   UNL     1      -0.846  -6.992  -0.966  0.00  0.00    +0.024 A 
ATOM      6  C   UNL     1      -1.110  -5.657  -0.760  0.00  0.00    +0.015 A 
ENDROOT
BRANCH   4   7
ATOM      7  N   UNL     1       0.608  -8.736  -1.781  0.00  0.00    -0.269 N 
ATOM      8  C   UNL     1       1.262  -9.136  -2.889  0.00  0.00    +0.304 C 
ATOM      9  O   UNL     1       1.699  -8.311  -3.668  0.00  0.00    -0.253 OA
ATOM     10  N   UNL     1       1.430 -10.450  -3.135  0.00  0.00    -0.301 N 
ATOM     11  H   UNL     1       0.323  -9.389  -1.123  0.00  0.00    +0.156 HD
ATOM     12  H   UNL     1       1.081 -11.108  -2.513  0.00  0.00    +0.150 HD
BRANCH  10  13
ATOM     13  C   UNL     1       2.140 -10.886  -4.340  0.00  0.00    +0.090 C 
BRANCH  13  14
ATOM     14  C   UNL     1       2.088 -12.412  -4.439  0.00  0.00    -0.054 C 
ATOM     15  C   UNL     1       2.910 -12.872  -5.645  0.00  0.00    -0.012 C 
BRANCH  14  16
ATOM     16  N   UNL     1       2.644 -13.002  -3.214  0.00  0.00    +0.382 N 
ATOM     17  H   UNL     1       2.114 -12.682  -2.417  0.00  0.00    -0.081 HD
BRANCH  16  18
ATOM     18  C   UNL     1       2.567 -14.466  -3.298  0.00  0.00    -0.082 C 
ATOM     19  C   UNL     1       1.100 -14.900  -3.309  0.00  0.00    -0.017 C 
ENDBRANCH  16  18
BRANCH  16  20
ATOM     20  C   UNL     1       4.047 -12.592  -3.066  0.00  0.00    -0.082 C 
ATOM     21  C   UNL     1       4.579 -13.074  -1.714  0.00  0.00    -0.017 C 
ENDBRANCH  16  20
ENDBRANCH  14  16
ENDBRANCH  13  14
ENDBRANCH  10  13
ENDBRANCH   4   7
BRANCH   1  23
ATOM     22  N   UNL     1       0.414  -2.329  -1.373  0.00  0.00    -0.306 N 
ATOM     23  C   UNL     1      -0.473  -3.259  -0.967  0.00  0.00    +0.244 C 
ATOM     24  O   UNL     1      -1.507  -2.917  -0.425  0.00  0.00    -0.270 OA
ATOM     25  H   UNL     1       1.239  -2.602  -1.805  0.00  0.00    +0.150 HD
BRANCH  22  26
ATOM     26  C   UNL     1       0.133  -0.907  -1.161  0.00  0.00    +0.029 C 
ATOM     27  C   UNL     1      -0.027  -0.636   0.336  0.00  0.00    +0.031 C 
ATOM     28  C   UNL     1      -1.158  -0.528  -1.889  0.00  0.00    +0.031 C 
BRANCH  26  30
ATOM     29  C   UNL     1       0.999   1.414  -1.488  0.00  0.00    +0.006 C 
ATOM     30  C   UNL     1       1.292  -0.072  -1.709  0.00  0.00    +0.022 C 
ENDBRANCH  26  30
ENDBRANCH  22  26
ENDBRANCH   1  23
TORSDOF 9
