REMARK  Name = ZINC39226341
REMARK  7 active torsions:
REMARK  status: ('A' for Active; 'I' for Inactive)
REMARK    1  A    between atoms: C_1  and  N_2
REMARK    2  A    between atoms: C_9  and  O_35
REMARK    3  A    between atoms: C_13  and  C_18
REMARK    4  A    between atoms: C_22  and  C_24
REMARK    5  A    between atoms: N_26  and  C_27
REMARK    6  A    between atoms: C_31  and  O_33
REMARK    7  A    between atoms: O_33  and  C_34
REMARK                            x       y       z     vdW  Elec       q    Type
REMARK                         _______ _______ _______ _____ _____    ______ ____
ROOT
ATOM      1  C   UNL     1      -0.004   1.477  -0.002  0.00  0.00    -0.096 C 
ATOM      2  N   UNL     1       0.010   0.008  -0.002  0.00  0.00    +0.378 N 
ATOM      3  C   UNL     1       0.684  -0.473  -1.213  0.00  0.00    -0.075 C 
ATOM      4  C   UNL     1       0.627  -2.002  -1.258  0.00  0.00    +0.029 C 
ATOM      5  C   UNL     1       1.324  -2.571  -0.021  0.00  0.00    +0.110 C 
ATOM      6  C   UNL     1       0.666  -2.001   1.237  0.00  0.00    +0.029 C 
ATOM      7  C   UNL     1       0.721  -0.472   1.189  0.00  0.00    -0.075 C 
ATOM      8  C   UNL     1       1.196  -4.098  -0.020  0.00  0.00    +0.084 C 
ATOM      9  C   UNL     1       1.808  -4.633   1.277  0.00  0.00    +0.152 C 
ATOM     10  C   UNL     1       3.162  -4.006   1.496  0.00  0.00    +0.023 A 
ATOM     11  C   UNL     1       4.040  -4.615   2.374  0.00  0.00    +0.018 A 
ATOM     12  C   UNL     1       5.297  -4.062   2.603  0.00  0.00    -0.017 A 
ATOM     13  C   UNL     1       5.668  -2.891   1.944  0.00  0.00    +0.012 A 
ATOM     14  C   UNL     1       4.790  -2.290   1.069  0.00  0.00    +0.046 A 
ATOM     15  C   UNL     1       3.534  -2.846   0.838  0.00  0.00    +0.127 A 
ATOM     16  O   UNL     1       2.707  -2.227  -0.044  0.00  0.00    -0.485 OA
ATOM     17  H   UNL     1      -0.939  -0.336   0.012  0.00  0.00    -0.082 HD
ENDROOT
BRANCH  12  18
ATOM     18  C   UNL     1       6.238  -4.717   3.544  0.00  0.00    -0.017 A 
ATOM     19  C   UNL     1       5.868  -5.892   4.197  0.00  0.00    +0.008 A 
ATOM     20  C   UNL     1       6.742  -6.504   5.074  0.00  0.00    +0.001 A 
ATOM     21  C   UNL     1       7.988  -5.958   5.310  0.00  0.00    +0.013 A 
ATOM     22  C   UNL     1       8.370  -4.781   4.662  0.00  0.00    +0.038 A 
ATOM     23  C   UNL     1       7.494  -4.163   3.772  0.00  0.00    +0.021 A 
BRANCH  22  24
ATOM     24  C   UNL     1       9.704  -4.196   4.916  0.00  0.00    +0.248 C 
ATOM     25  O   UNL     1      10.036  -3.172   4.351  0.00  0.00    -0.270 OA
ATOM     26  N   UNL     1      10.552  -4.798   5.773  0.00  0.00    -0.281 N 
ATOM     27  H   UNL     1      10.264  -5.576   6.275  0.00  0.00    +0.155 HD
BRANCH  26  28
ATOM     28  C   UNL     1      11.848  -4.299   5.940  0.00  0.00    +0.037 A 
ATOM     29  C   UNL     1      12.906  -5.172   6.163  0.00  0.00    +0.023 A 
ATOM     30  C   UNL     1      14.185  -4.680   6.328  0.00  0.00    +0.005 A 
ATOM     31  C   UNL     1      14.418  -3.318   6.272  0.00  0.00    +0.046 A 
ATOM     32  C   UNL     1      13.365  -2.442   6.049  0.00  0.00    +0.122 A 
ATOM     33  C   UNL     1      12.080  -2.933   5.877  0.00  0.00    +0.069 A 
BRANCH  32  34
ATOM     34  O   UNL     1      13.595  -1.104   5.995  0.00  0.00    -0.495 OA
ATOM     35  C   UNL     1      14.944  -0.669   6.176  0.00  0.00    +0.277 C 
ENDBRANCH  32  34
ENDBRANCH  26  28
ENDBRANCH  22  24
ENDBRANCH  12  18
BRANCH   9  36
ATOM     36  O   UNL     1       1.950  -6.051   1.187  0.00  0.00    -0.387 OA
ATOM     37  H   UNL     1       2.333  -6.460   1.975  0.00  0.00    +0.210 HD
ENDBRANCH   9  36
TORSDOF 5
