REMARK  Name = ZINC15084617
REMARK  5 active torsions:
REMARK  status: ('A' for Active; 'I' for Inactive)
REMARK    1  A    between atoms: C_8  and  C_23
REMARK    2  A    between atoms: C_9  and  N_22
REMARK    3  A    between atoms: C_19  and  C_20
REMARK    4  A    between atoms: N_27  and  C_28
REMARK    5  A    between atoms: C_28  and  C_29
REMARK                            x       y       z     vdW  Elec       q    Type
REMARK                         _______ _______ _______ _____ _____    ______ ____
ROOT
ATOM      1  C   UNL     1      -2.012   5.418  -3.363  0.00  0.00    +0.000 A 
ATOM      2  C   UNL     1      -2.920   6.324  -2.846  0.00  0.00    +0.002 A 
ATOM      3  C   UNL     1      -3.060   6.468  -1.481  0.00  0.00    +0.024 A 
ATOM      4  C   UNL     1      -2.287   5.701  -0.613  0.00  0.00    +0.042 A 
ATOM      5  C   UNL     1      -1.376   4.793  -1.144  0.00  0.00    -0.001 A 
ATOM      6  C   UNL     1      -1.240   4.652  -2.507  0.00  0.00    +0.007 A 
ATOM      7  C   UNL     1      -0.712   4.137   0.034  0.00  0.00    +0.148 C 
ATOM      8  C   UNL     1       0.752   4.492   0.021  0.00  0.00    +0.090 C 
ATOM      9  C   UNL     1       1.659   3.483   0.005  0.00  0.00    +0.108 C 
ATOM     10  N   UNL     1       1.306   2.133  -0.000  0.00  0.00    -0.249 N 
ATOM     11  C   UNL     1       2.251   1.088  -0.016  0.00  0.00    +0.054 A 
ATOM     12  C   UNL     1       3.648   1.243  -0.028  0.00  0.00    +0.025 A 
ATOM     13  C   UNL     1       4.476   0.145  -0.041  0.00  0.00    +0.002 A 
ATOM     14  C   UNL     1       3.963  -1.141  -0.043  0.00  0.00    +0.001 A 
ATOM     15  C   UNL     1       2.590  -1.320  -0.032  0.00  0.00    +0.017 A 
ATOM     16  C   UNL     1       1.764  -0.220  -0.019  0.00  0.00    +0.036 A 
ATOM     17  S   UNL     1       0.002  -0.004  -0.002  0.00  0.00    -0.071 S 
ATOM     18  C   UNL     1      -0.022   1.775   0.010  0.00  0.00    +0.093 C 
ATOM     19  C   UNL     1      -1.062   2.670   0.031  0.00  0.00    +0.082 C 
ATOM     20  C   UNL     1      -1.348   4.772   1.242  0.00  0.00    +0.241 C 
ATOM     21  O   UNL     1      -1.100   4.528   2.403  0.00  0.00    -0.273 OA
ATOM     22  N   UNL     1      -2.246   5.665   0.783  0.00  0.00    -0.265 N 
ENDROOT
BRANCH   9  23
ATOM     23  N   UNL     1       2.994   3.807  -0.007  0.00  0.00    -0.345 N 
ATOM     24  H   UNL     1       3.572   3.457  -0.704  0.00  0.00    +0.144 HD
ATOM     25  H   UNL     1       3.359   4.386   0.680  0.00  0.00    +0.144 HD
ENDBRANCH   9  23
BRANCH  19  26
ATOM     26  C   UNL     1      -2.424   2.228   0.048  0.00  0.00    +0.099 C 
ATOM     27  N   UNL     1      -3.505   1.878   0.061  0.00  0.00    -0.191 NA
ENDBRANCH  19  26
BRANCH   8  28
ATOM     28  C   UNL     1       1.175   5.860   0.026  0.00  0.00    +0.100 C 
ATOM     29  N   UNL     1       1.512   6.945   0.030  0.00  0.00    -0.191 NA
ENDBRANCH   8  28
BRANCH  22  30
ATOM     30  C   UNL     1      -3.083   6.500   1.647  0.00  0.00    +0.148 C 
BRANCH  30  31
ATOM     31  C   UNL     1      -2.368   7.794   1.940  0.00  0.00    -0.030 A 
ATOM     32  C   UNL     1      -1.542   7.892   3.045  0.00  0.00    +0.006 A 
ATOM     33  C   UNL     1      -0.882   9.077   3.311  0.00  0.00    +0.020 A 
ATOM     34  C   UNL     1      -1.056  10.168   2.478  0.00  0.00    +0.041 A 
ATOM     35  C   UNL     1      -1.887  10.071   1.377  0.00  0.00    +0.020 A 
ATOM     36  C   UNL     1      -2.543   8.884   1.108  0.00  0.00    +0.006 A 
ATOM     37 CL   UNL     1      -0.233  11.659   2.817  0.00  0.00    -0.084 Cl
ENDBRANCH  30  31
ENDBRANCH  22  30
TORSDOF 5
