REMARK  Name = ZINC40173191
REMARK  8 active torsions:
REMARK  status: ('A' for Active; 'I' for Inactive)
REMARK    1  A    between atoms: C_1  and  C_2
REMARK    2  A    between atoms: C_2  and  C_3
REMARK    3  A    between atoms: C_3  and  C_5
REMARK    4  A    between atoms: C_3  and  N_18
REMARK    5  A    between atoms: C_13  and  C_17
REMARK    6  A    between atoms: C_22  and  S_23
REMARK    7  A    between atoms: S_23  and  C_24
REMARK    8  A    between atoms: C_24  and  C_25
REMARK                            x       y       z     vdW  Elec       q    Type
REMARK                         _______ _______ _______ _____ _____    ______ ____
ROOT
ATOM      1  C   UNL     1       0.687  -0.620   1.228  0.00  0.00    +0.178 C 
ENDROOT
BRANCH   1   2
ATOM      2  C   UNL     1      -0.148  -0.348   2.453  0.00  0.00    +0.242 C 
ATOM      3  O   UNL     1      -0.516  -1.268   3.153  0.00  0.00    -0.273 OA
ATOM      4  N   UNL     1      -0.486   0.917   2.771  0.00  0.00    -0.263 N 
ATOM      5  C   UNL     1      -1.335   1.161   3.838  0.00  0.00    +0.165 A 
ATOM      6  N   UNL     1      -1.900   0.301   4.653  0.00  0.00    -0.225 NA
ATOM      7  C   UNL     1      -2.713   0.683   5.662  0.00  0.00    +0.080 A 
ATOM      8  C   UNL     1      -3.380  -0.135   6.603  0.00  0.00    +0.029 A 
ATOM      9  C   UNL     1      -4.176   0.418   7.571  0.00  0.00    +0.005 A 
ATOM     10  C   UNL     1      -4.357   1.791   7.665  0.00  0.00    -0.049 A 
ATOM     11  C   UNL     1      -3.719   2.621   6.761  0.00  0.00    +0.020 A 
ATOM     12  C   UNL     1      -2.920   2.075   5.787  0.00  0.00    +0.041 A 
ATOM     13  S   UNL     1      -1.932   2.726   4.461  0.00  0.00    -0.052 S 
ATOM     14  C   UNL     1      -5.239   2.371   8.740  0.00  0.00    +0.044 C 
ATOM     15  H   UNL     1      -0.135   1.658   2.251  0.00  0.00    +0.157 HD
ENDBRANCH   1   2
BRANCH   1  16
ATOM     16  N   UNL     1       0.842  -2.067   1.055  0.00  0.00    -0.279 N 
ATOM     17  C   UNL     1      -0.170  -2.966   0.871  0.00  0.00    +0.216 A 
ATOM     18  N   UNL     1       0.364  -4.158   0.755  0.00  0.00    -0.113 NA
ATOM     19  N   UNL     1       1.754  -4.023   0.867  0.00  0.00    -0.121 NA
ATOM     20  C   UNL     1       2.024  -2.752   1.042  0.00  0.00    +0.194 A 
ATOM     21  N   UNL     1      -1.526  -2.670   0.817  0.00  0.00    -0.328 N 
ATOM     22  H   UNL     1      -1.826  -1.753   0.915  0.00  0.00    +0.145 HD
ATOM     23  H   UNL     1      -2.172  -3.381   0.683  0.00  0.00    +0.145 HD
BRANCH  20  24
ATOM     24  S   UNL     1       3.630  -2.051   1.232  0.00  0.00    -0.081 S 
BRANCH  24  25
ATOM     25  C   UNL     1       4.747  -3.477   1.122  0.00  0.00    +0.114 C 
BRANCH  25  26
ATOM     26  C   UNL     1       6.172  -3.011   1.271  0.00  0.00    -0.019 A 
ATOM     27  C   UNL     1       6.899  -2.641   0.154  0.00  0.00    +0.006 A 
ATOM     28  C   UNL     1       8.206  -2.214   0.291  0.00  0.00    +0.000 A 
ATOM     29  C   UNL     1       8.788  -2.156   1.544  0.00  0.00    +0.001 A 
ATOM     30  C   UNL     1       8.062  -2.525   2.661  0.00  0.00    +0.020 A 
ATOM     31  C   UNL     1       6.752  -2.948   2.525  0.00  0.00    +0.045 A 
ATOM     32 CL   UNL     1       5.837  -3.405   3.928  0.00  0.00    -0.083 Cl
ENDBRANCH  25  26
ENDBRANCH  24  25
ENDBRANCH  20  24
ENDBRANCH   1  16
BRANCH   1  34
ATOM     33  C   UNL     1       0.906  -0.183  -1.222  0.00  0.00    +0.006 C 
ATOM     34  C   UNL     1      -0.005  -0.030  -0.002  0.00  0.00    +0.031 C 
ENDBRANCH   1  34
TORSDOF 6
