REMARK  Name = ZINC20528120
REMARK  7 active torsions:
REMARK  status: ('A' for Active; 'I' for Inactive)
REMARK    1  A    between atoms: C_5  and  C_7
REMARK    2  A    between atoms: N_8  and  N_9
REMARK    3  A    between atoms: C_13  and  S_16
REMARK    4  A    between atoms: N_14  and  N_15
REMARK    5  A    between atoms: S_16  and  C_17
REMARK    6  A    between atoms: C_17  and  C_18
REMARK    7  A    between atoms: N_20  and  C_21
REMARK                            x       y       z     vdW  Elec       q    Type
REMARK                         _______ _______ _______ _____ _____    ______ ____
ROOT
ATOM      1  N   UNL     1      -3.752   5.855   0.094  0.00  0.00    -0.204 N 
ATOM      2  C   UNL     1      -3.766   7.242   0.098  0.00  0.00    +0.254 A 
ATOM      3  N   UNL     1      -2.713   8.023   0.103  0.00  0.00    -0.109 NA
ATOM      4  N   UNL     1      -3.159   9.351   0.103  0.00  0.00    -0.119 NA
ATOM      5  C   UNL     1      -4.471   9.338   0.106  0.00  0.00    +0.210 A 
ATOM      6  N   UNL     1      -4.880   8.034   0.103  0.00  0.00    -0.211 N 
ATOM      7  H   UNL     1      -4.699   5.295   0.095  0.00  0.00    +0.177 HD
ENDROOT
BRANCH   6   8
ATOM      8  N   UNL     1      -6.175   7.599   0.103  0.00  0.00    -0.294 N 
ATOM      9  H   UNL     1      -7.000   8.327   0.107  0.00  0.00    +0.163 HD
ATOM     10  H   UNL     1      -6.392   6.521   0.099  0.00  0.00    +0.163 HD
ENDBRANCH   6   8
BRANCH   1  12
ATOM     11  C   UNL     1      -2.518   3.868   0.086  0.00  0.00    +0.141 C 
ATOM     12  N   UNL     1      -2.531   5.167   0.090  0.00  0.00    -0.187 NA
BRANCH  11  17
ATOM     13  C   UNL     1      -0.011   1.076   0.072  0.00  0.00    +0.001 A 
ATOM     14  C   UNL     1       1.180   1.782   0.071  0.00  0.00    +0.003 A 
ATOM     15  C   UNL     1       1.172   3.165   0.075  0.00  0.00    +0.039 A 
ATOM     16  C   UNL     1      -0.028   3.852   0.080  0.00  0.00    +0.132 A 
ATOM     17  C   UNL     1      -1.234   3.144   0.081  0.00  0.00    +0.030 A 
ATOM     18  C   UNL     1      -1.216   1.747   0.071  0.00  0.00    +0.012 A 
ATOM     19  F   UNL     1      -0.035   5.203   0.084  0.00  0.00    -0.205 F 
ENDBRANCH  11  17
ENDBRANCH   1  12
BRANCH   5  20
ATOM     20  S   UNL     1      -5.521  10.752   0.113  0.00  0.00    -0.075 S 
BRANCH  20  21
ATOM     21  C   UNL     1      -4.370  12.154   0.115  0.00  0.00    +0.173 C 
BRANCH  21  22
ATOM     22  C   UNL     1      -5.149  13.444   0.120  0.00  0.00    +0.227 C 
ATOM     23  O   UNL     1      -6.361  13.421   0.123  0.00  0.00    -0.275 OA
ATOM     24  N   UNL     1      -4.497  14.624   0.123  0.00  0.00    -0.285 N 
ATOM     25  H   UNL     1      -3.400  14.647   0.198  0.00  0.00    +0.155 HD
BRANCH  24  26
ATOM     26  C   UNL     1      -5.217  15.821   0.030  0.00  0.00    +0.033 A 
ATOM     27  C   UNL     1      -4.685  16.902  -0.660  0.00  0.00    +0.024 A 
ATOM     28  C   UNL     1      -5.401  18.079  -0.755  0.00  0.00    +0.016 A 
ATOM     29  C   UNL     1      -6.641  18.186  -0.153  0.00  0.00    +0.013 A 
ATOM     30  C   UNL     1      -7.172  17.113   0.540  0.00  0.00    +0.016 A 
ATOM     31  C   UNL     1      -6.463  15.931   0.633  0.00  0.00    +0.024 A 
ATOM     32  I   UNL     1      -7.719  19.977  -0.292  0.00  0.00    -0.044 I 
ENDBRANCH  24  26
ENDBRANCH  21  22
ENDBRANCH  20  21
ENDBRANCH   5  20
TORSDOF 7
