REMARK  Name = ZINC03231025
REMARK  6 active torsions:
REMARK  status: ('A' for Active; 'I' for Inactive)
REMARK    1  A    between atoms: C_1  and  C_2
REMARK    2  A    between atoms: C_5  and  S_8
REMARK    3  A    between atoms: S_8  and  C_9
REMARK    4  A    between atoms: C_10  and  C_26
REMARK    5  A    between atoms: C_13  and  C_14
REMARK    6  A    between atoms: C_15  and  C_17
REMARK                            x       y       z     vdW  Elec       q    Type
REMARK                         _______ _______ _______ _____ _____    ______ ____
ROOT
ATOM      1  C   UNL     1       6.974   1.068   0.229  0.00  0.00    +0.056 A 
ATOM      2  C   UNL     1       6.273  -0.150   0.167  0.00  0.00    +0.074 A 
ATOM      3  N   UNL     1       4.997   0.113   0.070  0.00  0.00    -0.168 NA
ATOM      4  N   UNL     1       4.830   1.504   0.066  0.00  0.00    -0.199 N 
ATOM      5  C   UNL     1       6.068   2.074   0.161  0.00  0.00    +0.059 A 
ATOM      6  C   UNL     1       6.370   3.550   0.187  0.00  0.00    +0.067 C 
ATOM      7  C   UNL     1       3.658   2.163  -0.021  0.00  0.00    +0.279 C 
ATOM      8  O   UNL     1       3.647   3.375  -0.110  0.00  0.00    -0.265 OA
ATOM      9  C   UNL     1       6.889  -1.524   0.205  0.00  0.00    +0.069 C 
ENDROOT
BRANCH   7  10
ATOM     10  C   UNL     1       2.388   1.413  -0.008  0.00  0.00    +0.045 A 
ATOM     11  C   UNL     1       1.170   2.098   0.037  0.00  0.00    +0.017 A 
ATOM     12  C   UNL     1      -0.014   1.396   0.049  0.00  0.00    +0.050 A 
ATOM     13  C   UNL     1      -0.005   0.007   0.017  0.00  0.00    +0.166 A 
ATOM     14  C   UNL     1       1.208  -0.682  -0.027  0.00  0.00    +0.167 A 
ATOM     15  C   UNL     1       2.399   0.016  -0.039  0.00  0.00    +0.063 A 
ATOM     16  O   UNL     1       0.946  -2.022  -0.046  0.00  0.00    -0.453 OA
ATOM     17  C   UNL     1      -0.418  -2.154   0.391  0.00  0.00    +0.466 C 
ATOM     18  O   UNL     1      -1.022  -0.901   0.020  0.00  0.00    -0.453 OA
ENDBRANCH   7  10
BRANCH   1  19
ATOM     19  S   UNL     1       8.722   1.253   0.366  0.00  0.00    -0.086 S 
BRANCH  19  24
ATOM     20  C   UNL     1      10.621   1.447  -5.361  0.00  0.00    +0.044 C 
ATOM     21  C   UNL     1      10.147   1.399  -3.931  0.00  0.00    -0.050 A 
ATOM     22  C   UNL     1      11.060   1.497  -2.897  0.00  0.00    +0.004 A 
ATOM     23  C   UNL     1      10.630   1.453  -1.586  0.00  0.00    +0.015 A 
ATOM     24  C   UNL     1       9.276   1.310  -1.306  0.00  0.00    +0.013 A 
ATOM     25  C   UNL     1       8.361   1.206  -2.347  0.00  0.00    +0.015 A 
ATOM     26  C   UNL     1       8.799   1.256  -3.656  0.00  0.00    +0.004 A 
ENDBRANCH  19  24
ENDBRANCH   1  19
TORSDOF 3
