REMARK  Name = ZINC01139515
REMARK  7 active torsions:
REMARK  status: ('A' for Active; 'I' for Inactive)
REMARK    1  A    between atoms: C_5  and  C_7
REMARK    2  A    between atoms: C_7  and  O_8
REMARK    3  A    between atoms: O_8  and  C_9
REMARK    4  A    between atoms: C_12  and  C_15
REMARK    5  A    between atoms: C_20  and  O_29
REMARK    6  A    between atoms: C_24  and  N_28
REMARK    7  A    between atoms: C_25  and  C_26
REMARK                            x       y       z     vdW  Elec       q    Type
REMARK                         _______ _______ _______ _____ _____    ______ ____
ROOT
ATOM      1  C   UNL     1      -3.700   1.604   0.028  0.00  0.00    +0.098 C 
ATOM      2  C   UNL     1      -3.550   3.042   0.448  0.00  0.00    +0.008 A 
ATOM      3  C   UNL     1      -4.666   3.751   0.859  0.00  0.00    +0.012 A 
ATOM      4  C   UNL     1      -4.547   5.071   1.247  0.00  0.00    +0.046 A 
ATOM      5  C   UNL     1      -3.306   5.691   1.226  0.00  0.00    +0.120 A 
ATOM      6  C   UNL     1      -2.188   4.985   0.814  0.00  0.00    +0.092 A 
ATOM      7  C   UNL     1      -2.309   3.657   0.423  0.00  0.00    +0.138 A 
ATOM      8  O   UNL     1      -1.204   2.979   0.029  0.00  0.00    -0.441 OA
ATOM      9  C   UNL     1      -1.209   1.636   0.017  0.00  0.00    +0.199 C 
ATOM     10  C   UNL     1      -2.360   0.923   0.018  0.00  0.00    +0.098 C 
ENDROOT
BRANCH   1  14
ATOM     11  C   UNL     1      -5.401   1.441  -3.889  0.00  0.00    +0.121 A 
ATOM     12  C   UNL     1      -6.065   0.860  -2.818  0.00  0.00    +0.046 A 
ATOM     13  C   UNL     1      -5.513   0.913  -1.553  0.00  0.00    +0.008 A 
ATOM     14  C   UNL     1      -4.300   1.546  -1.353  0.00  0.00    -0.034 A 
ATOM     15  C   UNL     1      -3.639   2.131  -2.417  0.00  0.00    +0.008 A 
ATOM     16  C   UNL     1      -4.184   2.074  -3.686  0.00  0.00    +0.046 A 
BRANCH  11  17
ATOM     17  O   UNL     1      -5.942   1.389  -5.134  0.00  0.00    -0.487 OA
BRANCH  17  18
ATOM     18  C   UNL     1      -5.203   2.009  -6.189  0.00  0.00    +0.266 C 
BRANCH  18  23
ATOM     19  C   UNL     1      -7.851   1.042  -8.700  0.00  0.00    +0.000 A 
ATOM     20  C   UNL     1      -7.328   1.565  -9.868  0.00  0.00    +0.001 A 
ATOM     21  C   UNL     1      -6.118   2.231  -9.847  0.00  0.00    +0.020 A 
ATOM     22  C   UNL     1      -5.429   2.376  -8.655  0.00  0.00    +0.047 A 
ATOM     23  C   UNL     1      -5.953   1.853  -7.487  0.00  0.00    +0.008 A 
ATOM     24  C   UNL     1      -7.161   1.182  -7.511  0.00  0.00    +0.008 A 
ATOM     25 CL   UNL     1      -3.908   3.212  -8.627  0.00  0.00    -0.083 Cl
ENDBRANCH  18  23
ENDBRANCH  17  18
ENDBRANCH  11  17
ENDBRANCH   1  14
BRANCH   9  26
ATOM     26  N   UNL     1      -0.011   0.966   0.007  0.00  0.00    -0.328 N 
ATOM     27  H   UNL     1       0.002  -0.004   0.002  0.00  0.00    +0.145 HD
ATOM     28  H   UNL     1       0.822   1.462   0.002  0.00  0.00    +0.145 HD
ENDBRANCH   9  26
BRANCH  10  29
ATOM     29  C   UNL     1      -2.300  -0.507   0.011  0.00  0.00    +0.101 C 
ATOM     30  N   UNL     1      -2.252  -1.642   0.004  0.00  0.00    -0.191 NA
ENDBRANCH  10  29
BRANCH   5  31
ATOM     31  O   UNL     1      -3.187   6.990   1.608  0.00  0.00    -0.507 OA
ATOM     32  H   UNL     1      -3.009   7.107   2.551  0.00  0.00    +0.292 HD
ENDBRANCH   5  31
TORSDOF 7
