REMARK  Name = ZINC35718643
REMARK  5 active torsions:
REMARK  status: ('A' for Active; 'I' for Inactive)
REMARK    1  A    between atoms: C_1  and  N_2
REMARK    2  A    between atoms: N_2  and  C_3
REMARK    3  A    between atoms: N_2  and  C_9
REMARK    4  A    between atoms: C_3  and  C_4
REMARK    5  A    between atoms: C_14  and  N_15
REMARK                            x       y       z     vdW  Elec       q    Type
REMARK                         _______ _______ _______ _____ _____    ______ ____
ROOT
ATOM      1  C   UNL     1       0.000  -0.699  -1.216  0.00  0.00    +0.053 A 
ATOM      2  C   UNL     1       1.200  -1.031  -1.827  0.00  0.00    +0.052 A 
ATOM      3  C   UNL     1       1.194  -1.717  -3.031  0.00  0.00    +0.078 A 
ATOM      4  C   UNL     1      -0.013  -2.074  -3.628  0.00  0.00    +0.144 A 
ATOM      5  C   UNL     1      -1.211  -1.743  -3.019  0.00  0.00    +0.072 A 
ATOM      6  C   UNL     1      -1.208  -1.060  -1.810  0.00  0.00    +0.049 A 
ATOM      7  O   UNL     1      -0.002  -2.746  -4.811  0.00  0.00    -0.481 OA
ATOM      8  C   UNL     1       1.068  -2.445  -5.711  0.00  0.00    +0.325 C 
ATOM      9  C   UNL     1       2.375  -2.439  -4.960  0.00  0.00    +0.255 C 
ATOM     10  O   UNL     1       3.400  -2.771  -5.518  0.00  0.00    -0.272 OA
ATOM     11  N   UNL     1       2.400  -2.063  -3.663  0.00  0.00    -0.280 N 
ATOM     12  H   UNL     1       3.238  -2.032  -3.176  0.00  0.00    +0.155 HD
ENDROOT
BRANCH   6  13
ATOM     13  N   UNL     1      -2.421  -0.729  -1.190  0.00  0.00    -0.356 N 
ATOM     14  H   UNL     1      -2.419  -0.249  -0.347  0.00  0.00    +0.142 HD
ATOM     15  H   UNL     1      -3.262  -0.981  -1.603  0.00  0.00    +0.142 HD
ENDBRANCH   6  13
BRANCH   1  17
ATOM     16  C   UNL     1      -0.018   1.461   0.010  0.00  0.00    +0.129 C 
ATOM     17  N   UNL     1       0.002  -0.004   0.002  0.00  0.00    -0.327 N 
BRANCH  17  18
ATOM     18  C   UNL     1       0.024  -0.743   1.267  0.00  0.00    +0.140 C 
BRANCH  18  19
ATOM     19  C   UNL     1      -1.389  -1.016   1.714  0.00  0.00    -0.023 A 
ATOM     20  C   UNL     1      -2.057  -0.113   2.519  0.00  0.00    +0.013 A 
ATOM     21  C   UNL     1      -3.327  -0.388   2.903  0.00  0.00    +0.045 A 
ATOM     22  S   UNL     1      -3.616  -1.966   2.119  0.00  0.00    -0.105 S 
ATOM     23  C   UNL     1      -2.026  -2.149   1.328  0.00  0.00    +0.050 A 
ENDBRANCH  18  19
ENDBRANCH  17  18
ENDBRANCH   1  17
TORSDOF 4
