REMARK  Name = ZINC50398212
REMARK  3 active torsions:
REMARK  status: ('A' for Active; 'I' for Inactive)
REMARK    1  A    between atoms: C_3  and  N_9
REMARK    2  A    between atoms: C_14  and  O_22
REMARK    3  A    between atoms: C_17  and  C_19
REMARK                            x       y       z     vdW  Elec       q    Type
REMARK                         _______ _______ _______ _____ _____    ______ ____
ROOT
ATOM      1  N   UNL     1       3.500   1.917  -1.292  0.00  0.00    -0.288 N 
ATOM      2  C   UNL     1       4.188   2.169  -2.424  0.00  0.00    +0.304 C 
ATOM      3  O   UNL     1       3.609   2.200  -3.493  0.00  0.00    -0.253 OA
ATOM      4  N   UNL     1       5.517   2.387  -2.370  0.00  0.00    -0.269 N 
ATOM      5  C   UNL     1       6.341   2.372  -1.148  0.00  0.00    +0.141 C 
ATOM      6  C   UNL     1       7.572   3.248  -1.490  0.00  0.00    +0.134 C 
ATOM      7  C   UNL     1       7.815   2.877  -2.977  0.00  0.00    +0.067 C 
ATOM      8  C   UNL     1       6.385   2.672  -3.522  0.00  0.00    +0.193 C 
ATOM      9  H   UNL     1       3.962   1.893  -0.440  0.00  0.00    +0.151 HD
ENDROOT
BRANCH   1  12
ATOM     10  C   UNL     1      -0.019   1.525   0.010  0.00  0.00    +0.021 C 
ATOM     11  C   UNL     1       1.427   2.036  -0.001  0.00  0.00    +0.033 C 
ATOM     12  C   UNL     1       2.055   1.681  -1.351  0.00  0.00    +0.160 C 
ATOM     13  C   UNL     1       1.801   0.235  -1.668  0.00  0.00    +0.233 C 
ATOM     14  O   UNL     1       2.485  -0.295  -2.518  0.00  0.00    -0.274 OA
ATOM     15  N   UNL     1       0.863  -0.497  -1.066  0.00  0.00    -0.314 N 
ATOM     16  C   UNL     1       0.002  -0.004   0.002  0.00  0.00    +0.104 C 
ATOM     17  H   UNL     1       0.746  -1.415  -1.357  0.00  0.00    +0.149 HD
ENDBRANCH   1  12
BRANCH   8  18
ATOM     18  C   UNL     1       6.362   1.510  -4.481  0.00  0.00    +0.376 C 
ATOM     19  O   UNL     1       5.662   0.539  -4.246  0.00  0.00    -0.244 OA
ATOM     20  O   UNL     1       7.042   1.540  -5.492  0.00  0.00    -0.244 OA
ENDBRANCH   8  18
BRANCH   6  21
ATOM     21  O   UNL     1       7.268   4.637  -1.351  0.00  0.00    -0.390 OA
ATOM     22  H   UNL     1       7.014   4.896  -0.454  0.00  0.00    +0.210 HD
ENDBRANCH   6  21
TORSDOF 3
