REMARK  Name = ZINC39766883
REMARK  9 active torsions:
REMARK  status: ('A' for Active; 'I' for Inactive)
REMARK    1  A    between atoms: C_1  and  O_2
REMARK    2  A    between atoms: O_2  and  C_3
REMARK    3  A    between atoms: C_6  and  N_9
REMARK    4  A    between atoms: C_10  and  C_12
REMARK    5  A    between atoms: C_12  and  C_13
REMARK    6  A    between atoms: C_17  and  S_26
REMARK    7  A    between atoms: N_19  and  C_20
REMARK    8  A    between atoms: S_26  and  C_27
REMARK    9  A    between atoms: C_27  and  C_28
REMARK                            x       y       z     vdW  Elec       q    Type
REMARK                         _______ _______ _______ _____ _____    ______ ____
ROOT
ATOM      1  C   UNL     1       3.370  -5.972  -5.231  0.00  0.00    +0.166 C 
ATOM      2  N   UNL     1       3.973  -6.313  -3.916  0.00  0.00    -0.234 NA
ATOM      3  N   UNL     1       4.431  -7.698  -4.111  0.00  0.00    -0.226 NA
ATOM      4  C   UNL     1       4.929  -7.727  -5.506  0.00  0.00    +0.217 C 
ATOM      5  N   UNL     1       4.249  -6.629  -6.219  0.00  0.00    -0.287 N 
ATOM      6  H   UNL     1       3.287  -6.260  -3.178  0.00  0.00    +0.143 HD
ATOM      7  H   UNL     1       3.673  -8.351  -3.984  0.00  0.00    +0.143 HD
ENDROOT
BRANCH   5   8
ATOM      8  C   UNL     1       4.407  -6.278  -7.562  0.00  0.00    +0.033 A 
ATOM      9  C   UNL     1       5.631  -5.808  -8.019  0.00  0.00    +0.023 A 
ATOM     10  C   UNL     1       5.784  -5.462  -9.348  0.00  0.00    +0.002 A 
ATOM     11  C   UNL     1       4.719  -5.582 -10.222  0.00  0.00    +0.000 A 
ATOM     12  C   UNL     1       3.498  -6.049  -9.769  0.00  0.00    +0.002 A 
ATOM     13  C   UNL     1       3.341  -6.402  -8.444  0.00  0.00    +0.023 A 
ENDBRANCH   5   8
BRANCH   1  14
ATOM     14  C   UNL     1       3.366  -4.457  -5.441  0.00  0.00    +0.135 C 
BRANCH  14  16
ATOM     15  N   UNL     1       2.188  -2.487  -4.519  0.00  0.00    -0.285 N 
ATOM     16  C   UNL     1       2.365  -3.823  -4.510  0.00  0.00    +0.220 C 
ATOM     17  O   UNL     1       1.718  -4.515  -3.752  0.00  0.00    -0.275 OA
ATOM     18  H   UNL     1       2.655  -1.940  -5.170  0.00  0.00    +0.155 HD
BRANCH  15  22
ATOM     19  C   UNL     1      -0.364  -0.703  -1.745  0.00  0.00    +0.120 A 
ATOM     20  C   UNL     1      -0.668  -1.954  -2.262  0.00  0.00    +0.047 A 
ATOM     21  C   UNL     1       0.177  -2.545  -3.181  0.00  0.00    +0.027 A 
ATOM     22  C   UNL     1       1.330  -1.887  -3.587  0.00  0.00    +0.034 A 
ATOM     23  C   UNL     1       1.633  -0.635  -3.069  0.00  0.00    +0.027 A 
ATOM     24  C   UNL     1       0.785  -0.043  -2.155  0.00  0.00    +0.047 A 
BRANCH  19  26
ATOM     25  C   UNL     1      -2.362  -0.858  -0.464  0.00  0.00    +0.277 C 
ATOM     26  O   UNL     1      -1.196  -0.122  -0.841  0.00  0.00    -0.495 OA
ENDBRANCH  19  26
ENDBRANCH  15  22
ENDBRANCH  14  16
ENDBRANCH   1  14
BRANCH   4  27
ATOM     27  S   UNL     1       4.518  -9.316  -6.279  0.00  0.00    -0.114 S 
BRANCH  27  28
ATOM     28  C   UNL     1       2.709  -9.405  -6.165  0.00  0.00    +0.146 C 
BRANCH  28  29
ATOM     29  C   UNL     1       2.230 -10.694  -6.780  0.00  0.00    +0.120 A 
ATOM     30  N   UNL     1       0.894 -10.943  -6.796  0.00  0.00    -0.310 N 
ATOM     31  H   UNL     1       0.280 -10.295  -6.416  0.00  0.00    +0.170 HD
ATOM     32  C   UNL     1       0.413 -12.087  -7.336  0.00  0.00    +0.259 A 
ATOM     33  O   UNL     1      -0.781 -12.322  -7.358  0.00  0.00    -0.267 OA
ATOM     34  C   UNL     1       1.389 -13.033  -7.897  0.00  0.00    +0.065 A 
ATOM     35  C   UNL     1       0.997 -14.239  -8.476  0.00  0.00    +0.015 A 
ATOM     36  C   UNL     1       1.954 -15.089  -8.986  0.00  0.00    +0.001 A 
ATOM     37  C   UNL     1       3.300 -14.754  -8.927  0.00  0.00    +0.002 A 
ATOM     38  C   UNL     1       3.708 -13.568  -8.359  0.00  0.00    +0.028 A 
ATOM     39  C   UNL     1       2.757 -12.689  -7.835  0.00  0.00    +0.078 A 
ATOM     40  N   UNL     1       3.114 -11.508  -7.272  0.00  0.00    -0.233 NA
ENDBRANCH  28  29
ENDBRANCH  27  28
ENDBRANCH   4  27
TORSDOF 8
