REMARK  Name = ZINC02558479
REMARK  9 active torsions:
REMARK  status: ('A' for Active; 'I' for Inactive)
REMARK    1  A    between atoms: C_1  and  C_2
REMARK    2  A    between atoms: C_2  and  C_3
REMARK    3  A    between atoms: C_10  and  N_25
REMARK    4  A    between atoms: C_11  and  C_12
REMARK    5  A    between atoms: N_14  and  C_15
REMARK    6  A    between atoms: C_18  and  O_23
REMARK    7  A    between atoms: C_20  and  O_21
REMARK    8  A    between atoms: O_21  and  C_22
REMARK    9  A    between atoms: O_23  and  C_24
REMARK                            x       y       z     vdW  Elec       q    Type
REMARK                         _______ _______ _______ _____ _____    ______ ____
ROOT
ATOM      1  C   UNL     1       0.022   1.551   0.009  0.00  0.00    -0.006 C 
ATOM      2  C   UNL     1       0.035   0.020  -0.004  0.00  0.00    +0.008 C 
ATOM      3  C   UNL     1       0.534  -0.508   1.343  0.00  0.00    +0.037 C 
ATOM      4  C   UNL     1       1.861   0.164   1.672  0.00  0.00    -0.023 A 
ATOM      5  C   UNL     1       2.236   1.303   1.052  0.00  0.00    -0.004 A 
ATOM      6  S   UNL     1       3.817   1.698   1.746  0.00  0.00    -0.078 S 
ATOM      7  C   UNL     1       3.980   0.369   2.845  0.00  0.00    +0.076 A 
ATOM      8  C   UNL     1       2.807  -0.349   2.650  0.00  0.00    +0.068 A 
ATOM      9  C   UNL     1       1.472   2.058   0.008  0.00  0.00    +0.046 C 
ENDROOT
BRANCH   8  10
ATOM     10  C   UNL     1       2.533  -1.576   3.400  0.00  0.00    +0.251 C 
ATOM     11  O   UNL     1       2.891  -2.653   2.959  0.00  0.00    -0.270 OA
ATOM     12  N   UNL     1       1.884  -1.514   4.580  0.00  0.00    -0.278 N 
ATOM     13  H   UNL     1       1.656  -0.653   4.963  0.00  0.00    +0.155 HD
BRANCH  12  14
ATOM     14  C   UNL     1       1.539  -2.695   5.254  0.00  0.00    +0.076 A 
ATOM     15  C   UNL     1       2.375  -3.800   5.191  0.00  0.00    +0.030 A 
ATOM     16  C   UNL     1       2.035  -4.963   5.855  0.00  0.00    +0.047 A 
ATOM     17  C   UNL     1       0.858  -5.029   6.585  0.00  0.00    +0.124 A 
ATOM     18  C   UNL     1       0.018  -3.927   6.651  0.00  0.00    +0.093 A 
ATOM     19  C   UNL     1       0.359  -2.758   5.991  0.00  0.00    +0.145 A 
BRANCH  19  20
ATOM     20  O   UNL     1      -0.460  -1.674   6.058  0.00  0.00    -0.493 OA
ATOM     21  C   UNL     1      -1.654  -1.810   6.832  0.00  0.00    +0.277 C 
ENDBRANCH  19  20
BRANCH  17  22
ATOM     22  O   UNL     1       0.526  -6.175   7.238  0.00  0.00    -0.495 OA
ATOM     23  C   UNL     1       1.437  -7.271   7.128  0.00  0.00    +0.277 C 
ENDBRANCH  17  22
ENDBRANCH  12  14
ENDBRANCH   8  10
BRANCH   7  24
ATOM     24  N   UNL     1       5.023   0.091   3.708  0.00  0.00    -0.352 N 
ATOM     25  H   UNL     1       5.791   0.682   3.746  0.00  0.00    +0.143 HD
ATOM     26  H   UNL     1       4.987  -0.695   4.275  0.00  0.00    +0.143 HD
ENDBRANCH   7  24
BRANCH   1  28
ATOM     27  C   UNL     1      -0.824   3.592  -1.157  0.00  0.00    +0.004 C 
ATOM     28  C   UNL     1      -0.703   2.068  -1.234  0.00  0.00    +0.000 C 
ENDBRANCH   1  28
TORSDOF 6
