REMARK  Name = ZINC36084874
REMARK  7 active torsions:
REMARK  status: ('A' for Active; 'I' for Inactive)
REMARK    1  A    between atoms: C_4  and  C_7
REMARK    2  A    between atoms: C_10  and  C_13
REMARK    3  A    between atoms: C_25  and  C_27
REMARK    4  A    between atoms: C_27  and  N_28
REMARK    5  A    between atoms: N_28  and  C_29
REMARK    6  A    between atoms: C_29  and  C_30
REMARK    7  A    between atoms: C_35  and  C_37
REMARK                            x       y       z     vdW  Elec       q    Type
REMARK                         _______ _______ _______ _____ _____    ______ ____
ROOT
ATOM      1  C   UNL     1       7.415  -2.759  -0.067  0.00  0.00    +0.093 A 
ATOM      2  C   UNL     1       7.447  -4.136  -0.315  0.00  0.00    +0.033 A 
ATOM      3  C   UNL     1       8.680  -4.762  -0.339  0.00  0.00    +0.047 A 
ATOM      4  C   UNL     1       9.816  -3.982  -0.114  0.00  0.00    +0.144 A 
ATOM      5  N   UNL     1       9.691  -2.682   0.114  0.00  0.00    -0.134 NA
ATOM      6  N   UNL     1       8.548  -2.098   0.131  0.00  0.00    -0.147 NA
ATOM      7  N   UNL     1      11.076  -4.567  -0.128  0.00  0.00    -0.311 N 
ATOM      8  C   UNL     1      12.288  -3.736  -0.118  0.00  0.00    +0.125 C 
ATOM      9  C   UNL     1      13.164  -4.162   1.067  0.00  0.00    +0.126 C 
ATOM     10  N   UNL     1      13.309  -5.624   1.041  0.00  0.00    -0.297 N 
ATOM     11  C   UNL     1      12.098  -6.456   1.030  0.00  0.00    +0.126 C 
ATOM     12  C   UNL     1      11.221  -6.030  -0.148  0.00  0.00    +0.125 C 
ATOM     13  C   UNL     1      14.532  -6.192   1.027  0.00  0.00    +0.233 C 
ATOM     14  O   UNL     1      15.524  -5.495   1.036  0.00  0.00    -0.274 OA
ENDROOT
BRANCH   1  18
ATOM     15  C   UNL     1       3.696  -0.696   0.037  0.00  0.00    -0.018 A 
ATOM     16  C   UNL     1       4.886   0.001   0.246  0.00  0.00    +0.009 A 
ATOM     17  C   UNL     1       6.090  -0.667   0.212  0.00  0.00    +0.010 A 
ATOM     18  C   UNL     1       6.119  -2.040  -0.030  0.00  0.00    +0.002 A 
ATOM     19  C   UNL     1       4.929  -2.737  -0.239  0.00  0.00    +0.010 A 
ATOM     20  C   UNL     1       3.724  -2.070  -0.200  0.00  0.00    +0.009 A 
BRANCH  15  24
ATOM     21  C   UNL     1      -0.021   1.366   0.141  0.00  0.00    +0.000 A 
ATOM     22  C   UNL     1       1.158   2.061   0.343  0.00  0.00    +0.001 A 
ATOM     23  C   UNL     1       2.367   1.397   0.310  0.00  0.00    +0.008 A 
ATOM     24  C   UNL     1       2.399   0.023   0.074  0.00  0.00    -0.018 A 
ATOM     25  C   UNL     1       1.208  -0.671  -0.129  0.00  0.00    +0.008 A 
ATOM     26  C   UNL     1       0.004   0.003  -0.095  0.00  0.00    +0.001 A 
ENDBRANCH  15  24
ENDBRANCH   1  18
BRANCH  13  27
ATOM     27  C   UNL     1      14.665  -7.693   1.001  0.00  0.00    +0.204 C 
BRANCH  27  28
ATOM     28  N   UNL     1      16.084  -8.057   0.990  0.00  0.00    -0.285 N 
ATOM     29  C   UNL     1      16.733  -8.204  -0.182  0.00  0.00    +0.219 C 
ATOM     30  O   UNL     1      17.907  -8.506  -0.191  0.00  0.00    -0.275 OA
BRANCH  29  31
ATOM     31  C   UNL     1      15.999  -7.995  -1.481  0.00  0.00    +0.075 C 
ATOM     32  C   UNL     1      15.754  -9.223  -2.361  0.00  0.00    +0.013 C 
ATOM     33  C   UNL     1      16.791  -8.177  -2.778  0.00  0.00    +0.013 C 
ENDBRANCH  29  31
BRANCH  28  34
ATOM     34  C   UNL     1      16.797  -8.261   2.253  0.00  0.00    +0.182 C 
BRANCH  34  35
ATOM     35  C   UNL     1      16.689  -9.707   2.664  0.00  0.00    +0.122 A 
ATOM     36  C   UNL     1      17.549 -10.686   2.330  0.00  0.00    +0.046 A 
ATOM     37  C   UNL     1      17.067 -11.875   2.925  0.00  0.00    +0.041 A 
ATOM     38  C   UNL     1      15.941 -11.551   3.587  0.00  0.00    +0.195 A 
ATOM     39  O   UNL     1      15.720 -10.235   3.430  0.00  0.00    -0.466 OA
ENDBRANCH  34  35
ENDBRANCH  28  34
ENDBRANCH  27  28
ENDBRANCH  13  27
TORSDOF 7
