REMARK  Name = ZINC13575859
REMARK  5 active torsions:
REMARK  status: ('A' for Active; 'I' for Inactive)
REMARK    1  A    between atoms: C_1  and  C_2
REMARK    2  A    between atoms: N_4  and  C_17
REMARK    3  A    between atoms: C_8  and  N_9
REMARK    4  A    between atoms: N_9  and  C_10
REMARK    5  A    between atoms: C_13  and  O_16
REMARK                            x       y       z     vdW  Elec       q    Type
REMARK                         _______ _______ _______ _____ _____    ______ ____
ROOT
ATOM      1  C   UNL     1      -0.018   1.503   0.010  0.00  0.00    +0.068 C 
ATOM      2  C   UNL     1       0.002  -0.004   0.002  0.00  0.00    +0.070 C 
ATOM      3  N   UNL     1       0.008  -0.765  -1.049  0.00  0.00    -0.176 NA
ATOM      4  N   UNL     1       0.029  -2.115  -0.698  0.00  0.00    -0.156 N 
ATOM      5  C   UNL     1       0.036  -2.244   0.644  0.00  0.00    +0.273 C 
ATOM      6  O   UNL     1       0.054  -3.285   1.280  0.00  0.00    -0.268 OA
ATOM      7  C   UNL     1       0.025  -0.879   1.183  0.00  0.00    +0.075 C 
ATOM      8  C   UNL     1       0.032  -0.498   2.515  0.00  0.00    +0.087 C 
ENDROOT
BRANCH   4   9
ATOM      9  C   UNL     1       0.039  -3.180  -1.607  0.00  0.00    +0.060 A 
ATOM     10  C   UNL     1       0.054  -4.490  -1.145  0.00  0.00    +0.027 A 
ATOM     11  C   UNL     1       0.064  -5.538  -2.043  0.00  0.00    +0.022 A 
ATOM     12  C   UNL     1       0.059  -5.286  -3.404  0.00  0.00    +0.041 A 
ATOM     13  C   UNL     1       0.046  -3.982  -3.868  0.00  0.00    +0.022 A 
ATOM     14  C   UNL     1       0.030  -2.930  -2.973  0.00  0.00    +0.027 A 
ATOM     15 CL   UNL     1       0.072  -6.606  -4.530  0.00  0.00    -0.084 Cl
ENDBRANCH   4   9
BRANCH   8  16
ATOM     16  N   UNL     1       0.054  -1.436   3.485  0.00  0.00    -0.320 N 
ATOM     17  H   UNL     1       0.065  -2.377   3.249  0.00  0.00    +0.152 HD
BRANCH  16  18
ATOM     18  C   UNL     1       0.061  -1.052   4.830  0.00  0.00    +0.031 A 
ATOM     19  C   UNL     1       0.039   0.295   5.168  0.00  0.00    +0.027 A 
ATOM     20  C   UNL     1       0.045   0.674   6.495  0.00  0.00    +0.047 A 
ATOM     21  C   UNL     1       0.073  -0.291   7.492  0.00  0.00    +0.117 A 
ATOM     22  C   UNL     1       0.096  -1.636   7.156  0.00  0.00    +0.047 A 
ATOM     23  C   UNL     1       0.084  -2.017   5.829  0.00  0.00    +0.027 A 
BRANCH  21  24
ATOM     24  O   UNL     1       0.080   0.083   8.799  0.00  0.00    -0.507 OA
ATOM     25  H   UNL     1      -0.802   0.175   9.186  0.00  0.00    +0.292 HD
ENDBRANCH  21  24
ENDBRANCH  16  18
ENDBRANCH   8  16
TORSDOF 4
