REMARK  Name = ZINC05482174
REMARK  4 active torsions:
REMARK  status: ('A' for Active; 'I' for Inactive)
REMARK    1  A    between atoms: C_1  and  C_2
REMARK    2  A    between atoms: C_2  and  C_23
REMARK    3  A    between atoms: C_15  and  C_16
REMARK    4  A    between atoms: C_15  and  C_19
REMARK                            x       y       z     vdW  Elec       q    Type
REMARK                         _______ _______ _______ _____ _____    ______ ____
ROOT
ATOM      1  C   UNL     1      -2.724   5.059   1.270  0.00  0.00    +0.037 C 
ATOM      2  C   UNL     1      -2.361   4.671  -0.165  0.00  0.00    +0.058 C 
ATOM      3  C   UNL     1      -1.180   3.747  -0.154  0.00  0.00    +0.022 C 
ATOM      4  C   UNL     1      -1.258   2.379  -0.200  0.00  0.00    +0.011 C 
ATOM      5  C   UNL     1      -2.620   1.764  -0.290  0.00  0.00    +0.005 A 
ATOM      6  C   UNL     1      -2.812   0.405  -0.109  0.00  0.00    +0.010 A 
ATOM      7  C   UNL     1      -4.092  -0.116  -0.181  0.00  0.00    +0.001 A 
ATOM      8  C   UNL     1      -5.168   0.718  -0.430  0.00  0.00    +0.002 A 
ATOM      9  C   UNL     1      -4.981   2.075  -0.620  0.00  0.00    +0.023 A 
ATOM     10  C   UNL     1      -3.704   2.611  -0.561  0.00  0.00    +0.036 A 
ATOM     11  N   UNL     1      -3.492   3.971  -0.805  0.00  0.00    -0.334 N 
ATOM     12  C   UNL     1      -0.006   1.649  -0.143  0.00  0.00    +0.042 C 
ATOM     13  S   UNL     1       0.057  -0.061  -0.164  0.00  0.00    -0.050 S 
ATOM     14  C   UNL     1       1.217   2.489  -0.072  0.00  0.00    +0.044 C 
ATOM     15  C   UNL     1       2.544   2.091  -0.019  0.00  0.00    +0.113 C 
ATOM     16  S   UNL     1       0.540   4.139  -0.071  0.00  0.00    -0.089 S 
ATOM     17  C   UNL     1      -2.025   5.926  -0.972  0.00  0.00    +0.037 C 
ATOM     18  H   UNL     1      -4.094   4.455  -1.391  0.00  0.00    +0.147 HD
ENDROOT
BRANCH  15  19
ATOM     19  C   UNL     1       3.616   3.099  -0.059  0.00  0.00    +0.248 C 
ATOM     20  O   UNL     1       3.338   4.283  -0.041  0.00  0.00    -0.270 OA
ATOM     21  N   UNL     1       4.905   2.709  -0.117  0.00  0.00    -0.325 N 
ATOM     22  H   UNL     1       5.130   1.768  -0.058  0.00  0.00    +0.145 HD
ATOM     23  H   UNL     1       5.607   3.371  -0.217  0.00  0.00    +0.145 HD
ENDBRANCH  15  19
BRANCH  15  24
ATOM     24  C   UNL     1       2.881   0.662   0.078  0.00  0.00    +0.248 C 
ATOM     25  O   UNL     1       3.146   0.172   1.159  0.00  0.00    -0.270 OA
ATOM     26  N   UNL     1       2.895  -0.103  -1.031  0.00  0.00    -0.325 N 
ATOM     27  H   UNL     1       2.755   0.301  -1.901  0.00  0.00    +0.145 HD
ATOM     28  H   UNL     1       3.045  -1.059  -0.959  0.00  0.00    +0.145 HD
ENDBRANCH  15  24
TORSDOF 2
