REMARK  Name = ZINC35694932
REMARK  11 active torsions:
REMARK  status: ('A' for Active; 'I' for Inactive)
REMARK    1  A    between atoms: C_1  and  C_2
REMARK    2  A    between atoms: C_5  and  N_8
REMARK    3  A    between atoms: C_10  and  C_30
REMARK    4  A    between atoms: C_14  and  C_16
REMARK    5  A    between atoms: C_16  and  N_17
REMARK    6  A    between atoms: N_17  and  C_18
REMARK    7  A    between atoms: C_18  and  C_19
REMARK    8  A    between atoms: C_19  and  N_20
REMARK    9  A    between atoms: N_20  and  C_21
REMARK   10  A    between atoms: N_20  and  C_22
REMARK   11  A    between atoms: C_23  and  C_25
REMARK                            x       y       z     vdW  Elec       q    Type
REMARK                         _______ _______ _______ _____ _____    ______ ____
ROOT
ATOM      1  N   UNL     1       0.598  -2.695   0.655  0.00  0.00    -0.287 N 
ATOM      2  C   UNL     1      -0.394  -3.221  -0.137  0.00  0.00    +0.122 A 
ATOM      3  C   UNL     1      -0.278  -4.571  -0.065  0.00  0.00    +0.091 A 
ATOM      4  N   UNL     1       0.758  -4.859   0.751  0.00  0.00    -0.214 NA
ATOM      5  C   UNL     1       1.292  -3.744   1.182  0.00  0.00    +0.207 A 
ATOM      6  N   UNL     1       2.382  -3.645   2.037  0.00  0.00    -0.254 N 
ATOM      7  C   UNL     1       2.985  -4.761   2.491  0.00  0.00    +0.237 C 
ATOM      8  O   UNL     1       2.576  -5.852   2.154  0.00  0.00    -0.274 OA
ATOM      9  H   UNL     1       2.710  -2.773   2.306  0.00  0.00    +0.158 HD
ENDROOT
BRANCH   1  14
ATOM     10  C   UNL     1       1.627   2.815   1.546  0.00  0.00    +0.044 C 
ATOM     11  C   UNL     1       1.354   1.352   1.309  0.00  0.00    -0.050 A 
ATOM     12  C   UNL     1       1.205   0.878   0.019  0.00  0.00    +0.005 A 
ATOM     13  C   UNL     1       0.955  -0.463  -0.201  0.00  0.00    +0.026 A 
ATOM     14  C   UNL     1       0.853  -1.334   0.875  0.00  0.00    +0.049 A 
ATOM     15  C   UNL     1       1.004  -0.855   2.169  0.00  0.00    +0.026 A 
ATOM     16  C   UNL     1       1.259   0.486   2.382  0.00  0.00    +0.005 A 
ENDBRANCH   1  14
BRANCH   3  17
ATOM     17  C   UNL     1      -1.140  -5.558  -0.761  0.00  0.00    +0.002 A 
ATOM     18  C   UNL     1      -2.178  -5.123  -1.583  0.00  0.00    +0.011 A 
ATOM     19  C   UNL     1      -2.977  -6.045  -2.228  0.00  0.00    +0.020 A 
ATOM     20  C   UNL     1      -2.749  -7.400  -2.060  0.00  0.00    +0.041 A 
ATOM     21  C   UNL     1      -1.719  -7.837  -1.244  0.00  0.00    +0.020 A 
ATOM     22  C   UNL     1      -0.911  -6.923  -0.599  0.00  0.00    +0.011 A 
ATOM     23 CL   UNL     1      -3.758  -8.554  -2.873  0.00  0.00    -0.084 Cl
ENDBRANCH   3  17
BRANCH   7  24
ATOM     24  C   UNL     1       4.168  -4.654   3.419  0.00  0.00    +0.204 C 
BRANCH  24  25
ATOM     25  N   UNL     1       4.639  -5.997   3.767  0.00  0.00    -0.290 N 
ATOM     26  C   UNL     1       4.076  -6.664   4.794  0.00  0.00    +0.254 C 
ATOM     27  O   UNL     1       4.532  -7.735   5.148  0.00  0.00    -0.269 OA
BRANCH  26  28
ATOM     28  C   UNL     1       2.914  -6.098   5.486  0.00  0.00    +0.074 A 
ATOM     29  C   UNL     1       2.266  -6.556   6.623  0.00  0.00    +0.021 A 
ATOM     30  C   UNL     1       1.193  -5.805   7.042  0.00  0.00    +0.008 A 
ATOM     31  C   UNL     1       0.848  -4.699   6.337  0.00  0.00    +0.046 A 
ATOM     32  S   UNL     1       1.972  -4.637   5.090  0.00  0.00    -0.092 S 
ENDBRANCH  26  28
BRANCH  25  33
ATOM     33  C   UNL     1       5.721  -6.616   2.997  0.00  0.00    +0.090 C 
BRANCH  33  34
ATOM     34  C   UNL     1       7.067  -6.255   3.630  0.00  0.00    -0.060 C 
BRANCH  34  35
ATOM     35  N   UNL     1       8.152  -6.876   2.858  0.00  0.00    +0.377 N 
ATOM     36  C   UNL     1       8.188  -6.295   1.510  0.00  0.00    -0.097 C 
ATOM     37  C   UNL     1       9.434  -6.630   3.532  0.00  0.00    -0.097 C 
ATOM     38  H   UNL     1       7.992  -7.870   2.792  0.00  0.00    -0.083 HD
ENDBRANCH  34  35
ENDBRANCH  33  34
ENDBRANCH  25  33
ENDBRANCH  24  25
ENDBRANCH   7  24
TORSDOF 8
