REMARK  Name = ZINC40266412
REMARK  5 active torsions:
REMARK  status: ('A' for Active; 'I' for Inactive)
REMARK    1  A    between atoms: C_1  and  O_2
REMARK    2  A    between atoms: O_2  and  C_3
REMARK    3  A    between atoms: C_5  and  C_10
REMARK    4  A    between atoms: C_8  and  O_9
REMARK    5  A    between atoms: N_20  and  C_21
REMARK                            x       y       z     vdW  Elec       q    Type
REMARK                         _______ _______ _______ _____ _____    ______ ____
ROOT
ATOM      1  C   UNL     1       2.462   0.334   4.204  0.00  0.00    +0.080 C 
ATOM      2  C   UNL     1       1.817  -0.021   5.547  0.00  0.00    +0.110 C 
ATOM      3  C   UNL     1       2.315  -1.339   6.066  0.00  0.00    +0.219 C 
ATOM      4  O   UNL     1       1.546  -2.067   6.656  0.00  0.00    -0.275 OA
ATOM      5  N   UNL     1       3.594  -1.739   5.895  0.00  0.00    -0.270 N 
ATOM      6  C   UNL     1       4.426  -0.952   5.098  0.00  0.00    +0.133 A 
ATOM      7  C   UNL     1       3.936   0.030   4.288  0.00  0.00    +0.089 A 
ATOM      8  N   UNL     1       4.961   0.598   3.657  0.00  0.00    -0.238 NA
ATOM      9  C   UNL     1       6.074   0.021   4.032  0.00  0.00    +0.205 A 
ATOM     10  N   UNL     1       5.777  -0.959   4.940  0.00  0.00    -0.287 N 
ATOM     11  H   UNL     1       3.924  -2.550   6.314  0.00  0.00    +0.156 HD
ENDROOT
BRANCH  10  12
ATOM     12  C   UNL     1       6.689  -1.808   5.584  0.00  0.00    +0.055 A 
ATOM     13  C   UNL     1       6.638  -1.965   6.962  0.00  0.00    +0.064 A 
ATOM     14  C   UNL     1       7.539  -2.803   7.596  0.00  0.00    +0.128 A 
ATOM     15  C   UNL     1       8.491  -3.483   6.856  0.00  0.00    +0.076 A 
ATOM     16  C   UNL     1       8.543  -3.327   5.481  0.00  0.00    +0.128 A 
ATOM     17  C   UNL     1       7.640  -2.495   4.843  0.00  0.00    +0.064 A 
ATOM     18  F   UNL     1       9.474  -3.992   4.761  0.00  0.00    -0.205 F 
ATOM     19  F   UNL     1       7.489  -2.957   8.937  0.00  0.00    -0.205 F 
ENDBRANCH  10  12
BRANCH   1  22
ATOM     20  C   UNL     1       0.626  -0.619   1.042  0.00  0.00    +0.162 A 
ATOM     21  C   UNL     1       1.202   0.137   2.051  0.00  0.00    +0.053 A 
ATOM     22  C   UNL     1       1.836  -0.490   3.108  0.00  0.00    -0.034 A 
ATOM     23  C   UNL     1       1.897  -1.870   3.161  0.00  0.00    +0.008 A 
ATOM     24  C   UNL     1       1.325  -2.630   2.158  0.00  0.00    +0.049 A 
ATOM     25  C   UNL     1       0.683  -2.008   1.099  0.00  0.00    +0.158 A 
BRANCH  20  27
ATOM     26  C   UNL     1      -0.017   1.425   0.010  0.00  0.00    +0.277 C 
ATOM     27  O   UNL     1       0.002  -0.004   0.002  0.00  0.00    -0.491 OA
ENDBRANCH  20  27
BRANCH  25  28
ATOM     28  O   UNL     1       0.115  -2.754   0.114  0.00  0.00    -0.503 OA
ATOM     29  H   UNL     1       0.711  -2.957  -0.620  0.00  0.00    +0.292 HD
ENDBRANCH  25  28
ENDBRANCH   1  22
TORSDOF 4
