REMARK  Name = ZINC08986227
REMARK  12 active torsions:
REMARK  status: ('A' for Active; 'I' for Inactive)
REMARK    1  A    between atoms: C_1  and  C_2
REMARK    2  A    between atoms: C_2  and  O_3
REMARK    3  A    between atoms: O_3  and  C_4
REMARK    4  A    between atoms: C_4  and  C_6
REMARK    5  A    between atoms: C_7  and  C_22
REMARK    6  A    between atoms: C_12  and  C_14
REMARK    7  A    between atoms: C_17  and  O_20
REMARK    8  A    between atoms: O_20  and  C_21
REMARK    9  A    between atoms: C_22  and  S_23
REMARK   10  A    between atoms: S_23  and  C_24
REMARK   11  A    between atoms: C_27  and  C_30
REMARK   12  A    between atoms: N_28  and  N_29
REMARK                            x       y       z     vdW  Elec       q    Type
REMARK                         _______ _______ _______ _____ _____    ______ ____
ROOT
ATOM      1  C   UNL     1       8.159   3.117  -1.216  0.00  0.00    +0.079 C 
ATOM      2  C   UNL     1       7.494   2.890  -0.063  0.00  0.00    +0.034 C 
ATOM      3  N   UNL     1       8.164   2.640   1.101  0.00  0.00    -0.272 N 
ATOM      4  C   UNL     1       9.499   2.607   1.196  0.00  0.00    +0.304 C 
ATOM      5  O   UNL     1      10.006   2.378   2.277  0.00  0.00    -0.252 OA
ATOM      6  N   UNL     1      10.299   2.821   0.133  0.00  0.00    -0.288 N 
ATOM      7  C   UNL     1       9.674   3.099  -1.171  0.00  0.00    +0.144 C 
ATOM      8  H   UNL     1       7.644   2.478   1.903  0.00  0.00    +0.156 HD
ATOM      9  H   UNL     1      11.265   2.793   0.224  0.00  0.00    +0.151 HD
ENDROOT
BRANCH   7  10
ATOM     10  C   UNL     1      10.173   4.437  -1.651  0.00  0.00    -0.022 A 
ATOM     11  C   UNL     1      10.317   5.481  -0.756  0.00  0.00    +0.009 A 
ATOM     12  C   UNL     1      10.781   6.707  -1.192  0.00  0.00    +0.046 A 
ATOM     13  C   UNL     1      11.090   6.894  -2.531  0.00  0.00    +0.120 A 
ATOM     14  C   UNL     1      10.940   5.846  -3.428  0.00  0.00    +0.046 A 
ATOM     15  C   UNL     1      10.482   4.620  -2.986  0.00  0.00    +0.009 A 
BRANCH  13  16
ATOM     16  O   UNL     1      11.540   8.101  -2.964  0.00  0.00    -0.495 OA
ATOM     17  C   UNL     1      11.671   9.134  -1.984  0.00  0.00    +0.277 C 
ENDBRANCH  13  16
ENDBRANCH   7  10
BRANCH   1  18
ATOM     18  C   UNL     1       7.466   3.370  -2.423  0.00  0.00    +0.339 C 
ATOM     19  O   UNL     1       6.260   3.530  -2.410  0.00  0.00    -0.245 OA
BRANCH  18  20
ATOM     20  O   UNL     1       8.143   3.434  -3.588  0.00  0.00    -0.462 OA
BRANCH  20  22
ATOM     21  C   UNL     1       8.311   3.728  -5.981  0.00  0.00    +0.048 C 
ATOM     22  C   UNL     1       7.379   3.692  -4.768  0.00  0.00    +0.229 C 
ENDBRANCH  20  22
ENDBRANCH  18  20
ENDBRANCH   1  18
BRANCH   2  23
ATOM     23  C   UNL     1       5.987   2.905  -0.062  0.00  0.00    +0.128 C 
BRANCH  23  24
ATOM     24  S   UNL     1       5.400   4.504   0.548  0.00  0.00    -0.079 S 
BRANCH  24  25
ATOM     25  C   UNL     1       3.659   4.251   0.446  0.00  0.00    +0.209 A 
ATOM     26  N   UNL     1       3.052   3.164   0.029  0.00  0.00    -0.121 NA
ATOM     27  N   UNL     1       1.778   3.327   0.087  0.00  0.00    -0.132 NA
ATOM     28  C   UNL     1       1.499   4.516   0.541  0.00  0.00    +0.154 A 
ATOM     29  N   UNL     1       2.687   5.149   0.782  0.00  0.00    -0.228 N 
BRANCH  28  30
ATOM     30  C   UNL     1       0.122   5.089   0.756  0.00  0.00    +0.059 C 
ATOM     31  C   UNL     1      -0.633   5.114  -0.574  0.00  0.00    +0.011 C 
ATOM     32  C   UNL     1      -2.031   5.696  -0.356  0.00  0.00    +0.001 C 
ATOM     33  C   UNL     1      -2.794   4.829   0.647  0.00  0.00    +0.000 C 
ATOM     34  C   UNL     1      -2.039   4.803   1.977  0.00  0.00    +0.001 C 
ATOM     35  C   UNL     1      -0.641   4.221   1.759  0.00  0.00    +0.011 C 
ENDBRANCH  28  30
BRANCH  29  36
ATOM     36  N   UNL     1       2.864   6.416   1.260  0.00  0.00    -0.295 N 
ATOM     37  H   UNL     1       2.910   6.418   2.268  0.00  0.00    +0.163 HD
ATOM     38  H   UNL     1       3.686   6.842   0.860  0.00  0.00    +0.163 HD
ENDBRANCH  29  36
ENDBRANCH  24  25
ENDBRANCH  23  24
ENDBRANCH   2  23
TORSDOF 10
