REMARK  Name = ZINC28631618
REMARK  11 active torsions:
REMARK  status: ('A' for Active; 'I' for Inactive)
REMARK    1  A    between atoms: C_1  and  C_2
REMARK    2  A    between atoms: C_2  and  C_3
REMARK    3  A    between atoms: C_2  and  C_4
REMARK    4  A    between atoms: C_2  and  C_5
REMARK    5  A    between atoms: C_8  and  C_11
REMARK    6  A    between atoms: N_13  and  C_14
REMARK    7  A    between atoms: C_14  and  C_15
REMARK    8  A    between atoms: N_17  and  N_18
REMARK    9  A    between atoms: N_18  and  C_19
REMARK   10  A    between atoms: C_19  and  N_21
REMARK   11  A    between atoms: N_21  and  C_22
REMARK                            x       y       z     vdW  Elec       q    Type
REMARK                         _______ _______ _______ _____ _____    ______ ____
ROOT
ATOM      1  C   UNL     1       6.083  -1.477  -6.166  0.00  0.00    +0.246 C 
ATOM      2  O   UNL     1       6.480  -0.783  -5.254  0.00  0.00    -0.273 OA
ATOM      3  N   UNL     1       6.908  -1.787  -7.186  0.00  0.00    -0.234 N 
ATOM      4  H   UNL     1       6.590  -2.343  -7.915  0.00  0.00    +0.173 HD
ENDROOT
BRANCH   3   5
ATOM      5  N   UNL     1       8.224  -1.308  -7.192  0.00  0.00    -0.246 N 
ATOM      6  H   UNL     1       8.542  -0.752  -6.463  0.00  0.00    +0.172 HD
BRANCH   5   7
ATOM      7  C   UNL     1       9.049  -1.618  -8.212  0.00  0.00    +0.147 C 
ATOM      8  S   UNL     1      10.657  -1.031  -8.220  0.00  0.00    -0.017 S 
BRANCH   7   9
ATOM      9  N   UNL     1       8.608  -2.389  -9.225  0.00  0.00    -0.323 N 
ATOM     10  H   UNL     1       7.697  -2.722  -9.220  0.00  0.00    +0.148 HD
BRANCH   9  11
ATOM     11  C   UNL     1       9.505  -2.727 -10.333  0.00  0.00    +0.072 C 
ATOM     12  C   UNL     1       9.477  -1.603 -11.372  0.00  0.00    +0.022 C 
ATOM     13  C   UNL     1      10.413  -1.955 -12.529  0.00  0.00    +0.002 C 
ATOM     14  C   UNL     1       9.953  -3.261 -13.179  0.00  0.00    +0.000 C 
ATOM     15  C   UNL     1       9.980  -4.385 -12.141  0.00  0.00    +0.002 C 
ATOM     16  C   UNL     1       9.044  -4.033 -10.983  0.00  0.00    +0.022 C 
ENDBRANCH   9  11
ENDBRANCH   7   9
ENDBRANCH   5   7
ENDBRANCH   3   5
BRANCH   1  17
ATOM     17  C   UNL     1       4.667  -1.994  -6.158  0.00  0.00    +0.202 C 
BRANCH  17  20
ATOM     18  C   UNL     1       2.696  -1.860  -4.732  0.00  0.00    +0.244 C 
ATOM     19  O   UNL     1       2.106  -2.559  -5.533  0.00  0.00    -0.270 OA
ATOM     20  N   UNL     1       3.981  -1.521  -4.953  0.00  0.00    -0.303 N 
ATOM     21  H   UNL     1       4.452  -0.963  -4.314  0.00  0.00    +0.150 HD
BRANCH  18  25
ATOM     22  C   UNL     1       0.707  -0.490  -1.238  0.00  0.00    -0.042 A 
ATOM     23  C   UNL     1       0.033  -1.285  -2.147  0.00  0.00    +0.005 A 
ATOM     24  C   UNL     1       0.672  -1.733  -3.284  0.00  0.00    +0.013 A 
ATOM     25  C   UNL     1       2.004  -1.383  -3.516  0.00  0.00    +0.037 A 
ATOM     26  C   UNL     1       2.679  -0.581  -2.595  0.00  0.00    +0.013 A 
ATOM     27  C   UNL     1       2.025  -0.135  -1.464  0.00  0.00    +0.005 A 
BRANCH  22  29
ATOM     28  C   UNL     1      -0.019   1.526   0.010  0.00  0.00    +0.015 C 
ATOM     29  C   UNL     1       0.002  -0.004   0.002  0.00  0.00    -0.013 C 
ATOM     30  C   UNL     1       0.742  -0.511   1.242  0.00  0.00    +0.015 C 
ATOM     31  C   UNL     1      -1.433  -0.534   0.013  0.00  0.00    +0.015 C 
ENDBRANCH  22  29
ENDBRANCH  18  25
ENDBRANCH  17  20
ENDBRANCH   1  17
TORSDOF 8
