REMARK  Name = ZINC25583886
REMARK  5 active torsions:
REMARK  status: ('A' for Active; 'I' for Inactive)
REMARK    1  A    between atoms: C_4  and  C_7
REMARK    2  A    between atoms: C_8  and  C_9
REMARK    3  A    between atoms: C_9  and  N_10
REMARK    4  A    between atoms: C_11  and  C_13
REMARK    5  A    between atoms: C_19  and  C_21
REMARK                            x       y       z     vdW  Elec       q    Type
REMARK                         _______ _______ _______ _____ _____    ______ ____
ROOT
ATOM      1  C   UNL     1      -1.371   2.002   0.082  0.00  0.00    +0.162 C 
ATOM      2  C   UNL     1      -1.567   2.956  -1.115  0.00  0.00    +0.033 C 
ATOM      3  C   UNL     1      -2.479   2.131  -2.067  0.00  0.00    +0.021 C 
ATOM      4  C   UNL     1      -3.379   1.375  -1.058  0.00  0.00    +0.108 C 
ATOM      5  N   UNL     1      -2.489   1.047   0.070  0.00  0.00    -0.289 N 
ATOM      6  C   UNL     1      -2.669   0.038   0.946  0.00  0.00    +0.222 C 
ATOM      7  O   UNL     1      -1.830  -0.187   1.793  0.00  0.00    -0.275 OA
ENDROOT
BRANCH   6   8
ATOM      8  C   UNL     1      -3.912  -0.811   0.872  0.00  0.00    +0.048 C 
ATOM      9  C   UNL     1      -5.145   0.094   0.820  0.00  0.00    +0.019 C 
ATOM     10  C   UNL     1      -6.407  -0.768   0.745  0.00  0.00    -0.009 C 
ATOM     11  C   UNL     1      -6.485  -1.666   1.981  0.00  0.00    +0.007 C 
ATOM     12  C   UNL     1      -5.253  -2.571   2.033  0.00  0.00    -0.009 C 
ATOM     13  C   UNL     1      -3.990  -1.709   2.108  0.00  0.00    +0.019 C 
ATOM     14  C   UNL     1      -5.204  -3.439   0.774  0.00  0.00    +0.007 C 
ATOM     15  C   UNL     1      -5.125  -2.541  -0.462  0.00  0.00    -0.009 C 
ATOM     16  C   UNL     1      -6.358  -1.636  -0.514  0.00  0.00    +0.007 C 
ATOM     17  C   UNL     1      -3.863  -1.679  -0.387  0.00  0.00    +0.019 C 
ENDBRANCH   6   8
BRANCH   1  19
ATOM     18  N   UNL     1       1.096   1.948  -0.086  0.00  0.00    -0.303 N 
ATOM     19  C   UNL     1      -0.065   1.264  -0.060  0.00  0.00    +0.234 C 
ATOM     20  O   UNL     1      -0.059   0.055  -0.155  0.00  0.00    -0.274 OA
ATOM     21  H   UNL     1       1.091   3.044   0.001  0.00  0.00    +0.150 HD
BRANCH  18  22
ATOM     22  C   UNL     1       2.366   1.231  -0.229  0.00  0.00    +0.194 C 
BRANCH  22  24
ATOM     23  C   UNL     1       4.364   2.966  -0.230  0.00  0.00    -0.065 C 
ATOM     24  C   UNL     1       3.477   2.196  -0.230  0.00  0.00    -0.078 C 
BRANCH  23  28
ATOM     25  C   UNL     1       7.535   5.720  -0.232  0.00  0.00    +0.000 A 
ATOM     26  C   UNL     1       7.798   4.368  -0.356  0.00  0.00    +0.001 A 
ATOM     27  C   UNL     1       6.761   3.458  -0.356  0.00  0.00    +0.017 A 
ATOM     28  C   UNL     1       5.445   3.905  -0.230  0.00  0.00    +0.025 A 
ATOM     29  C   UNL     1       5.186   5.271  -0.111  0.00  0.00    +0.017 A 
ATOM     30  C   UNL     1       6.233   6.170  -0.107  0.00  0.00    +0.001 A 
ENDBRANCH  23  28
ENDBRANCH  22  24
ENDBRANCH  18  22
ENDBRANCH   1  19
TORSDOF 5
