REMARK  Name = ZINC59913048
REMARK  9 active torsions:
REMARK  status: ('A' for Active; 'I' for Inactive)
REMARK    1  A    between atoms: C_1  and  C_2
REMARK    2  A    between atoms: C_5  and  N_9
REMARK    3  A    between atoms: C_10  and  C_12
REMARK    4  A    between atoms: C_12  and  S_13
REMARK    5  A    between atoms: S_13  and  C_14
REMARK    6  A    between atoms: C_17  and  C_20
REMARK    7  A    between atoms: N_18  and  N_19
REMARK    8  A    between atoms: C_20  and  C_21
REMARK    9  A    between atoms: C_20  and  C_22
REMARK                            x       y       z     vdW  Elec       q    Type
REMARK                         _______ _______ _______ _____ _____    ______ ____
ROOT
ATOM      1  C   UNL     1      -0.136  -6.343  -1.190  0.00  0.00    +0.173 C 
ENDROOT
BRANCH   1   3
ATOM      2  N   UNL     1       0.057  -4.171  -0.023  0.00  0.00    -0.284 N 
ATOM      3  C   UNL     1      -0.042  -4.839  -1.189  0.00  0.00    +0.228 C 
ATOM      4  O   UNL     1      -0.055  -4.230  -2.238  0.00  0.00    -0.275 OA
ATOM      5  H   UNL     1       0.149  -4.660   0.810  0.00  0.00    +0.155 HD
BRANCH   2  10
ATOM      6  C   UNL     1      -0.063   1.502   0.016  0.00  0.00    +0.044 C 
ATOM      7  C   UNL     1      -0.031  -0.005   0.006  0.00  0.00    -0.049 A 
ATOM      8  C   UNL     1      -0.622  -0.701  -1.033  0.00  0.00    +0.005 A 
ATOM      9  C   UNL     1      -0.594  -2.081  -1.045  0.00  0.00    +0.024 A 
ATOM     10  C   UNL     1       0.028  -2.771  -0.013  0.00  0.00    +0.047 A 
ATOM     11  C   UNL     1       0.621  -2.070   1.029  0.00  0.00    +0.039 A 
ATOM     12  C   UNL     1       0.595  -0.688   1.032  0.00  0.00    +0.020 A 
ATOM     13 BR   UNL     1       1.470  -3.004   2.437  0.00  0.00    -0.048 Br
ENDBRANCH   2  10
ENDBRANCH   1   3
BRANCH   1  14
ATOM     14  S   UNL     1      -0.257  -6.940  -2.898  0.00  0.00    -0.075 S 
BRANCH  14  15
ATOM     15  C   UNL     1      -0.358  -8.691  -2.732  0.00  0.00    +0.209 A 
ATOM     16  N   UNL     1      -0.351  -9.370  -1.608  0.00  0.00    -0.121 NA
ATOM     17  N   UNL     1      -0.440 -10.628  -1.857  0.00  0.00    -0.132 NA
ATOM     18  C   UNL     1      -0.509 -10.825  -3.143  0.00  0.00    +0.154 A 
ATOM     19  N   UNL     1      -0.465  -9.599  -3.747  0.00  0.00    -0.228 N 
BRANCH  19  20
ATOM     20  N   UNL     1      -0.514  -9.336  -5.086  0.00  0.00    -0.295 N 
ATOM     21  H   UNL     1       0.411  -9.325  -5.487  0.00  0.00    +0.163 HD
ATOM     22  H   UNL     1      -1.107  -9.998  -5.563  0.00  0.00    +0.163 HD
ENDBRANCH  19  20
BRANCH  18  23
ATOM     23  C   UNL     1      -0.622 -12.158  -3.838  0.00  0.00    +0.052 C 
ATOM     24  C   UNL     1       0.593 -13.020  -3.487  0.00  0.00    +0.015 C 
ATOM     25  C   UNL     1      -1.899 -12.865  -3.379  0.00  0.00    +0.015 C 
ENDBRANCH  18  23
ENDBRANCH  14  15
ENDBRANCH   1  14
TORSDOF 6
