REMARK  Name = ZINC03881619
REMARK  8 active torsions:
REMARK  status: ('A' for Active; 'I' for Inactive)
REMARK    1  A    between atoms: C_1  and  C_2
REMARK    2  A    between atoms: C_2  and  C_4
REMARK    3  A    between atoms: C_4  and  O_31
REMARK    4  A    between atoms: C_9  and  C_30
REMARK    5  A    between atoms: C_19  and  C_29
REMARK    6  A    between atoms: C_22  and  O_25
REMARK    7  A    between atoms: O_25  and  C_26
REMARK    8  A    between atoms: C_26  and  C_28
REMARK                            x       y       z     vdW  Elec       q    Type
REMARK                         _______ _______ _______ _____ _____    ______ ____
ROOT
ATOM      1  C   UNL     1       2.412   5.537   1.715  0.00  0.00    +0.129 C 
ATOM      2  C   UNL     1       2.001   6.219   0.385  0.00  0.00    +0.043 C 
ATOM      3  C   UNL     1       1.444   5.093  -0.528  0.00  0.00    +0.008 C 
ATOM      4  C   UNL     1       1.238   3.917   0.444  0.00  0.00    +0.002 C 
ATOM      5  C   UNL     1       2.477   4.040   1.349  0.00  0.00    +0.007 C 
ATOM      6  C   UNL     1       2.401   3.094   2.522  0.00  0.00    +0.010 C 
ATOM      7  C   UNL     1       1.537   1.872   2.156  0.00  0.00    +0.005 C 
ATOM      8  C   UNL     1       1.767   1.515   0.692  0.00  0.00    +0.003 C 
ATOM      9  C   UNL     1       1.132   2.553  -0.221  0.00  0.00    +0.000 C 
ATOM     10  C   UNL     1      -0.363   2.268  -0.410  0.00  0.00    +0.031 C 
ATOM     11  C   UNL     1      -0.640   0.827  -0.679  0.00  0.00    -0.027 C 
ATOM     12  C   UNL     1       0.149  -0.142  -0.328  0.00  0.00    -0.064 C 
ATOM     13  C   UNL     1       1.465   0.079   0.352  0.00  0.00    -0.008 C 
ATOM     14  C   UNL     1       1.568  -0.818   1.587  0.00  0.00    +0.015 C 
ATOM     15  C   UNL     1       1.247  -2.269   1.232  0.00  0.00    +0.046 C 
ATOM     16  C   UNL     1      -0.171  -2.377   0.670  0.00  0.00    +0.180 C 
ATOM     17  C   UNL     1      -0.269  -1.571  -0.629  0.00  0.00    +0.075 C 
ATOM     18  C   UNL     1       2.563  -0.367  -0.629  0.00  0.00    +0.016 C 
ATOM     19  C   UNL     1       3.781   3.837   0.568  0.00  0.00    +0.015 C 
ENDROOT
BRANCH   1  21
ATOM     20  C   UNL     1       3.863   7.174   3.130  0.00  0.00    +0.089 C 
ATOM     21  C   UNL     1       3.760   6.019   2.167  0.00  0.00    +0.162 C 
ATOM     22  O   UNL     1       4.761   5.481   1.760  0.00  0.00    -0.295 OA
ENDBRANCH   1  21
BRANCH   1  23
ATOM     23  O   UNL     1       1.422   5.760   2.715  0.00  0.00    -0.381 OA
ATOM     24  H   UNL     1       1.287   6.692   2.934  0.00  0.00    +0.211 HD
ENDBRANCH   1  23
BRANCH  16  25
ATOM     25  O   UNL     1      -0.480  -3.770   0.401  0.00  0.00    -0.461 OA
BRANCH  25  26
ATOM     26  C   UNL     1      -1.766  -4.141   0.508  0.00  0.00    +0.304 C 
ATOM     27  O   UNL     1      -2.605  -3.328   0.817  0.00  0.00    -0.251 OA
ATOM     28  C   UNL     1      -2.162  -5.570   0.244  0.00  0.00    +0.136 C 
ENDBRANCH  25  26
ENDBRANCH  16  25
TORSDOF 4
