REMARK  Name = ZINC12607292
REMARK  5 active torsions:
REMARK  status: ('A' for Active; 'I' for Inactive)
REMARK    1  A    between atoms: C_1  and  C_2
REMARK    2  A    between atoms: C_2  and  O_3
REMARK    3  A    between atoms: O_3  and  C_4
REMARK    4  A    between atoms: N_6  and  N_7
REMARK    5  A    between atoms: C_8  and  C_10
REMARK                            x       y       z     vdW  Elec       q    Type
REMARK                         _______ _______ _______ _____ _____    ______ ____
ROOT
ATOM      1  C   UNL     1      -0.355   4.111   0.045  0.00  0.00    +0.076 A 
ATOM      2  C   UNL     1       0.937   3.606   0.027  0.00  0.00    +0.025 A 
ATOM      3  C   UNL     1       1.134   2.247   0.003  0.00  0.00    -0.032 A 
ATOM      4  C   UNL     1      -0.018   1.455   0.010  0.00  0.00    +0.023 A 
ATOM      5  S   UNL     1      -1.342   2.620   0.036  0.00  0.00    -0.083 S 
ATOM      6  C   UNL     1       0.002  -0.004   0.002  0.00  0.00    -0.008 A 
ATOM      7  C   UNL     1      -1.118  -0.780  -0.265  0.00  0.00    +0.009 A 
ATOM      8  C   UNL     1      -1.009  -2.157  -0.280  0.00  0.00    +0.001 A 
ATOM      9  C   UNL     1       0.211  -2.757  -0.021  0.00  0.00    +0.000 A 
ATOM     10  C   UNL     1       1.324  -1.990   0.272  0.00  0.00    +0.004 A 
ATOM     11  C   UNL     1       1.230  -0.615   0.306  0.00  0.00    -0.039 A 
ATOM     12  C   UNL     1       2.410   0.224   0.710  0.00  0.00    +0.040 C 
ATOM     13  C   UNL     1       2.488   1.549  -0.038  0.00  0.00    +0.041 C 
ENDROOT
BRANCH   1  15
ATOM     14  N   UNL     1      -2.113   5.798   0.085  0.00  0.00    -0.227 N 
ATOM     15  C   UNL     1      -0.797   5.508   0.069  0.00  0.00    +0.267 C 
ATOM     16  O   UNL     1       0.025   6.406   0.074  0.00  0.00    -0.268 OA
ATOM     17  H   UNL     1      -2.768   5.082   0.080  0.00  0.00    +0.173 HD
BRANCH  14  20
ATOM     18  C   UNL     1      -3.852   7.424   0.123  0.00  0.00    +0.417 C 
ATOM     19  O   UNL     1      -4.218   8.582   0.143  0.00  0.00    -0.225 OA
ATOM     20  N   UNL     1      -2.535   7.133   0.107  0.00  0.00    -0.199 N 
ATOM     21  H   UNL     1      -1.881   7.849   0.112  0.00  0.00    +0.176 HD
BRANCH  18  22
ATOM     22  O   UNL     1      -4.760   6.430   0.117  0.00  0.00    -0.450 OA
BRANCH  22  24
ATOM     23  C   UNL     1      -7.035   5.562   0.125  0.00  0.00    +0.048 C 
ATOM     24  C   UNL     1      -6.160   6.816   0.135  0.00  0.00    +0.230 C 
ENDBRANCH  22  24
ENDBRANCH  18  22
ENDBRANCH  14  20
ENDBRANCH   1  15
TORSDOF 4
