REMARK  Name = ZINC09751471
REMARK  13 active torsions:
REMARK  status: ('A' for Active; 'I' for Inactive)
REMARK    1  A    between atoms: C_1  and  C_2
REMARK    2  A    between atoms: C_2  and  O_3
REMARK    3  A    between atoms: O_3  and  C_4
REMARK    4  A    between atoms: C_4  and  C_6
REMARK    5  A    between atoms: C_11  and  N_12
REMARK    6  A    between atoms: C_13  and  C_15
REMARK    7  A    between atoms: C_15  and  S_16
REMARK    8  A    between atoms: S_16  and  C_17
REMARK    9  A    between atoms: N_30  and  C_31
REMARK   10  A    between atoms: C_31  and  C_32
REMARK   11  A    between atoms: C_32  and  C_33
REMARK   12  A    between atoms: C_33  and  C_34
REMARK   13  A    between atoms: C_33  and  C_35
REMARK                            x       y       z     vdW  Elec       q    Type
REMARK                         _______ _______ _______ _____ _____    ______ ____
ROOT
ATOM      1  C   UNL     1      -4.349   5.176   0.010  0.00  0.00    +0.173 A 
ATOM      2  N   UNL     1      -3.629   4.075  -0.014  0.00  0.00    -0.219 NA
ATOM      3  C   UNL     1      -2.291   4.125  -0.044  0.00  0.00    +0.125 A 
ATOM      4  C   UNL     1      -1.226   3.110  -0.075  0.00  0.00    +0.046 A 
ATOM      5  C   UNL     1      -1.216   1.717  -0.091  0.00  0.00    +0.014 A 
ATOM      6  C   UNL     1      -0.015   1.043  -0.118  0.00  0.00    +0.001 A 
ATOM      7  C   UNL     1       1.180   1.747  -0.140  0.00  0.00    +0.004 A 
ATOM      8  C   UNL     1       1.183   3.125  -0.131  0.00  0.00    +0.047 A 
ATOM      9  C   UNL     1      -0.018   3.824  -0.099  0.00  0.00    +0.138 A 
ATOM     10  O   UNL     1      -0.304   5.143  -0.083  0.00  0.00    -0.448 OA
ATOM     11  C   UNL     1      -1.638   5.356  -0.051  0.00  0.00    +0.219 A 
ATOM     12  C   UNL     1      -2.421   6.528  -0.025  0.00  0.00    +0.298 A 
ATOM     13  O   UNL     1      -1.894   7.628  -0.029  0.00  0.00    -0.264 OA
ATOM     14  N   UNL     1      -3.765   6.408   0.005  0.00  0.00    -0.285 N 
ENDROOT
BRANCH   1  15
ATOM     15  S   UNL     1      -6.106   5.055   0.048  0.00  0.00    -0.078 S 
BRANCH  15  16
ATOM     16  C   UNL     1      -6.298   3.255   0.041  0.00  0.00    +0.173 C 
BRANCH  16  18
ATOM     17  N   UNL     1      -8.149   1.615   0.071  0.00  0.00    -0.284 N 
ATOM     18  C   UNL     1      -7.763   2.906   0.071  0.00  0.00    +0.228 C 
ATOM     19  O   UNL     1      -8.596   3.787   0.096  0.00  0.00    -0.275 OA
ATOM     20  H   UNL     1      -7.486   0.911  -0.014  0.00  0.00    +0.155 HD
BRANCH  17  26
ATOM     21  C   UNL     1      -9.886   0.146   0.906  0.00  0.00    +0.080 A 
ATOM     22  C   UNL     1     -11.243  -0.169   1.021  0.00  0.00    +0.017 A 
ATOM     23  C   UNL     1     -12.188   0.645   0.435  0.00  0.00    +0.001 A 
ATOM     24  C   UNL     1     -11.801   1.775  -0.268  0.00  0.00    +0.002 A 
ATOM     25  C   UNL     1     -10.465   2.101  -0.385  0.00  0.00    +0.024 A 
ATOM     26  C   UNL     1      -9.497   1.290   0.193  0.00  0.00    +0.047 A 
BRANCH  21  27
ATOM     27  C   UNL     1      -8.869  -0.720   1.530  0.00  0.00    +0.341 C 
ATOM     28  O   UNL     1      -7.699  -0.392   1.512  0.00  0.00    -0.245 OA
BRANCH  27  29
ATOM     29  O   UNL     1      -9.237  -1.874   2.120  0.00  0.00    -0.461 OA
BRANCH  29  31
ATOM     30  C   UNL     1      -8.788  -3.938   3.331  0.00  0.00    +0.048 C 
ATOM     31  C   UNL     1      -8.182  -2.676   2.714  0.00  0.00    +0.229 C 
ENDBRANCH  29  31
ENDBRANCH  27  29
ENDBRANCH  21  27
ENDBRANCH  17  26
ENDBRANCH  16  18
ENDBRANCH  15  16
ENDBRANCH   1  15
BRANCH  14  32
ATOM     32  C   UNL     1      -4.603   7.610   0.032  0.00  0.00    +0.128 C 
BRANCH  32  33
ATOM     33  C   UNL     1      -4.861   8.019   1.483  0.00  0.00    +0.025 C 
BRANCH  33  34
ATOM     34  C   UNL     1      -5.736   9.274   1.512  0.00  0.00    -0.016 C 
ATOM     35  C   UNL     1      -6.097   9.611   2.960  0.00  0.00    +0.007 C 
ATOM     36  C   UNL     1      -4.969  10.444   0.892  0.00  0.00    +0.007 C 
ENDBRANCH  33  34
ENDBRANCH  32  33
ENDBRANCH  14  32
TORSDOF 10
