REMARK  Name = ZINC37507535
REMARK  3 active torsions:
REMARK  status: ('A' for Active; 'I' for Inactive)
REMARK    1  A    between atoms: C_1  and  C_2
REMARK    2  A    between atoms: C_2  and  C_4
REMARK    3  A    between atoms: C_11  and  C_13
REMARK                            x       y       z     vdW  Elec       q    Type
REMARK                         _______ _______ _______ _____ _____    ______ ____
ROOT
ATOM      1  C   UNL     1       0.643  -0.408   1.296  0.00  0.00    +0.234 C 
ATOM      2  O   UNL     1       1.752   0.019   1.540  0.00  0.00    -0.274 OA
ATOM      3  N   UNL     1       0.120  -1.395   2.050  0.00  0.00    -0.289 N 
ATOM      4  C   UNL     1      -1.154  -2.026   1.678  0.00  0.00    +0.108 C 
ATOM      5  C   UNL     1      -2.104  -1.960   2.877  0.00  0.00    +0.019 C 
ATOM      6  C   UNL     1      -1.425  -2.588   4.097  0.00  0.00    +0.004 C 
ATOM      7  C   UNL     1      -0.160  -1.798   4.440  0.00  0.00    +0.032 C 
ATOM      8  C   UNL     1       0.816  -1.865   3.255  0.00  0.00    +0.162 C 
ENDROOT
BRANCH   8   9
ATOM      9  C   UNL     1       2.007  -0.983   3.528  0.00  0.00    +0.231 C 
ATOM     10  O   UNL     1       1.847   0.198   3.753  0.00  0.00    -0.274 OA
ATOM     11  N   UNL     1       3.249  -1.506   3.522  0.00  0.00    -0.328 N 
ATOM     12  H   UNL     1       3.376  -2.450   3.342  0.00  0.00    +0.145 HD
ATOM     13  H   UNL     1       4.015  -0.938   3.698  0.00  0.00    +0.145 HD
ENDBRANCH   8   9
BRANCH   1  15
ATOM     14  C   UNL     1      -0.028   1.691   0.159  0.00  0.00    +0.034 C 
ATOM     15  C   UNL     1      -0.149   0.166   0.150  0.00  0.00    +0.163 C 
ATOM     16 CL   UNL     1       0.493  -0.479  -1.407  0.00  0.00    -0.112 Cl
ENDBRANCH   1  15
TORSDOF 2
