REMARK  Name = ZINC28975945
REMARK  7 active torsions:
REMARK  status: ('A' for Active; 'I' for Inactive)
REMARK    1  A    between atoms: C_1  and  C_2
REMARK    2  A    between atoms: C_2  and  C_3
REMARK    3  A    between atoms: C_2  and  C_4
REMARK    4  A    between atoms: C_4  and  N_5
REMARK    5  A    between atoms: C_9  and  N_10
REMARK    6  A    between atoms: N_10  and  C_11
REMARK    7  A    between atoms: C_20  and  O_21
REMARK                            x       y       z     vdW  Elec       q    Type
REMARK                         _______ _______ _______ _____ _____    ______ ____
ROOT
ATOM      1  N   UNL     1      -1.411  -1.994  -0.114  0.00  0.00    -0.249 N 
ATOM      2  C   UNL     1      -1.437  -2.547  -1.345  0.00  0.00    +0.258 C 
ATOM      3  O   UNL     1      -1.458  -1.851  -2.342  0.00  0.00    -0.269 OA
ATOM      4  C   UNL     1      -1.438  -4.018  -1.447  0.00  0.00    +0.113 C 
ATOM      5  C   UNL     1      -1.463  -4.655  -2.674  0.00  0.00    +0.090 C 
ATOM      6  C   UNL     1      -1.411  -4.778  -0.185  0.00  0.00    +0.256 C 
ATOM      7  O   UNL     1      -1.410  -5.995  -0.189  0.00  0.00    -0.270 OA
ATOM      8  N   UNL     1      -1.387  -4.089   0.974  0.00  0.00    -0.263 N 
ATOM      9  C   UNL     1      -1.382  -2.749   0.993  0.00  0.00    +0.146 C 
ATOM     10  S   UNL     1      -1.344  -1.959   2.511  0.00  0.00    -0.018 S 
ATOM     11  H   UNL     1      -1.369  -4.575   1.814  0.00  0.00    +0.157 HD
ENDROOT
BRANCH   5  12
ATOM     12  N   UNL     1      -1.614  -3.936  -3.805  0.00  0.00    -0.319 N 
ATOM     13  H   UNL     1      -1.627  -2.966  -3.766  0.00  0.00    +0.152 HD
BRANCH  12  14
ATOM     14  C   UNL     1      -1.750  -4.585  -5.032  0.00  0.00    +0.039 A 
ATOM     15  C   UNL     1      -1.738  -5.963  -5.095  0.00  0.00    +0.024 A 
ATOM     16  C   UNL     1      -1.874  -6.620  -6.314  0.00  0.00    +0.003 A 
ATOM     17  C   UNL     1      -2.022  -5.924  -7.475  0.00  0.00    +0.012 A 
ATOM     18  C   UNL     1      -2.040  -4.520  -7.454  0.00  0.00    +0.025 A 
ATOM     19  C   UNL     1      -1.908  -3.839  -6.219  0.00  0.00    +0.007 A 
ATOM     20  C   UNL     1      -1.932  -2.435  -6.199  0.00  0.00    +0.010 A 
ATOM     21  C   UNL     1      -2.086  -1.745  -7.363  0.00  0.00    +0.004 A 
ATOM     22  C   UNL     1      -2.222  -2.409  -8.579  0.00  0.00    +0.046 A 
ATOM     23  C   UNL     1      -2.191  -3.773  -8.641  0.00  0.00    +0.125 A 
BRANCH  23  24
ATOM     24  O   UNL     1      -2.324  -4.407  -9.835  0.00  0.00    -0.506 OA
ATOM     25  H   UNL     1      -3.239  -4.603 -10.076  0.00  0.00    +0.292 HD
ENDBRANCH  23  24
ENDBRANCH  12  14
ENDBRANCH   5  12
BRANCH   1  26
ATOM     26  C   UNL     1      -1.408  -0.535   0.014  0.00  0.00    +0.118 C 
BRANCH  26  28
ATOM     27  C   UNL     1       0.036   1.504   0.030  0.00  0.00    +0.009 C 
ATOM     28  C   UNL     1       0.035  -0.026   0.022  0.00  0.00    +0.001 C 
ATOM     29  C   UNL     1       0.751  -0.543   1.270  0.00  0.00    +0.009 C 
ENDBRANCH  26  28
ENDBRANCH   1  26
TORSDOF 5
