REMARK  Name = ZINC11882423
REMARK  8 active torsions:
REMARK  status: ('A' for Active; 'I' for Inactive)
REMARK    1  A    between atoms: C_1  and  O_2
REMARK    2  A    between atoms: O_2  and  C_3
REMARK    3  A    between atoms: C_6  and  C_13
REMARK    4  A    between atoms: C_13  and  C_14
REMARK    5  A    between atoms: C_14  and  C_20
REMARK    6  A    between atoms: C_20  and  C_21
REMARK    7  A    between atoms: C_21  and  C_22
REMARK    8  A    between atoms: N_24  and  C_25
REMARK                            x       y       z     vdW  Elec       q    Type
REMARK                         _______ _______ _______ _____ _____    ______ ____
ROOT
ATOM      1  C   UNL     1       0.904  -1.280   6.632  0.00  0.00    +0.039 C 
ATOM      2  C   UNL     1       1.529  -1.733   7.970  0.00  0.00    +0.035 C 
ATOM      3  C   UNL     1       1.461  -3.273   7.845  0.00  0.00    +0.098 C 
ATOM      4  C   UNL     1       1.440  -3.523   6.354  0.00  0.00    +0.214 C 
ATOM      5  O   UNL     1       1.669  -4.591   5.825  0.00  0.00    -0.276 OA
ATOM      6  N   UNL     1       1.131  -2.390   5.699  0.00  0.00    -0.309 N 
ATOM      7  H   UNL     1       1.067  -2.316   4.734  0.00  0.00    +0.149 HD
ENDROOT
BRANCH   1   8
ATOM      8  C   UNL     1       1.597  -0.014   6.126  0.00  0.00    +0.061 C 
BRANCH   8  12
ATOM      9  C   UNL     1      -0.149   1.182   2.379  0.00  0.00    +0.128 A 
ATOM     10  C   UNL     1       0.974   0.404   2.423  0.00  0.00    +0.046 A 
ATOM     11  C   UNL     1       1.534   0.027   3.640  0.00  0.00    +0.008 A 
ATOM     12  C   UNL     1       0.976   0.412   4.821  0.00  0.00    -0.037 A 
ATOM     13  C   UNL     1      -0.183   1.208   4.818  0.00  0.00    -0.011 A 
ATOM     14  C   UNL     1      -0.754   1.599   3.582  0.00  0.00    +0.024 A 
ATOM     15  C   UNL     1      -1.911   2.395   3.579  0.00  0.00    +0.012 A 
ATOM     16  C   UNL     1      -2.468   2.779   4.760  0.00  0.00    +0.001 A 
ATOM     17  C   UNL     1      -1.906   2.394   5.976  0.00  0.00    +0.001 A 
ATOM     18  C   UNL     1      -0.785   1.623   6.018  0.00  0.00    +0.009 A 
BRANCH   9  20
ATOM     19  C   UNL     1      -0.013   1.086   0.008  0.00  0.00    +0.277 C 
ATOM     20  O   UNL     1      -0.682   1.547   1.184  0.00  0.00    -0.495 OA
ENDBRANCH   9  20
ENDBRANCH   8  12
ENDBRANCH   1   8
BRANCH   1  21
ATOM     21  C   UNL     1      -0.595  -1.030   6.805  0.00  0.00    +0.035 C 
BRANCH  21  22
ATOM     22  C   UNL     1      -1.270  -2.306   7.311  0.00  0.00    +0.098 C 
BRANCH  22  23
ATOM     23  C   UNL     1      -2.747  -2.059   7.481  0.00  0.00    +0.214 C 
ATOM     24  O   UNL     1      -3.214  -0.970   7.223  0.00  0.00    -0.276 OA
ATOM     25  N   UNL     1      -3.550  -3.049   7.920  0.00  0.00    -0.304 N 
ATOM     26  H   UNL     1      -3.177  -3.920   8.126  0.00  0.00    +0.149 HD
BRANCH  25  27
ATOM     27  C   UNL     1      -4.986  -2.809   8.085  0.00  0.00    +0.159 C 
ATOM     28  C   UNL     1      -5.742  -4.136   7.999  0.00  0.00    +0.032 C 
ATOM     29  C   UNL     1      -7.179  -3.910   7.566  0.00  0.00    +0.004 C 
ATOM     30  C   UNL     1      -8.016  -3.159   8.586  0.00  0.00    +0.019 C 
ATOM     31  C   UNL     1      -7.527  -1.718   8.738  0.00  0.00    +0.104 C 
ATOM     32  N   UNL     1      -6.445  -1.690   9.735  0.00  0.00    -0.314 N 
ATOM     33  C   UNL     1      -5.245  -2.195   9.445  0.00  0.00    +0.233 C 
ATOM     34  O   UNL     1      -4.359  -2.163  10.273  0.00  0.00    -0.274 OA
ATOM     35  H   UNL     1      -6.606  -1.302  10.610  0.00  0.00    +0.149 HD
ENDBRANCH  25  27
ENDBRANCH  22  23
ENDBRANCH  21  22
ENDBRANCH   1  21
TORSDOF 7
