REMARK  Name = ZINC50918664
REMARK  3 active torsions:
REMARK  status: ('A' for Active; 'I' for Inactive)
REMARK    1  A    between atoms: C_6  and  N_7
REMARK    2  A    between atoms: C_8  and  C_10
REMARK    3  A    between atoms: C_10  and  C_11
REMARK                            x       y       z     vdW  Elec       q    Type
REMARK                         _______ _______ _______ _____ _____    ______ ____
ROOT
ATOM      1  C   UNL     1      -0.024   1.386   0.027  0.00  0.00    +0.052 A 
ATOM      2  C   UNL     1       1.167   2.095   0.029  0.00  0.00    +0.069 A 
ATOM      3  C   UNL     1       2.385   1.413   0.017  0.00  0.00    +0.068 A 
ATOM      4  C   UNL     1       2.402   0.026   0.002  0.00  0.00    +0.045 A 
ATOM      5  C   UNL     1       1.214  -0.678  -0.001  0.00  0.00    +0.041 A 
ATOM      6  C   UNL     1      -0.000  -0.000   0.012  0.00  0.00    +0.050 A 
ATOM      7 BR   UNL     1       1.239  -2.569  -0.022  0.00  0.00    -0.048 Br
ATOM      8  N   UNL     1       3.389   2.381   0.023  0.00  0.00    -0.306 N 
ATOM      9  H   UNL     1       4.344   2.208   0.016  0.00  0.00    +0.170 HD
ATOM     10  C   UNL     1       2.808   3.595   0.038  0.00  0.00    +0.325 A 
ATOM     11  O   UNL     1       3.402   4.656   0.046  0.00  0.00    -0.247 OA
ATOM     12  N   UNL     1       1.468   3.456   0.042  0.00  0.00    -0.306 N 
ATOM     13  H   UNL     1       0.823   4.180   0.053  0.00  0.00    +0.170 HD
ENDROOT
BRANCH   6  14
ATOM     14  N   UNL     1      -1.202  -0.720   0.010  0.00  0.00    -0.284 N 
ATOM     15  C   UNL     1      -2.327  -0.152  -0.470  0.00  0.00    +0.228 C 
ATOM     16  O   UNL     1      -2.279   0.943  -0.991  0.00  0.00    -0.275 OA
ATOM     17  H   UNL     1      -1.226  -1.627   0.353  0.00  0.00    +0.155 HD
BRANCH  15  18
ATOM     18  C   UNL     1      -3.643  -0.877  -0.359  0.00  0.00    +0.221 C 
BRANCH  18  19
ATOM     19  C   UNL     1      -4.734  -0.033  -0.966  0.00  0.00    +0.365 C 
ATOM     20  O   UNL     1      -4.467   1.057  -1.444  0.00  0.00    -0.246 OA
ATOM     21  O   UNL     1      -5.884  -0.439  -0.979  0.00  0.00    -0.246 OA
ENDBRANCH  18  19
ENDBRANCH  15  18
ENDBRANCH   6  14
TORSDOF 3
