REMARK  Name = ZINC05784951
REMARK  10 active torsions:
REMARK  status: ('A' for Active; 'I' for Inactive)
REMARK    1  A    between atoms: C_1  and  C_2
REMARK    2  A    between atoms: C_3  and  C_20
REMARK    3  A    between atoms: C_4  and  C_10
REMARK    4  A    between atoms: C_13  and  C_16
REMARK    5  A    between atoms: C_16  and  C_17
REMARK    6  A    between atoms: C_16  and  C_18
REMARK    7  A    between atoms: C_16  and  C_19
REMARK    8  A    between atoms: N_22  and  C_23
REMARK    9  A    between atoms: C_26  and  O_29
REMARK   10  A    between atoms: O_29  and  C_30
REMARK                            x       y       z     vdW  Elec       q    Type
REMARK                         _______ _______ _______ _____ _____    ______ ____
ROOT
ATOM      1  C   UNL     1       0.160   4.475  -0.761  0.00  0.00    +0.061 C 
ATOM      2  C   UNL     1      -0.067   3.135  -0.110  0.00  0.00    +0.019 C 
ATOM      3  C   UNL     1      -1.310   2.794   0.290  0.00  0.00    +0.056 C 
ATOM      4  C   UNL     1      -1.495   1.435   0.934  0.00  0.00    +0.142 C 
ATOM      5  N   UNL     1      -0.293   0.597   1.082  0.00  0.00    -0.288 N 
ATOM      6  C   UNL     1       0.883   1.077   0.632  0.00  0.00    +0.304 C 
ATOM      7  O   UNL     1       1.881   0.392   0.745  0.00  0.00    -0.252 OA
ATOM      8  N   UNL     1       0.989   2.286   0.065  0.00  0.00    -0.273 N 
ATOM      9  H   UNL     1      -0.347  -0.281   1.490  0.00  0.00    +0.151 HD
ATOM     10  H   UNL     1       1.864   2.574  -0.239  0.00  0.00    +0.156 HD
ENDROOT
BRANCH   4  11
ATOM     11  C   UNL     1      -2.081   1.652   2.305  0.00  0.00    -0.023 A 
ATOM     12  C   UNL     1      -1.272   2.071   3.345  0.00  0.00    +0.006 A 
ATOM     13  C   UNL     1      -1.811   2.275   4.601  0.00  0.00    +0.004 A 
ATOM     14  C   UNL     1      -3.157   2.050   4.821  0.00  0.00    -0.042 A 
ATOM     15  C   UNL     1      -3.965   1.625   3.783  0.00  0.00    +0.004 A 
ATOM     16  C   UNL     1      -3.427   1.427   2.525  0.00  0.00    +0.006 A 
BRANCH  14  17
ATOM     17  C   UNL     1      -3.744   2.267   6.192  0.00  0.00    -0.013 C 
ATOM     18  C   UNL     1      -4.344   0.956   6.703  0.00  0.00    +0.015 C 
ATOM     19  C   UNL     1      -2.644   2.732   7.149  0.00  0.00    +0.015 C 
ATOM     20  C   UNL     1      -4.838   3.333   6.116  0.00  0.00    +0.015 C 
ENDBRANCH  14  17
ENDBRANCH   4  11
BRANCH   3  21
ATOM     21  C   UNL     1      -2.405   3.674   0.110  0.00  0.00    +0.248 C 
ATOM     22  O   UNL     1      -3.211   3.469  -0.778  0.00  0.00    -0.270 OA
ATOM     23  N   UNL     1      -2.554   4.739   0.922  0.00  0.00    -0.282 N 
ATOM     24  H   UNL     1      -1.873   4.947   1.581  0.00  0.00    +0.155 HD
BRANCH  23  25
ATOM     25  C   UNL     1      -3.693   5.547   0.816  0.00  0.00    +0.034 A 
ATOM     26  C   UNL     1      -4.263   5.784  -0.428  0.00  0.00    +0.027 A 
ATOM     27  C   UNL     1      -5.389   6.576  -0.532  0.00  0.00    +0.047 A 
ATOM     28  C   UNL     1      -5.945   7.144   0.605  0.00  0.00    +0.120 A 
ATOM     29  C   UNL     1      -5.373   6.912   1.847  0.00  0.00    +0.047 A 
ATOM     30  C   UNL     1      -4.250   6.116   1.954  0.00  0.00    +0.027 A 
BRANCH  28  31
ATOM     31  O   UNL     1      -7.051   7.929   0.501  0.00  0.00    -0.495 OA
ATOM     32  C   UNL     1      -7.587   8.125  -0.809  0.00  0.00    +0.277 C 
ENDBRANCH  28  31
ENDBRANCH  23  25
ENDBRANCH   3  21
TORSDOF 5
