REMARK  Name = ZINC02858382
REMARK  8 active torsions:
REMARK  status: ('A' for Active; 'I' for Inactive)
REMARK    1  A    between atoms: C_1  and  C_2
REMARK    2  A    between atoms: C_5  and  S_8
REMARK    3  A    between atoms: S_8  and  N_11
REMARK    4  A    between atoms: N_11  and  C_12
REMARK    5  A    between atoms: C_15  and  N_18
REMARK    6  A    between atoms: N_18  and  C_19
REMARK    7  A    between atoms: C_19  and  N_21
REMARK    8  A    between atoms: N_21  and  C_22
REMARK                            x       y       z     vdW  Elec       q    Type
REMARK                         _______ _______ _______ _____ _____    ______ ____
ROOT
ATOM      1  C   UNL     1       0.271  -1.428   0.858  0.00  0.00    +0.048 A 
ATOM      2  C   UNL     1       1.626  -1.164   1.010  0.00  0.00    +0.026 A 
ATOM      3  C   UNL     1       2.293  -1.605   2.136  0.00  0.00    +0.025 A 
ATOM      4  C   UNL     1       1.611  -2.321   3.111  0.00  0.00    +0.033 A 
ATOM      5  C   UNL     1       0.257  -2.588   2.957  0.00  0.00    +0.025 A 
ATOM      6  C   UNL     1      -0.411  -2.143   1.833  0.00  0.00    +0.026 A 
ENDROOT
BRANCH   1   7
ATOM      7  N   UNL     1      -0.406  -0.977  -0.281  0.00  0.00    -0.216 N 
ATOM      8  H   UNL     1      -0.259  -1.411  -1.136  0.00  0.00    +0.174 HD
BRANCH   7   9
ATOM      9  S   UNL     1      -1.458   0.297  -0.169  0.00  0.00    +0.072 S 
ATOM     10  O   UNL     1      -1.966   0.520  -1.477  0.00  0.00    -0.150 OA
ATOM     11  O   UNL     1      -2.303   0.030   0.942  0.00  0.00    -0.150 OA
BRANCH   9  16
ATOM     12  C   UNL     1       1.792   5.172   1.272  0.00  0.00    +0.044 C 
ATOM     13  C   UNL     1       0.980   3.955   0.912  0.00  0.00    -0.050 A 
ATOM     14  C   UNL     1       0.692   3.683  -0.412  0.00  0.00    +0.005 A 
ATOM     15  C   UNL     1      -0.052   2.566  -0.742  0.00  0.00    +0.029 A 
ATOM     16  C   UNL     1      -0.509   1.721   0.252  0.00  0.00    +0.109 A 
ATOM     17  C   UNL     1      -0.225   1.996   1.577  0.00  0.00    +0.029 A 
ATOM     18  C   UNL     1       0.523   3.110   1.907  0.00  0.00    +0.005 A 
ENDBRANCH   9  16
ENDBRANCH   7   9
ENDBRANCH   1   7
BRANCH   4  19
ATOM     19  N   UNL     1       2.289  -2.772   4.251  0.00  0.00    -0.297 N 
ATOM     20  H   UNL     1       1.890  -2.663   5.128  0.00  0.00    +0.154 HD
BRANCH  19  21
ATOM     21  C   UNL     1       3.496  -3.359   4.129  0.00  0.00    +0.139 C 
ATOM     22  S   UNL     1       4.250  -3.456   2.595  0.00  0.00    -0.018 S 
BRANCH  21  23
ATOM     23  N   UNL     1       4.110  -3.870   5.215  0.00  0.00    -0.297 N 
ATOM     24  H   UNL     1       3.658  -3.869   6.073  0.00  0.00    +0.154 HD
BRANCH  23  25
ATOM     25  C   UNL     1       5.400  -4.402   5.104  0.00  0.00    +0.034 A 
ATOM     26  C   UNL     1       5.718  -5.239   4.042  0.00  0.00    +0.025 A 
ATOM     27  C   UNL     1       6.993  -5.758   3.931  0.00  0.00    +0.023 A 
ATOM     28  C   UNL     1       7.950  -5.454   4.883  0.00  0.00    +0.059 A 
ATOM     29  C   UNL     1       7.635  -4.625   5.946  0.00  0.00    +0.061 A 
ATOM     30  C   UNL     1       6.362  -4.098   6.058  0.00  0.00    +0.044 A 
ATOM     31 CL   UNL     1       8.839  -4.246   7.138  0.00  0.00    -0.082 Cl
ATOM     32 CL   UNL     1       9.550  -6.114   4.743  0.00  0.00    -0.082 Cl
ENDBRANCH  23  25
ENDBRANCH  21  23
ENDBRANCH  19  21
ENDBRANCH   4  19
TORSDOF 7
