REMARK  Name = ZINC10943035
REMARK  7 active torsions:
REMARK  status: ('A' for Active; 'I' for Inactive)
REMARK    1  A    between atoms: C_1  and  C_2
REMARK    2  A    between atoms: C_5  and  N_9
REMARK    3  A    between atoms: C_10  and  C_12
REMARK    4  A    between atoms: C_12  and  N_13
REMARK    5  A    between atoms: N_13  and  C_14
REMARK    6  A    between atoms: C_17  and  N_20
REMARK    7  A    between atoms: C_21  and  C_23
REMARK                            x       y       z     vdW  Elec       q    Type
REMARK                         _______ _______ _______ _____ _____    ______ ____
ROOT
ATOM      1  N   UNL     1      -6.028   2.902  -0.267  0.00  0.00    -0.335 N 
ATOM      2  H   UNL     1      -5.846   1.949  -0.270  0.00  0.00    +0.147 HD
ENDROOT
BRANCH   1   3
ATOM      3  C   UNL     1      -7.346   3.361  -0.359  0.00  0.00    +0.028 A 
ATOM      4  C   UNL     1      -7.609   4.725  -0.348  0.00  0.00    +0.025 A 
ATOM      5  C   UNL     1      -8.909   5.179  -0.445  0.00  0.00    +0.025 A 
ATOM      6  C   UNL     1      -9.955   4.271  -0.542  0.00  0.00    +0.034 A 
ATOM      7  C   UNL     1      -9.694   2.908  -0.548  0.00  0.00    +0.025 A 
ATOM      8  C   UNL     1      -8.393   2.454  -0.457  0.00  0.00    +0.025 A 
BRANCH   6   9
ATOM      9  N   UNL     1     -11.276   4.732  -0.634  0.00  0.00    -0.285 N 
ATOM     10  C   UNL     1     -12.273   4.043  -0.045  0.00  0.00    +0.220 C 
ATOM     11  O   UNL     1     -12.040   2.981   0.494  0.00  0.00    -0.275 OA
ATOM     12  H   UNL     1     -11.472   5.547  -1.123  0.00  0.00    +0.155 HD
BRANCH  10  13
ATOM     13  C   UNL     1     -13.677   4.591  -0.055  0.00  0.00    +0.075 C 
ATOM     14  C   UNL     1     -14.264   5.054   1.280  0.00  0.00    +0.013 C 
ATOM     15  C   UNL     1     -14.764   3.761   0.631  0.00  0.00    +0.013 C 
ENDBRANCH  10  13
ENDBRANCH   6   9
ENDBRANCH   1   3
BRANCH   1  16
ATOM     16  C   UNL     1      -4.924   3.859  -0.164  0.00  0.00    +0.198 C 
BRANCH  16  18
ATOM     17  N   UNL     1      -2.459   3.792   0.025  0.00  0.00    -0.284 N 
ATOM     18  C   UNL     1      -3.618   3.112  -0.077  0.00  0.00    +0.234 C 
ATOM     19  O   UNL     1      -3.610   1.899  -0.100  0.00  0.00    -0.274 OA
ATOM     20  H   UNL     1      -2.469   4.757   0.117  0.00  0.00    +0.155 HD
BRANCH  17  25
ATOM     21  C   UNL     1       2.483   1.007  -0.085  0.00  0.00    +0.045 C 
ATOM     22  C   UNL     1       1.171   1.746  -0.056  0.00  0.00    -0.036 A 
ATOM     23  C   UNL     1       1.039   2.888   0.712  0.00  0.00    +0.006 A 
ATOM     24  C   UNL     1      -0.164   3.565   0.746  0.00  0.00    +0.023 A 
ATOM     25  C   UNL     1      -1.240   3.104  -0.003  0.00  0.00    +0.034 A 
ATOM     26  C   UNL     1      -1.105   1.958  -0.774  0.00  0.00    +0.038 A 
ATOM     27  C   UNL     1       0.100   1.281  -0.799  0.00  0.00    +0.023 A 
ATOM     28 BR   UNL     1       0.285  -0.280  -1.849  0.00  0.00    -0.050 Br
ENDBRANCH  17  25
ENDBRANCH  16  18
ENDBRANCH   1  16
TORSDOF 6
