REMARK  Name = ZINC43553838
REMARK  14 active torsions:
REMARK  status: ('A' for Active; 'I' for Inactive)
REMARK    1  A    between atoms: C_1  and  C_2
REMARK    2  A    between atoms: C_2  and  C_3
REMARK    3  A    between atoms: C_2  and  N_4
REMARK    4  A    between atoms: C_5  and  O_7
REMARK    5  A    between atoms: O_7  and  C_8
REMARK    6  A    between atoms: C_12  and  C_37
REMARK    7  A    between atoms: C_15  and  C_16
REMARK    8  A    between atoms: C_15  and  C_17
REMARK    9  A    between atoms: C_17  and  O_18
REMARK   10  A    between atoms: C_21  and  O_36
REMARK   11  A    between atoms: C_23  and  C_25
REMARK   12  A    between atoms: C_25  and  C_26
REMARK   13  A    between atoms: C_32  and  C_34
REMARK   14  A    between atoms: C_34  and  O_35
REMARK                            x       y       z     vdW  Elec       q    Type
REMARK                         _______ _______ _______ _____ _____    ______ ____
ROOT
ATOM      1  C   UNL     1      -2.964  -3.143  -2.015  0.00  0.00    +0.186 C 
ATOM      2  C   UNL     1      -3.601  -3.104  -3.398  0.00  0.00    +0.046 C 
ATOM      3  C   UNL     1      -4.966  -2.417  -3.318  0.00  0.00    +0.011 C 
ATOM      4  C   UNL     1      -5.892  -3.231  -2.412  0.00  0.00    -0.023 C 
ATOM      5  C   UNL     1      -5.282  -3.373  -1.028  0.00  0.00    +0.007 C 
ATOM      6  C   UNL     1      -3.846  -3.858  -0.994  0.00  0.00    +0.031 C 
ATOM      7  C   UNL     1      -3.730  -5.371  -1.175  0.00  0.00    +0.017 C 
ATOM      8  C   UNL     1      -6.195  -4.217  -0.138  0.00  0.00    +0.007 C 
ATOM      9  C   UNL     1      -7.536  -3.489   0.009  0.00  0.00    +0.032 C 
ATOM     10  C   UNL     1      -8.182  -3.293  -1.360  0.00  0.00    +0.119 C 
ATOM     11  C   UNL     1      -7.258  -2.542  -2.315  0.00  0.00    +0.032 C 
ATOM     12  C   UNL     1      -6.128  -4.598  -3.074  0.00  0.00    +0.012 C 
ENDROOT
BRANCH  10  13
ATOM     13  O   UNL     1      -9.393  -2.540  -1.199  0.00  0.00    -0.391 OA
ATOM     14  H   UNL     1     -10.047  -2.964  -0.627  0.00  0.00    +0.210 HD
ENDBRANCH  10  13
BRANCH   1  15
ATOM     15  O   UNL     1      -2.710  -1.807  -1.567  0.00  0.00    -0.446 OA
BRANCH  15  17
ATOM     16  N   UNL     1      -1.223  -0.010  -1.513  0.00  0.00    -0.279 N 
ATOM     17  C   UNL     1      -1.525  -1.264  -1.903  0.00  0.00    +0.401 C 
ATOM     18  O   UNL     1      -0.727  -1.905  -2.558  0.00  0.00    -0.226 OA
ATOM     19  H   UNL     1      -1.860   0.502  -0.990  0.00  0.00    +0.152 HD
BRANCH  16  21
ATOM     20  C   UNL     1      -0.056   2.106  -1.894  0.00  0.00    +0.027 C 
ATOM     21  C   UNL     1       0.067   0.581  -1.878  0.00  0.00    +0.070 C 
ATOM     22  C   UNL     1       1.126   0.165  -0.855  0.00  0.00    +0.027 C 
ENDBRANCH  16  21
ENDBRANCH  15  17
ENDBRANCH   1  15
BRANCH   6  23
ATOM     23  C   UNL     1      -3.264  -3.522   0.401  0.00  0.00    +0.166 C 
BRANCH  23  24
ATOM     24  O   UNL     1      -1.914  -3.985   0.478  0.00  0.00    -0.394 OA
ATOM     25  H   UNL     1      -1.485  -3.808   1.327  0.00  0.00    +0.209 HD
ENDBRANCH  23  24
ENDBRANCH   6  23
BRANCH  11  26
ATOM     26  C   UNL     1      -7.126  -1.087  -1.876  0.00  0.00    +0.102 C 
BRANCH  26  27
ATOM     27  C   UNL     1      -8.423  -0.364  -2.136  0.00  0.00    +0.216 C 
ATOM     28  O   UNL     1      -9.306  -0.910  -2.763  0.00  0.00    -0.276 OA
ATOM     29  N   UNL     1      -8.602   0.888  -1.671  0.00  0.00    -0.296 N 
ATOM     30  C   UNL     1      -7.614   1.669  -0.903  0.00  0.00    +0.108 C 
ATOM     31  C   UNL     1      -8.455   2.697  -0.106  0.00  0.00    +0.021 C 
ATOM     32  C   UNL     1      -9.570   3.046  -1.127  0.00  0.00    +0.026 C 
ATOM     33  C   UNL     1      -9.811   1.704  -1.851  0.00  0.00    +0.101 C 
BRANCH  33  34
ATOM     34  C   UNL     1     -10.055   1.951  -3.342  0.00  0.00    +0.178 C 
BRANCH  34  35
ATOM     35  O   UNL     1      -8.989   2.739  -3.875  0.00  0.00    -0.393 OA
ATOM     36  H   UNL     1      -9.078   2.935  -4.818  0.00  0.00    +0.209 HD
ENDBRANCH  34  35
ENDBRANCH  33  34
ENDBRANCH  26  27
ENDBRANCH  11  26
TORSDOF 10
