REMARK  Name = ZINC66220259
REMARK  5 active torsions:
REMARK  status: ('A' for Active; 'I' for Inactive)
REMARK    1  A    between atoms: C_1  and  N_2
REMARK    2  A    between atoms: C_4  and  C_11
REMARK    3  A    between atoms: N_13  and  N_14
REMARK    4  A    between atoms: N_17  and  C_18
REMARK    5  A    between atoms: C_18  and  C_22
REMARK                            x       y       z     vdW  Elec       q    Type
REMARK                         _______ _______ _______ _____ _____    ______ ____
ROOT
ATOM      1  N   UNL     1       0.042  -4.127  -3.886  0.00  0.00    -0.218 N 
ATOM      2  C   UNL     1       0.028  -3.929  -5.219  0.00  0.00    +0.317 C 
ATOM      3  O   UNL     1       0.025  -4.882  -5.975  0.00  0.00    -0.251 OA
ATOM      4  N   UNL     1       0.017  -2.676  -5.715  0.00  0.00    -0.289 N 
ATOM      5  H   UNL     1       0.049  -5.028  -3.529  0.00  0.00    +0.174 HD
ATOM      6  H   UNL     1      -0.057  -1.918  -5.115  0.00  0.00    +0.151 HD
ENDROOT
BRANCH   1   9
ATOM      7  C   UNL     1       0.059  -3.226  -1.682  0.00  0.00    +0.262 C 
ATOM      8  O   UNL     1       0.069  -4.357  -1.235  0.00  0.00    -0.269 OA
ATOM      9  N   UNL     1       0.045  -3.029  -3.016  0.00  0.00    -0.229 N 
ATOM     10  H   UNL     1       0.037  -2.127  -3.373  0.00  0.00    +0.173 HD
BRANCH   7  14
ATOM     11  C   UNL     1       0.053   1.478   0.001  0.00  0.00    +0.149 C 
ATOM     12  N   UNL     1       0.060   0.013  -0.004  0.00  0.00    -0.349 N 
ATOM     13  C   UNL     1       0.052  -0.756  -1.119  0.00  0.00    +0.099 A 
ATOM     14  C   UNL     1       0.062  -2.075  -0.770  0.00  0.00    +0.063 A 
ATOM     15  C   UNL     1       0.077  -2.117   0.704  0.00  0.00    +0.012 A 
ATOM     16  C   UNL     1       0.080  -0.777   1.127  0.00  0.00    +0.050 A 
ATOM     17  C   UNL     1       0.099  -0.492   2.488  0.00  0.00    +0.026 A 
ATOM     18  C   UNL     1       0.118  -1.520   3.406  0.00  0.00    +0.002 A 
ATOM     19  C   UNL     1       0.119  -2.842   2.986  0.00  0.00    +0.001 A 
ATOM     20  C   UNL     1       0.092  -3.145   1.642  0.00  0.00    +0.011 A 
ENDBRANCH   7  14
ENDBRANCH   1   9
BRANCH   4  21
ATOM     21  C   UNL     1       0.117  -2.460  -7.161  0.00  0.00    +0.061 C 
ATOM     22  C   UNL     1      -0.340  -1.061  -7.607  0.00  0.00    +0.031 C 
ATOM     23  C   UNL     1      -1.754  -1.651  -7.740  0.00  0.00    +0.005 C 
ATOM     24  C   UNL     1      -1.078  -3.017  -7.951  0.00  0.00    +0.031 C 
BRANCH  21  25
ATOM     25  C   UNL     1       1.455  -2.867  -7.722  0.00  0.00    -0.024 A 
ATOM     26  C   UNL     1       1.614  -3.020  -9.087  0.00  0.00    +0.006 A 
ATOM     27  C   UNL     1       2.841  -3.394  -9.602  0.00  0.00    +0.000 A 
ATOM     28  C   UNL     1       3.909  -3.615  -8.752  0.00  0.00    +0.000 A 
ATOM     29  C   UNL     1       3.751  -3.461  -7.388  0.00  0.00    +0.000 A 
ATOM     30  C   UNL     1       2.525  -3.083  -6.873  0.00  0.00    +0.006 A 
ENDBRANCH  21  25
ENDBRANCH   4  21
TORSDOF 4
