REMARK  Name = ZINC12445332
REMARK  15 active torsions:
REMARK  status: ('A' for Active; 'I' for Inactive)
REMARK    1  A    between atoms: C_1  and  C_2
REMARK    2  A    between atoms: C_6  and  C_15
REMARK    3  A    between atoms: C_7  and  N_14
REMARK    4  A    between atoms: C_9  and  C_11
REMARK    5  A    between atoms: C_11  and  O_12
REMARK    6  A    between atoms: O_12  and  C_13
REMARK    7  A    between atoms: C_15  and  C_34
REMARK    8  A    between atoms: N_16  and  N_17
REMARK    9  A    between atoms: C_18  and  C_19
REMARK   10  A    between atoms: C_18  and  C_33
REMARK   11  A    between atoms: C_23  and  C_32
REMARK   12  A    between atoms: C_25  and  C_29
REMARK   13  A    between atoms: C_27  and  N_28
REMARK   14  A    between atoms: C_29  and  O_30
REMARK   15  A    between atoms: O_30  and  C_31
REMARK                            x       y       z     vdW  Elec       q    Type
REMARK                         _______ _______ _______ _____ _____    ______ ____
ROOT
ATOM      1  C   UNL     1       0.073  -5.981  -2.037  0.00  0.00    +0.076 C 
ATOM      2  N   UNL     1       0.090  -6.979  -1.181  0.00  0.00    -0.153 NA
ATOM      3  C   UNL     1       0.070  -6.260  -3.518  0.00  0.00    +0.069 C 
ENDROOT
BRANCH   1   9
ATOM      4  C   UNL     1      -0.018   1.503   0.010  0.00  0.00    +0.065 C 
ATOM      5  C   UNL     1       0.002  -0.004   0.002  0.00  0.00    +0.040 A 
ATOM      6  N   UNL     1       0.005  -0.653  -1.147  0.00  0.00    -0.245 NA
ATOM      7  C   UNL     1       0.023  -1.967  -1.193  0.00  0.00    +0.111 A 
ATOM      8  S   UNL     1       0.033  -3.144  -2.522  0.00  0.00    -0.066 S 
ATOM      9  C   UNL     1       0.058  -4.650  -1.569  0.00  0.00    +0.058 A 
ATOM     10  C   UNL     1       0.058  -4.202  -0.263  0.00  0.00    +0.050 A 
ATOM     11  C   UNL     1       0.039  -2.768  -0.027  0.00  0.00    +0.034 A 
ATOM     12  C   UNL     1       0.035  -2.074   1.209  0.00  0.00    -0.009 A 
ATOM     13  C   UNL     1       0.023  -0.699   1.202  0.00  0.00    +0.029 A 
BRANCH  10  14
ATOM     14  N   UNL     1       0.074  -5.101   0.801  0.00  0.00    -0.357 N 
ATOM     15  H   UNL     1       0.087  -6.056   0.630  0.00  0.00    +0.142 HD
ATOM     16  H   UNL     1       0.074  -4.772   1.714  0.00  0.00    +0.142 HD
ENDBRANCH  10  14
BRANCH  12  17
ATOM     17  C   UNL     1       0.052  -2.832   2.511  0.00  0.00    +0.195 C 
BRANCH  17  18
ATOM     18  O   UNL     1       0.044  -1.908   3.601  0.00  0.00    -0.378 OA
ATOM     19  C   UNL     1       0.059  -2.527   4.889  0.00  0.00    +0.194 C 
ENDBRANCH  17  18
ENDBRANCH  12  17
ENDBRANCH   1   9
BRANCH   2  20
ATOM     20  N   UNL     1       0.104  -8.195  -1.609  0.00  0.00    -0.153 NA
ATOM     21  C   UNL     1       0.121  -9.193  -0.753  0.00  0.00    +0.076 C 
ATOM     22  C   UNL     1       0.124  -8.914   0.728  0.00  0.00    +0.069 C 
BRANCH  21  23
ATOM     23  C   UNL     1       0.137 -10.524  -1.221  0.00  0.00    +0.058 A 
ATOM     24  S   UNL     1       0.153 -12.030  -0.268  0.00  0.00    -0.066 S 
ATOM     25  C   UNL     1       0.168 -13.207  -1.597  0.00  0.00    +0.111 A 
ATOM     26  N   UNL     1       0.182 -14.521  -1.643  0.00  0.00    -0.245 NA
ATOM     27  C   UNL     1       0.190 -15.170  -2.792  0.00  0.00    +0.040 A 
ATOM     28  C   UNL     1       0.183 -14.475  -3.992  0.00  0.00    +0.029 A 
ATOM     29  C   UNL     1       0.168 -13.100  -3.999  0.00  0.00    -0.009 A 
ATOM     30  C   UNL     1       0.159 -12.406  -2.762  0.00  0.00    +0.034 A 
ATOM     31  C   UNL     1       0.137 -10.972  -2.526  0.00  0.00    +0.050 A 
ATOM     32  C   UNL     1       0.206 -16.677  -2.800  0.00  0.00    +0.065 C 
BRANCH  31  33
ATOM     33  N   UNL     1       0.120 -10.073  -3.591  0.00  0.00    -0.357 N 
ATOM     34  H   UNL     1       0.109  -9.118  -3.419  0.00  0.00    +0.142 HD
ATOM     35  H   UNL     1       0.120 -10.402  -4.504  0.00  0.00    +0.142 HD
ENDBRANCH  31  33
BRANCH  29  36
ATOM     36  C   UNL     1       0.160 -12.341  -5.301  0.00  0.00    +0.195 C 
BRANCH  36  37
ATOM     37  O   UNL     1       0.171 -13.266  -6.391  0.00  0.00    -0.378 OA
ATOM     38  C   UNL     1       0.165 -12.646  -7.678  0.00  0.00    +0.194 C 
ENDBRANCH  36  37
ENDBRANCH  29  36
ENDBRANCH  21  23
ENDBRANCH   2  20
TORSDOF 9
