REMARK  Name = ZINC06149489
REMARK  12 active torsions:
REMARK  status: ('A' for Active; 'I' for Inactive)
REMARK    1  A    between atoms: C_1  and  C_2
REMARK    2  A    between atoms: C_2  and  C_3
REMARK    3  A    between atoms: C_3  and  C_4
REMARK    4  A    between atoms: C_3  and  C_5
REMARK    5  A    between atoms: C_3  and  N_6
REMARK    6  A    between atoms: C_7  and  C_11
REMARK    7  A    between atoms: C_11  and  C_13
REMARK    8  A    between atoms: C_11  and  N_71
REMARK    9  A    between atoms: C_17  and  O_25
REMARK   10  A    between atoms: O_25  and  C_26
REMARK   11  A    between atoms: C_26  and  C_27
REMARK   12  A    between atoms: C_30  and  C_33
REMARK                            x       y       z     vdW  Elec       q    Type
REMARK                         _______ _______ _______ _____ _____    ______ ____
ROOT
ATOM      1  C   UNL     1      -2.155   1.114  -0.123  0.00  0.00    +0.039 C 
ENDROOT
BRANCH   1   2
ATOM      2  C   UNL     1      -0.873   1.896  -0.004  0.00  0.00    +0.011 A 
ATOM      3  C   UNL     1      -0.839   3.027   0.743  0.00  0.00    +0.017 A 
ATOM      4  C   UNL     1       0.424   3.761   0.845  0.00  0.00    +0.002 A 
ATOM      5  C   UNL     1       0.520   4.931   1.606  0.00  0.00    +0.055 A 
ATOM      6  C   UNL     1       1.726   5.598   1.680  0.00  0.00    +0.121 A 
ATOM      7  C   UNL     1       2.842   5.112   1.002  0.00  0.00    +0.047 A 
ATOM      8  C   UNL     1       2.759   3.962   0.249  0.00  0.00    +0.030 A 
ATOM      9  C   UNL     1       1.554   3.273   0.161  0.00  0.00    +0.049 A 
ATOM     10  N   UNL     1       1.451   2.119  -0.588  0.00  0.00    -0.322 N 
ATOM     11  H   UNL     1       2.254   1.773  -1.073  0.00  0.00    +0.169 HD
ATOM     12  C   UNL     1       0.287   1.452  -0.674  0.00  0.00    +0.251 A 
ATOM     13  O   UNL     1       0.233   0.435  -1.345  0.00  0.00    -0.268 OA
BRANCH   6  14
ATOM     14  O   UNL     1       1.826   6.735   2.418  0.00  0.00    -0.492 OA
BRANCH  14  15
ATOM     15  C   UNL     1       3.102   7.377   2.453  0.00  0.00    +0.225 C 
ATOM     16  C   UNL     1       3.020   8.630   3.327  0.00  0.00    +0.048 C 
ENDBRANCH  14  15
ENDBRANCH   6  14
ENDBRANCH   1   2
BRANCH   1  22
ATOM     17  C   UNL     1      -2.213   0.966  -2.542  0.00  0.00    -0.072 C 
ATOM     18  C   UNL     1      -3.156   1.146  -3.735  0.00  0.00    +0.017 C 
ATOM     19  C   UNL     1      -3.650   2.565  -3.781  0.00  0.00    -0.048 C 
ATOM     20  C   UNL     1      -3.559   3.382  -2.754  0.00  0.00    -0.041 C 
ATOM     21  C   UNL     1      -2.949   2.983  -1.441  0.00  0.00    -0.049 C 
ATOM     22  N   UNL     1      -2.888   1.512  -1.347  0.00  0.00    +0.392 N 
ATOM     23  H   UNL     1      -3.843   1.139  -1.301  0.00  0.00    -0.080 HD
BRANCH  19  24
ATOM     24  C   UNL     1      -4.262   3.063  -5.031  0.00  0.00    -0.022 A 
ATOM     25  C   UNL     1      -5.456   2.509  -5.494  0.00  0.00    +0.011 A 
ATOM     26  C   UNL     1      -6.026   2.982  -6.658  0.00  0.00    +0.039 A 
ATOM     27  C   UNL     1      -5.409   3.996  -7.373  0.00  0.00    +0.123 A 
ATOM     28  C   UNL     1      -4.220   4.545  -6.920  0.00  0.00    +0.039 A 
ATOM     29  C   UNL     1      -3.644   4.084  -5.754  0.00  0.00    +0.011 A 
ATOM     30  F   UNL     1      -5.969   4.451  -8.515  0.00  0.00    -0.205 F 
ENDBRANCH  19  24
ENDBRANCH   1  22
BRANCH   1  32
ATOM     31  N   UNL     1      -3.212   0.576   2.135  0.00  0.00    -0.225 N 
ATOM     32  C   UNL     1      -3.024   1.387   1.077  0.00  0.00    +0.143 A 
ATOM     33  N   UNL     1      -3.748   2.458   1.292  0.00  0.00    -0.115 NA
ATOM     34  N   UNL     1      -4.346   2.315   2.425  0.00  0.00    -0.023 NA
ATOM     35  N   UNL     1      -4.021   1.180   2.938  0.00  0.00    -0.043 NA
BRANCH  31  36
ATOM     36  C   UNL     1      -2.608  -0.744   2.337  0.00  0.00    +0.061 C 
ATOM     37  C   UNL     1      -3.119  -1.708   1.265  0.00  0.00    +0.036 C 
ATOM     38  C   UNL     1      -1.086  -0.629   2.237  0.00  0.00    +0.036 C 
BRANCH  36  40
ATOM     39  C   UNL     1      -2.359  -2.650   3.933  0.00  0.00    +0.006 C 
ATOM     40  C   UNL     1      -2.989  -1.272   3.722  0.00  0.00    +0.026 C 
ENDBRANCH  36  40
ENDBRANCH  31  36
ENDBRANCH   1  32
TORSDOF 8
