REMARK  Name = ZINC15306763
REMARK  10 active torsions:
REMARK  status: ('A' for Active; 'I' for Inactive)
REMARK    1  A    between atoms: C_1  and  C_2
REMARK    2  A    between atoms: C_2  and  N_3
REMARK    3  A    between atoms: N_3  and  C_4
REMARK    4  A    between atoms: N_3  and  C_6
REMARK    5  A    between atoms: C_4  and  C_5
REMARK    6  A    between atoms: C_9  and  C_13
REMARK    7  A    between atoms: C_10  and  O_12
REMARK    8  A    between atoms: N_21  and  C_24
REMARK    9  A    between atoms: C_30  and  C_31
REMARK   10  A    between atoms: C_30  and  C_32
REMARK                            x       y       z     vdW  Elec       q    Type
REMARK                         _______ _______ _______ _____ _____    ______ ____
ROOT
ATOM      1  C   UNL     1      -0.135   0.036   0.755  0.00  0.00    -0.023 C 
ATOM      2  C   UNL     1       1.274  -0.346   0.973  0.00  0.00    +0.077 C 
ATOM      3  C   UNL     1       1.982   0.383  -0.240  0.00  0.00    +0.086 C 
ATOM      4  C   UNL     1       3.389   0.114   0.218  0.00  0.00    +0.229 C 
ATOM      5  O   UNL     1       4.351   0.843   0.105  0.00  0.00    -0.275 OA
ATOM      6  N   UNL     1       3.356  -1.128   0.790  0.00  0.00    -0.210 N 
ATOM      7  C   UNL     1       2.083  -1.539   1.073  0.00  0.00    +0.229 C 
ATOM      8  O   UNL     1       1.716  -2.662   1.348  0.00  0.00    -0.275 OA
ATOM      9  C   UNL     1       1.367   1.765  -0.030  0.00  0.00    +0.045 C 
ATOM     10  C   UNL     1       1.323   2.533  -1.353  0.00  0.00    +0.002 C 
ATOM     11  N   UNL     1      -0.010   1.499   0.464  0.00  0.00    +0.395 N 
ATOM     12  H   UNL     1      -0.180   2.038   1.321  0.00  0.00    -0.083 HD
ATOM     13  H   UNL     1      -0.693   1.769  -0.253  0.00  0.00    -0.083 HD
ENDROOT
BRANCH   1  17
ATOM     14  C   UNL     1      -1.785  -2.055  -2.592  0.00  0.00    +0.033 A 
ATOM     15  C   UNL     1      -1.242  -0.786  -2.759  0.00  0.00    +0.023 A 
ATOM     16  C   UNL     1      -0.710  -0.115  -1.675  0.00  0.00    +0.007 A 
ATOM     17  C   UNL     1      -0.717  -0.701  -0.424  0.00  0.00    -0.019 A 
ATOM     18  C   UNL     1      -1.253  -1.969  -0.253  0.00  0.00    +0.120 A 
ATOM     19  C   UNL     1      -1.792  -2.645  -1.336  0.00  0.00    +0.068 A 
BRANCH  18  20
ATOM     20  O   UNL     1      -1.253  -2.547   0.978  0.00  0.00    -0.506 OA
ATOM     21  H   UNL     1      -2.044  -2.357   1.501  0.00  0.00    +0.292 HD
ENDBRANCH  18  20
BRANCH  14  22
ATOM     22  N   UNL     1      -2.322  -2.735  -3.687  0.00  0.00    -0.330 N 
BRANCH  22  24
ATOM     23  C   UNL     1      -1.020  -2.482  -5.742  0.00  0.00    +0.024 C 
ATOM     24  C   UNL     1      -2.313  -2.111  -5.013  0.00  0.00    +0.102 C 
ENDBRANCH  22  24
BRANCH  22  25
ATOM     25  C   UNL     1      -2.894  -4.072  -3.511  0.00  0.00    +0.102 C 
ATOM     26  C   UNL     1      -4.384  -3.950  -3.181  0.00  0.00    +0.024 C 
ENDBRANCH  22  25
ENDBRANCH  14  22
ENDBRANCH   1  17
BRANCH   6  27
ATOM     27  C   UNL     1       4.500  -1.897   1.045  0.00  0.00    +0.044 A 
ATOM     28  C   UNL     1       5.756  -1.408   0.709  0.00  0.00    +0.024 A 
ATOM     29  C   UNL     1       6.881  -2.165   0.967  0.00  0.00    +0.002 A 
ATOM     30  C   UNL     1       6.758  -3.413   1.550  0.00  0.00    +0.000 A 
ATOM     31  C   UNL     1       5.509  -3.905   1.880  0.00  0.00    +0.002 A 
ATOM     32  C   UNL     1       4.380  -3.150   1.630  0.00  0.00    +0.024 A 
ENDBRANCH   6  27
BRANCH   9  33
ATOM     33  C   UNL     1       2.154   2.537   0.997  0.00  0.00    +0.346 C 
ATOM     34  O   UNL     1       2.990   3.335   0.643  0.00  0.00    -0.248 OA
ATOM     35  O   UNL     1       1.928   2.338   2.305  0.00  0.00    -0.248 OA
ENDBRANCH   9  33
TORSDOF 7
