REMARK  Name = ZINC48264745
REMARK  12 active torsions:
REMARK  status: ('A' for Active; 'I' for Inactive)
REMARK    1  A    between atoms: C_1  and  C_2
REMARK    2  A    between atoms: C_5  and  N_9
REMARK    3  A    between atoms: C_7  and  C_8
REMARK    4  A    between atoms: C_10  and  C_29
REMARK    5  A    between atoms: C_12  and  C_15
REMARK    6  A    between atoms: C_13  and  C_14
REMARK    7  A    between atoms: C_15  and  C_17
REMARK    8  A    between atoms: C_17  and  S_18
REMARK    9  A    between atoms: S_18  and  C_19
REMARK   10  A    between atoms: C_20  and  C_27
REMARK   11  A    between atoms: C_21  and  N_26
REMARK   12  A    between atoms: C_23  and  N_25
REMARK                            x       y       z     vdW  Elec       q    Type
REMARK                         _______ _______ _______ _____ _____    ______ ____
ROOT
ATOM      1  C   UNL     1       1.530  -7.423  -0.704  0.00  0.00    +0.175 C 
ATOM      2  O   UNL     1       2.622  -7.272  -1.213  0.00  0.00    -0.291 OA
ENDROOT
BRANCH   1   6
ATOM      3  N   UNL     1       0.058  -4.172  -0.021  0.00  0.00    -0.317 N 
ATOM      4  C   UNL     1      -0.949  -4.968   0.449  0.00  0.00    +0.022 A 
ATOM      5  C   UNL     1      -0.603  -6.257   0.288  0.00  0.00    +0.034 A 
ATOM      6  C   UNL     1       0.729  -6.255  -0.332  0.00  0.00    +0.039 A 
ATOM      7  C   UNL     1       1.068  -4.925  -0.497  0.00  0.00    +0.031 A 
ATOM      8  C   UNL     1       2.348  -4.408  -1.103  0.00  0.00    +0.064 C 
ATOM      9  C   UNL     1      -2.241  -4.479   1.051  0.00  0.00    +0.064 C 
BRANCH   3  14
ATOM     10  C   UNL     1      -0.018   1.503   0.010  0.00  0.00    +0.044 C 
ATOM     11  C   UNL     1       0.002  -0.004   0.002  0.00  0.00    -0.047 A 
ATOM     12  C   UNL     1       0.006  -0.688  -1.200  0.00  0.00    +0.005 A 
ATOM     13  C   UNL     1       0.024  -2.068  -1.211  0.00  0.00    +0.026 A 
ATOM     14  C   UNL     1       0.040  -2.771  -0.013  0.00  0.00    +0.047 A 
ATOM     15  C   UNL     1       0.036  -2.082   1.192  0.00  0.00    +0.029 A 
ATOM     16  C   UNL     1       0.023  -0.700   1.196  0.00  0.00    -0.046 A 
ATOM     17  C   UNL     1       0.026   0.048   2.504  0.00  0.00    +0.044 C 
ENDBRANCH   3  14
ENDBRANCH   1   6
BRANCH   1  18
ATOM     18  C   UNL     1       0.999  -8.811  -0.457  0.00  0.00    +0.155 C 
BRANCH  18  19
ATOM     19  S   UNL     1       2.214 -10.033  -1.022  0.00  0.00    -0.097 S 
BRANCH  19  20
ATOM     20  C   UNL     1       1.455 -11.584  -0.668  0.00  0.00    +0.119 A 
ATOM     21  C   UNL     1       2.131 -12.778  -0.976  0.00  0.00    +0.104 A 
ATOM     22  C   UNL     1       1.505 -14.008  -0.684  0.00  0.00    +0.048 A 
ATOM     23  C   UNL     1       0.242 -13.982  -0.103  0.00  0.00    +0.067 A 
ATOM     24  C   UNL     1      -0.357 -12.759   0.170  0.00  0.00    +0.119 A 
ATOM     25  N   UNL     1       0.255 -11.616  -0.109  0.00  0.00    -0.225 NA
BRANCH  24  26
ATOM     26  N   UNL     1      -1.617 -12.733   0.749  0.00  0.00    -0.343 N 
ATOM     27  H   UNL     1      -2.071 -13.564   0.960  0.00  0.00    +0.144 HD
ATOM     28  H   UNL     1      -2.043 -11.884   0.943  0.00  0.00    +0.144 HD
ENDBRANCH  24  26
BRANCH  22  29
ATOM     29  N   UNL     1       2.132 -15.211  -0.970  0.00  0.00    -0.357 N 
ATOM     30  H   UNL     1       3.013 -15.214  -1.375  0.00  0.00    +0.142 HD
ATOM     31  H   UNL     1       1.690 -16.049  -0.763  0.00  0.00    +0.142 HD
ENDBRANCH  22  29
BRANCH  21  32
ATOM     32  C   UNL     1       3.431 -12.746  -1.575  0.00  0.00    +0.104 C 
ATOM     33  N   UNL     1       4.463 -12.721  -2.050  0.00  0.00    -0.191 NA
ENDBRANCH  21  32
ENDBRANCH  19  20
ENDBRANCH  18  19
ENDBRANCH   1  18
TORSDOF 8
