REMARK  Name = ZINC43113048
REMARK  10 active torsions:
REMARK  status: ('A' for Active; 'I' for Inactive)
REMARK    1  A    between atoms: C_1  and  C_2
REMARK    2  A    between atoms: C_2  and  C_3
REMARK    3  A    between atoms: C_3  and  C_4
REMARK    4  A    between atoms: C_9  and  S_12
REMARK    5  A    between atoms: S_12  and  C_13
REMARK    6  A    between atoms: C_13  and  C_15
REMARK    7  A    between atoms: C_13  and  C_20
REMARK    8  A    between atoms: C_20  and  C_22
REMARK    9  A    between atoms: C_20  and  N_24
REMARK   10  A    between atoms: C_22  and  C_23
REMARK                            x       y       z     vdW  Elec       q    Type
REMARK                         _______ _______ _______ _____ _____    ______ ____
ROOT
ATOM      1  C   UNL     1      -1.169  -3.099  -3.950  0.00  0.00    +0.076 C 
ENDROOT
BRANCH   1   2
ATOM      2  C   UNL     1      -1.256  -3.367  -5.430  0.00  0.00    +0.002 A 
ATOM      3  C   UNL     1      -2.319  -3.234  -6.261  0.00  0.00    +0.012 A 
ATOM      4  C   UNL     1      -2.166  -3.540  -7.600  0.00  0.00    +0.008 A 
ATOM      5  C   UNL     1      -0.958  -3.965  -8.043  0.00  0.00    +0.045 A 
ATOM      6  S   UNL     1       0.016  -3.935  -6.547  0.00  0.00    -0.101 S 
ENDBRANCH   1   2
BRANCH   1   7
ATOM      7  S   UNL     1      -0.693  -4.622  -3.087  0.00  0.00    -0.081 S 
BRANCH   7  13
ATOM      8  C   UNL     1      -4.200  -6.025  -4.156  0.00  0.00    +0.049 A 
ATOM      9  C   UNL     1      -4.267  -7.254  -3.566  0.00  0.00    +0.093 A 
ATOM     10  C   UNL     1      -3.182  -7.696  -2.790  0.00  0.00    +0.252 A 
ATOM     11  O   UNL     1      -3.208  -8.789  -2.248  0.00  0.00    -0.268 OA
ATOM     12  N   UNL     1      -2.109  -6.887  -2.655  0.00  0.00    -0.302 N 
ATOM     13  C   UNL     1      -2.098  -5.671  -3.268  0.00  0.00    +0.170 A 
ATOM     14  N   UNL     1      -3.119  -5.267  -3.999  0.00  0.00    -0.228 NA
ATOM     15  H   UNL     1      -1.348  -7.171  -2.124  0.00  0.00    +0.171 HD
BRANCH   8  16
ATOM     16  C   UNL     1      -5.351  -5.529  -4.993  0.00  0.00    +0.055 C 
BRANCH  16  18
ATOM     17  C   UNL     1      -7.319  -3.990  -5.040  0.00  0.00    +0.004 C 
ATOM     18  C   UNL     1      -6.221  -4.588  -4.158  0.00  0.00    +0.003 C 
ENDBRANCH  16  18
ENDBRANCH   8  16
ENDBRANCH   7  13
ENDBRANCH   1   7
BRANCH   1  19
ATOM     19  C   UNL     1      -0.120  -2.017  -3.689  0.00  0.00    -0.057 C 
BRANCH  19  20
ATOM     20  N   UNL     1      -0.442  -0.822  -4.480  0.00  0.00    +0.381 N 
ATOM     21  H   UNL     1      -1.353  -0.478  -4.215  0.00  0.00    -0.090 HD
ATOM     22  H   UNL     1       0.250  -0.107  -4.308  0.00  0.00    -0.090 HD
ATOM     23  H   UNL     1      -0.444  -1.058  -5.461  0.00  0.00    -0.090 HD
ENDBRANCH  19  20
BRANCH  19  24
ATOM     24  C   UNL     1      -0.117  -1.658  -2.201  0.00  0.00    -0.018 C 
ATOM     25  C   UNL     1       1.025  -0.680  -1.915  0.00  0.00    +0.002 C 
ENDBRANCH  19  24
ENDBRANCH   1  19
TORSDOF 8
