REMARK  Name = ZINC38828220
REMARK  3 active torsions:
REMARK  status: ('A' for Active; 'I' for Inactive)
REMARK    1  A    between atoms: C_1  and  C_2
REMARK    2  A    between atoms: C_5  and  N_9
REMARK    3  A    between atoms: C_10  and  C_12
REMARK                            x       y       z     vdW  Elec       q    Type
REMARK                         _______ _______ _______ _____ _____    ______ ____
ROOT
ATOM      1  C   UNL     1      -0.015  -6.344  -1.014  0.00  0.00    +0.122 C 
ATOM      2  C   UNL     1      -1.303  -6.782  -0.314  0.00  0.00    +0.114 C 
ATOM      3  C   UNL     1      -1.491  -8.267  -0.484  0.00  0.00    +0.219 C 
ATOM      4  O   UNL     1      -1.952  -8.922   0.426  0.00  0.00    -0.275 OA
ATOM      5  N   UNL     1      -1.154  -8.873  -1.635  0.00  0.00    -0.270 N 
ATOM      6  C   UNL     1      -0.529  -8.172  -2.652  0.00  0.00    +0.138 A 
ATOM      7  C   UNL     1       0.029  -6.932  -2.399  0.00  0.00    +0.069 A 
ATOM      8  C   UNL     1       0.637  -6.232  -3.446  0.00  0.00    +0.258 A 
ATOM      9  O   UNL     1       1.129  -5.131  -3.257  0.00  0.00    -0.267 OA
ATOM     10  N   UNL     1       0.668  -6.800  -4.671  0.00  0.00    -0.295 N 
ATOM     11  H   UNL     1       1.071  -6.325  -5.415  0.00  0.00    +0.172 HD
ATOM     12  C   UNL     1       0.135  -8.037  -4.862  0.00  0.00    +0.200 A 
ATOM     13  N   UNL     1      -0.439  -8.698  -3.879  0.00  0.00    -0.200 NA
ATOM     14  N   UNL     1       0.197  -8.608  -6.105  0.00  0.00    -0.297 N 
ATOM     15  C   UNL     1      -0.269  -9.986  -6.330  0.00  0.00    +0.136 C 
ATOM     16  C   UNL     1      -1.227  -9.982  -7.527  0.00  0.00    +0.179 C 
ATOM     17  O   UNL     1      -0.594  -9.337  -8.635  0.00  0.00    -0.377 OA
ATOM     18  C   UNL     1      -0.274  -7.963  -8.407  0.00  0.00    +0.179 C 
ATOM     19  C   UNL     1       0.727  -7.861  -7.257  0.00  0.00    +0.136 C 
ATOM     20  H   UNL     1      -1.351  -9.815  -1.755  0.00  0.00    +0.156 HD
ENDROOT
BRANCH   1  22
ATOM     21  N   UNL     1       1.071  -4.158  -0.612  0.00  0.00    -0.283 N 
ATOM     22  C   UNL     1       0.019  -4.840  -1.106  0.00  0.00    +0.225 C 
ATOM     23  O   UNL     1      -0.901  -4.243  -1.625  0.00  0.00    -0.275 OA
ATOM     24  H   UNL     1       1.843  -4.638  -0.271  0.00  0.00    +0.155 HD
BRANCH  21  29
ATOM     25  C   UNL     1       0.990   1.516  -0.528  0.00  0.00    +0.044 C 
ATOM     26  C   UNL     1       1.012   0.010  -0.550  0.00  0.00    -0.048 A 
ATOM     27  C   UNL     1      -0.175  -0.698  -0.555  0.00  0.00    +0.005 A 
ATOM     28  C   UNL     1      -0.159  -2.079  -0.576  0.00  0.00    +0.026 A 
ATOM     29  C   UNL     1       1.052  -2.758  -0.592  0.00  0.00    +0.069 A 
ATOM     30  C   UNL     1       2.245  -2.044  -0.587  0.00  0.00    +0.145 A 
ATOM     31  C   UNL     1       2.221  -0.662  -0.572  0.00  0.00    +0.043 A 
ATOM     32  F   UNL     1       3.426  -2.701  -0.603  0.00  0.00    -0.204 F 
ENDBRANCH  21  29
ENDBRANCH   1  22
TORSDOF 2
