REMARK  Name = ZINC50672657
REMARK  5 active torsions:
REMARK  status: ('A' for Active; 'I' for Inactive)
REMARK    1  A    between atoms: C_1  and  C_2
REMARK    2  A    between atoms: C_2  and  N_8
REMARK    3  A    between atoms: N_8  and  S_9
REMARK    4  A    between atoms: S_9  and  C_12
REMARK    5  A    between atoms: C_13  and  N_20
REMARK                            x       y       z     vdW  Elec       q    Type
REMARK                         _______ _______ _______ _____ _____    ______ ____
ROOT
ATOM      1  S   UNL     1      -0.059   0.021  -2.702  0.00  0.00    +0.078 S 
ATOM      2  O   UNL     1      -0.057   1.357  -2.217  0.00  0.00    -0.151 OA
ATOM      3  O   UNL     1       0.500  -0.334  -3.959  0.00  0.00    -0.151 OA
ENDROOT
BRANCH   1   4
ATOM      4  C   UNL     1      -1.742  -0.500  -2.734  0.00  0.00    +0.220 A 
ATOM      5  C   UNL     1      -2.214  -1.637  -3.285  0.00  0.00    +0.163 A 
ATOM      6  N   UNL     1      -3.545  -1.672  -3.104  0.00  0.00    -0.205 NA
ATOM      7  C   UNL     1      -3.915  -0.601  -2.461  0.00  0.00    +0.181 A 
ATOM      8  N   UNL     1      -2.830   0.187  -2.187  0.00  0.00    -0.276 N 
ATOM      9  C   UNL     1      -3.066   1.359  -1.502  0.00  0.00    +0.102 A 
ATOM     10  C   UNL     1      -4.300   1.694  -1.128  0.00  0.00    +0.067 A 
ATOM     11  S   UNL     1      -5.259   0.323  -1.753  0.00  0.00    -0.058 S 
BRANCH   5  12
ATOM     12  N   UNL     1      -1.446  -2.615  -3.937  0.00  0.00    -0.340 N 
ATOM     13  H   UNL     1      -0.487  -2.502  -4.020  0.00  0.00    +0.144 HD
ATOM     14  H   UNL     1      -1.876  -3.403  -4.304  0.00  0.00    +0.144 HD
ENDBRANCH   5  12
ENDBRANCH   1   4
BRANCH   1  15
ATOM     15  N   UNL     1       0.716  -0.897  -1.562  0.00  0.00    -0.183 NA
ATOM     16  H   UNL     1       1.447  -1.478  -1.823  0.00  0.00    +0.149 HD
BRANCH  15  18
ATOM     17  C   UNL     1       0.256   0.630   0.292  0.00  0.00    +0.029 C 
ATOM     18  C   UNL     1       0.297  -0.831  -0.160  0.00  0.00    +0.037 C 
ATOM     19  C   UNL     1      -1.095  -1.450  -0.014  0.00  0.00    +0.023 C 
ATOM     20  C   UNL     1      -1.053  -2.911  -0.466  0.00  0.00    +0.002 C 
ATOM     21  C   UNL     1      -0.058  -3.685   0.401  0.00  0.00    +0.000 C 
ATOM     22  C   UNL     1       1.334  -3.067   0.254  0.00  0.00    +0.002 C 
ATOM     23  C   UNL     1       1.293  -1.605   0.706  0.00  0.00    +0.023 C 
ENDBRANCH  15  18
ENDBRANCH   1  15
TORSDOF 4
