REMARK  Name = ZINC09026689
REMARK  7 active torsions:
REMARK  status: ('A' for Active; 'I' for Inactive)
REMARK    1  A    between atoms: C_4  and  C_7
REMARK    2  A    between atoms: C_7  and  S_8
REMARK    3  A    between atoms: S_8  and  C_11
REMARK    4  A    between atoms: C_14  and  C_16
REMARK    5  A    between atoms: N_19  and  S_22
REMARK    6  A    between atoms: S_22  and  C_25
REMARK    7  A    between atoms: C_32  and  O_34
REMARK                            x       y       z     vdW  Elec       q    Type
REMARK                         _______ _______ _______ _____ _____    ______ ____
ROOT
ATOM      1  C   UNL     1       0.032  -3.307  -1.480  0.00  0.00    +0.079 C 
ATOM      2  C   UNL     1      -1.203  -4.150  -1.157  0.00  0.00    +0.030 C 
ATOM      3  C   UNL     1      -1.209  -5.400  -2.043  0.00  0.00    +0.110 C 
ATOM      4  N   UNL     1       0.066  -6.108  -1.869  0.00  0.00    -0.181 NA
ATOM      5  C   UNL     1       1.319  -5.366  -2.067  0.00  0.00    +0.110 C 
ATOM      6  C   UNL     1       1.296  -4.116  -1.181  0.00  0.00    +0.030 C 
ENDROOT
BRANCH   1  10
ATOM      7  C   UNL     1       0.002  -0.004   0.002  0.00  0.00    +0.361 A 
ATOM      8  N   UNL     1       0.022  -0.780   1.048  0.00  0.00    -0.090 NA
ATOM      9  N   UNL     1       0.035  -2.010   0.667  0.00  0.00    -0.111 NA
ATOM     10  C   UNL     1       0.024  -2.059  -0.635  0.00  0.00    +0.222 A 
ATOM     11  O   UNL     1      -0.003  -0.793  -1.085  0.00  0.00    -0.407 OA
BRANCH   7  12
ATOM     12  S   UNL     1      -0.022   1.758   0.012  0.00  0.00    +0.053 S 
ATOM     13  O   UNL     1      -0.641   2.119  -1.215  0.00  0.00    -0.165 OA
ATOM     14  O   UNL     1      -0.618   2.106   1.254  0.00  0.00    -0.165 OA
BRANCH  12  15
ATOM     15  C   UNL     1       1.725   2.248  -0.002  0.00  0.00    +0.212 C 
BRANCH  15  19
ATOM     16  C   UNL     1       2.008   6.510   0.018  0.00  0.00    +0.000 A 
ATOM     17  C   UNL     1       1.974   5.814   1.212  0.00  0.00    +0.000 A 
ATOM     18  C   UNL     1       1.882   4.435   1.205  0.00  0.00    +0.005 A 
ATOM     19  C   UNL     1       1.825   3.751   0.005  0.00  0.00    -0.026 A 
ATOM     20  C   UNL     1       1.865   4.447  -1.189  0.00  0.00    +0.005 A 
ATOM     21  C   UNL     1       1.951   5.827  -1.183  0.00  0.00    +0.000 A 
ENDBRANCH  15  19
ENDBRANCH  12  15
ENDBRANCH   7  12
ENDBRANCH   1  10
BRANCH   4  22
ATOM     22  S   UNL     1       0.092  -7.712  -1.460  0.00  0.00    +0.039 S 
ATOM     23  O   UNL     1      -1.141  -8.229  -1.942  0.00  0.00    -0.158 OA
ATOM     24  O   UNL     1       1.328  -8.196  -1.966  0.00  0.00    -0.158 OA
BRANCH  22  25
ATOM     25  C   UNL     1       0.110  -7.730   0.354  0.00  0.00    +0.199 C 
ATOM     26  C   UNL     1       1.310  -6.885   0.865  0.00  0.00    +0.196 C 
ATOM     27  S   UNL     1       1.468  -7.575   2.570  0.00  0.00    -0.027 S 
ATOM     28  O   UNL     1       2.838  -7.575   2.949  0.00  0.00    -0.174 OA
ATOM     29  O   UNL     1       0.505  -6.960   3.415  0.00  0.00    -0.174 OA
ATOM     30  C   UNL     1       0.940  -9.301   2.206  0.00  0.00    +0.199 C 
ATOM     31  C   UNL     1       0.233  -9.172   0.844  0.00  0.00    +0.163 C 
BRANCH  31  32
ATOM     32  O   UNL     1       0.964  -9.925  -0.126  0.00  0.00    -0.388 OA
ATOM     33  H   UNL     1       1.088 -10.854   0.109  0.00  0.00    +0.210 HD
ENDBRANCH  31  32
ENDBRANCH  22  25
ENDBRANCH   4  22
TORSDOF 7
