REMARK  Name = ZINC49471336
REMARK  5 active torsions:
REMARK  status: ('A' for Active; 'I' for Inactive)
REMARK    1  A    between atoms: C_1  and  C_2
REMARK    2  A    between atoms: C_12  and  N_14
REMARK    3  A    between atoms: C_15  and  C_17
REMARK    4  A    between atoms: C_18  and  C_19
REMARK    5  A    between atoms: C_22  and  N_25
REMARK                            x       y       z     vdW  Elec       q    Type
REMARK                         _______ _______ _______ _____ _____    ______ ____
ROOT
ATOM      1  N   UNL     1       1.135  -2.927   4.872  0.00  0.00    -0.282 N 
ATOM      2  C   UNL     1       1.022  -2.321   6.070  0.00  0.00    +0.241 C 
ATOM      3  O   UNL     1       1.303  -1.142   6.185  0.00  0.00    -0.270 OA
ATOM      4  H   UNL     1       0.849  -3.848   4.765  0.00  0.00    +0.155 HD
ENDROOT
BRANCH   1  16
ATOM      5  C   UNL     1       2.864  -0.470  -0.934  0.00  0.00    +0.044 C 
ATOM      6  C   UNL     1       3.256  -0.124   0.480  0.00  0.00    -0.036 A 
ATOM      7  C   UNL     1       4.131   0.883   0.731  0.00  0.00    +0.074 A 
ATOM      8  C   UNL     1       4.490   1.199   2.057  0.00  0.00    +0.249 A 
ATOM      9  O   UNL     1       5.278   2.107   2.259  0.00  0.00    -0.268 OA
ATOM     10  N   UNL     1       3.986   0.524   3.104  0.00  0.00    -0.322 N 
ATOM     11  H   UNL     1       4.254   0.768   4.004  0.00  0.00    +0.169 HD
ATOM     12  C   UNL     1       3.091  -0.509   2.918  0.00  0.00    +0.051 A 
ATOM     13  C   UNL     1       2.696  -0.861   1.612  0.00  0.00    +0.002 A 
ATOM     14  C   UNL     1       1.785  -1.906   1.414  0.00  0.00    +0.012 A 
ATOM     15  C   UNL     1       1.279  -2.577   2.489  0.00  0.00    +0.024 A 
ATOM     16  C   UNL     1       1.662  -2.230   3.785  0.00  0.00    +0.036 A 
ATOM     17  C   UNL     1       2.571  -1.206   4.000  0.00  0.00    +0.049 A 
ENDBRANCH   1  16
BRANCH   2  18
ATOM     18  C   UNL     1       0.561  -3.080   7.234  0.00  0.00    +0.068 C 
ATOM     19  C   UNL     1       0.324  -2.447   8.400  0.00  0.00    +0.013 C 
BRANCH  19  20
ATOM     20  C   UNL     1       0.304  -0.976   8.449  0.00  0.00    -0.025 A 
ATOM     21  C   UNL     1      -0.413  -0.251   7.492  0.00  0.00    +0.010 A 
ATOM     22  C   UNL     1      -0.426   1.127   7.545  0.00  0.00    +0.033 A 
ATOM     23  C   UNL     1       0.267   1.792   8.541  0.00  0.00    +0.126 A 
ATOM     24  C   UNL     1       0.979   1.081   9.491  0.00  0.00    +0.033 A 
ATOM     25  C   UNL     1       0.997  -0.297   9.456  0.00  0.00    +0.010 A 
BRANCH  23  26
ATOM     26  N   UNL     1       0.248   3.271   8.590  0.00  0.00    +0.056 N 
ATOM     27  O   UNL     1      -0.372   3.896   7.761  0.00  0.00    -0.126 OA
ATOM     28  O   UNL     1       0.853   3.856   9.459  0.00  0.00    -0.126 OA
ENDBRANCH  23  26
ENDBRANCH  19  20
ENDBRANCH   2  18
TORSDOF 4
