REMARK  Name = ZINC12520742
REMARK  7 active torsions:
REMARK  status: ('A' for Active; 'I' for Inactive)
REMARK    1  A    between atoms: C_6  and  C_10
REMARK    2  A    between atoms: C_10  and  O_11
REMARK    3  A    between atoms: O_11  and  C_12
REMARK    4  A    between atoms: C_15  and  C_18
REMARK    5  A    between atoms: N_20  and  C_21
REMARK    6  A    between atoms: C_24  and  S_27
REMARK    7  A    between atoms: S_27  and  N_30
REMARK                            x       y       z     vdW  Elec       q    Type
REMARK                         _______ _______ _______ _____ _____    ______ ____
ROOT
ATOM      1  C   UNL     1      -0.161   1.165   2.378  0.00  0.00    +0.121 A 
ATOM      2  C   UNL     1       0.980   0.372   2.415  0.00  0.00    +0.046 A 
ATOM      3  C   UNL     1       1.530   0.011   3.625  0.00  0.00    +0.016 A 
ATOM      4  C   UNL     1       0.933   0.434   4.816  0.00  0.00    +0.037 A 
ATOM      5  C   UNL     1      -0.217   1.227   4.774  0.00  0.00    +0.016 A 
ATOM      6  C   UNL     1      -0.758   1.587   3.560  0.00  0.00    +0.046 A 
ENDROOT
BRANCH   4   7
ATOM      7  C   UNL     1       1.516   0.045   6.114  0.00  0.00    +0.248 C 
ATOM      8  O   UNL     1       0.995   0.413   7.150  0.00  0.00    -0.270 OA
ATOM      9  N   UNL     1       2.625  -0.720   6.153  0.00  0.00    -0.282 N 
ATOM     10  H   UNL     1       3.002  -1.070   5.331  0.00  0.00    +0.155 HD
BRANCH   9  11
ATOM     11  C   UNL     1       3.233  -1.008   7.379  0.00  0.00    +0.034 A 
ATOM     12  C   UNL     1       4.615  -1.119   7.462  0.00  0.00    +0.025 A 
ATOM     13  C   UNL     1       5.213  -1.397   8.675  0.00  0.00    +0.030 A 
ATOM     14  C   UNL     1       4.436  -1.579   9.805  0.00  0.00    +0.105 A 
ATOM     15  C   UNL     1       3.059  -1.476   9.725  0.00  0.00    +0.030 A 
ATOM     16  C   UNL     1       2.456  -1.191   8.516  0.00  0.00    +0.025 A 
BRANCH  14  17
ATOM     17  S   UNL     1       5.202  -1.942  11.350  0.00  0.00    +0.056 S 
ATOM     18  O   UNL     1       6.531  -1.446  11.270  0.00  0.00    -0.153 OA
ATOM     19  O   UNL     1       4.293  -1.527  12.361  0.00  0.00    -0.153 OA
BRANCH  17  20
ATOM     20  N   UNL     1       5.317  -3.590  11.464  0.00  0.00    -0.204 NA
ATOM     21  H   UNL     1       4.987  -4.150  10.744  0.00  0.00    +0.144 HD
ATOM     22  H   UNL     1       5.715  -3.995  12.250  0.00  0.00    +0.144 HD
ENDBRANCH  17  20
ENDBRANCH  14  17
ENDBRANCH   9  11
ENDBRANCH   4   7
BRANCH   1  23
ATOM     23  O   UNL     1      -0.698   1.522   1.183  0.00  0.00    -0.486 OA
BRANCH  23  24
ATOM     24  C   UNL     1      -0.034   1.054   0.008  0.00  0.00    +0.286 C 
BRANCH  24  30
ATOM     25  C   UNL     1      -2.417   2.644  -5.259  0.00  0.00    +0.005 A 
ATOM     26  C   UNL     1      -3.352   3.298  -4.439  0.00  0.00    +0.018 A 
ATOM     27  C   UNL     1      -3.241   3.234  -3.095  0.00  0.00    +0.092 A 
ATOM     28  N   UNL     1      -2.222   2.537  -2.514  0.00  0.00    -0.306 N 
ATOM     29  C   UNL     1      -1.882   2.309  -1.208  0.00  0.00    +0.119 A 
ATOM     30  C   UNL     1      -0.767   1.547  -1.213  0.00  0.00    +0.097 A 
ATOM     31  N   UNL     1      -0.425   1.298  -2.480  0.00  0.00    -0.229 NA
ATOM     32  C   UNL     1      -1.294   1.889  -3.288  0.00  0.00    +0.138 A 
ATOM     33  C   UNL     1      -1.396   1.945  -4.693  0.00  0.00    +0.047 A 
ENDBRANCH  24  30
ENDBRANCH  23  24
ENDBRANCH   1  23
TORSDOF 7
