REMARK  Name = ZINC39593265
REMARK  5 active torsions:
REMARK  status: ('A' for Active; 'I' for Inactive)
REMARK    1  A    between atoms: C_3  and  C_9
REMARK    2  A    between atoms: C_4  and  O_8
REMARK    3  A    between atoms: C_6  and  O_7
REMARK    4  A    between atoms: N_10  and  N_11
REMARK    5  A    between atoms: C_12  and  C_18
REMARK                            x       y       z     vdW  Elec       q    Type
REMARK                         _______ _______ _______ _____ _____    ______ ____
ROOT
ATOM      1  N   UNL     1       5.985   2.252  -0.150  0.00  0.00    -0.175 N 
ATOM      2  C   UNL     1       7.337   1.685  -0.289  0.00  0.00    +0.230 C 
ATOM      3  N   UNL     1       8.211   2.868  -0.368  0.00  0.00    -0.242 N 
ATOM      4  N   UNL     1       7.367   3.982  -0.275  0.00  0.00    -0.160 NA
ATOM      5  C   UNL     1       6.131   3.629  -0.159  0.00  0.00    +0.206 C 
ATOM      6  S   UNL     1       4.790   4.764  -0.024  0.00  0.00    -0.011 SA
ATOM      7  H   UNL     1       9.176   2.874  -0.464  0.00  0.00    +0.170 HD
ENDROOT
BRANCH   2   8
ATOM      8  C   UNL     1       7.690   0.832   0.931  0.00  0.00    +0.197 C 
ATOM      9  C   UNL     1       9.102   0.296   0.821  0.00  0.00    -0.017 C 
ATOM     10  C   UNL     1       8.962  -1.028   0.804  0.00  0.00    +0.065 C 
ATOM     11  C   UNL     1      10.325  -1.689   0.696  0.00  0.00    +0.057 C 
ATOM     12  C   UNL     1      11.277  -0.571   0.217  0.00  0.00    +0.011 C 
ATOM     13  C   UNL     1      10.552   0.696   0.725  0.00  0.00    +0.035 C 
ATOM     14  N   UNL     1       7.644  -1.355   0.890  0.00  0.00    -0.158 NA
ATOM     15  N   UNL     1       6.873  -0.393   0.966  0.00  0.00    -0.176 NA
ENDBRANCH   2   8
BRANCH   1  17
ATOM     16  C   UNL     1       3.673   2.169   0.192  0.00  0.00    +0.142 C 
ATOM     17  N   UNL     1       4.785   1.538  -0.036  0.00  0.00    -0.184 NA
BRANCH  16  20
ATOM     18  C   UNL     1       0.007   1.416   0.454  0.00  0.00    +0.046 A 
ATOM     19  C   UNL     1       1.199   2.108   0.447  0.00  0.00    +0.016 A 
ATOM     20  C   UNL     1       2.397   1.433   0.202  0.00  0.00    +0.036 A 
ATOM     21  C   UNL     1       2.379   0.051  -0.036  0.00  0.00    +0.129 A 
ATOM     22  C   UNL     1       1.177  -0.633  -0.026  0.00  0.00    +0.091 A 
ATOM     23  C   UNL     1      -0.007   0.047   0.218  0.00  0.00    +0.120 A 
BRANCH  23  24
ATOM     24  O   UNL     1      -1.186  -0.628   0.228  0.00  0.00    -0.507 OA
ATOM     25  H   UNL     1      -1.621  -0.674  -0.635  0.00  0.00    +0.292 HD
ENDBRANCH  23  24
BRANCH  21  26
ATOM     26  O   UNL     1       3.539  -0.614  -0.276  0.00  0.00    -0.506 OA
ATOM     27  H   UNL     1       3.968  -0.957   0.520  0.00  0.00    +0.292 HD
ENDBRANCH  21  26
ENDBRANCH  16  20
ENDBRANCH   1  17
TORSDOF 5
