REMARK  Name = ZINC02144271
REMARK  4 active torsions:
REMARK  status: ('A' for Active; 'I' for Inactive)
REMARK    1  A    between atoms: C_6  and  S_7
REMARK    2  A    between atoms: S_7  and  N_10
REMARK    3  A    between atoms: C_17  and  S_19
REMARK    4  A    between atoms: S_19  and  N_22
REMARK                            x       y       z     vdW  Elec       q    Type
REMARK                         _______ _______ _______ _____ _____    ______ ____
ROOT
ATOM      1  C   UNL     1      -0.017   1.377   0.010  0.00  0.00    +0.029 A 
ATOM      2  C   UNL     1       1.169   2.095   0.002  0.00  0.00    +0.011 A 
ATOM      3  C   UNL     1       2.385   1.428  -0.013  0.00  0.00    -0.006 A 
ATOM      4  C   UNL     1       2.404   0.023  -0.021  0.00  0.00    +0.032 A 
ATOM      5  C   UNL     1       1.208  -0.685  -0.014  0.00  0.00    +0.040 A 
ATOM      6  C   UNL     1       0.002  -0.004   0.002  0.00  0.00    +0.106 A 
ATOM      7  C   UNL     1       3.820  -0.412  -0.037  0.00  0.00    +0.194 C 
ATOM      8  O   UNL     1       4.223  -1.558  -0.047  0.00  0.00    -0.287 OA
ATOM      9  C   UNL     1       4.652   0.814  -0.037  0.00  0.00    +0.032 A 
ATOM     10  C   UNL     1       3.787   1.921  -0.023  0.00  0.00    -0.006 A 
ATOM     11  C   UNL     1       4.318   3.203  -0.020  0.00  0.00    +0.011 A 
ATOM     12  C   UNL     1       5.692   3.385  -0.031  0.00  0.00    +0.029 A 
ATOM     13  C   UNL     1       6.542   2.297  -0.045  0.00  0.00    +0.106 A 
ATOM     14  C   UNL     1       6.028   1.010  -0.048  0.00  0.00    +0.040 A 
ENDROOT
BRANCH   6  15
ATOM     15  S   UNL     1      -1.514  -0.902   0.012  0.00  0.00    +0.056 S 
ATOM     16  O   UNL     1      -1.223  -2.184   0.553  0.00  0.00    -0.153 OA
ATOM     17  O   UNL     1      -2.493  -0.041   0.577  0.00  0.00    -0.153 OA
BRANCH  15  18
ATOM     18  N   UNL     1      -1.950  -1.144  -1.567  0.00  0.00    -0.204 NA
ATOM     19  H   UNL     1      -1.390  -0.804  -2.283  0.00  0.00    +0.144 HD
ATOM     20  H   UNL     1      -2.766  -1.625  -1.777  0.00  0.00    +0.144 HD
ENDBRANCH  15  18
ENDBRANCH   6  15
BRANCH  13  21
ATOM     21  S   UNL     1       8.286   2.545  -0.059  0.00  0.00    +0.056 S 
ATOM     22  O   UNL     1       8.518   3.832   0.497  0.00  0.00    -0.153 OA
ATOM     23  O   UNL     1       8.869   1.367   0.479  0.00  0.00    -0.153 OA
BRANCH  21  24
ATOM     24  N   UNL     1       8.757   2.624  -1.645  0.00  0.00    -0.204 NA
ATOM     25  H   UNL     1       8.098   2.535  -2.351  0.00  0.00    +0.144 HD
ATOM     26  H   UNL     1       9.692   2.759  -1.867  0.00  0.00    +0.144 HD
ENDBRANCH  21  24
ENDBRANCH  13  21
TORSDOF 4
