REMARK  Name = ZINC35435275
REMARK  7 active torsions:
REMARK  status: ('A' for Active; 'I' for Inactive)
REMARK    1  A    between atoms: C_1  and  C_2
REMARK    2  A    between atoms: C_2  and  C_3
REMARK    3  A    between atoms: C_3  and  N_4
REMARK    4  A    between atoms: C_8  and  C_9
REMARK    5  A    between atoms: N_22  and  C_24
REMARK    6  A    between atoms: N_27  and  C_34
REMARK    7  A    between atoms: N_30  and  C_33
REMARK                            x       y       z     vdW  Elec       q    Type
REMARK                         _______ _______ _______ _____ _____    ______ ____
ROOT
ATOM      1  C   UNL     1       2.722  -6.255  -0.083  0.00  0.00    -0.024 A 
ATOM      2  C   UNL     1       1.673  -6.954  -0.705  0.00  0.00    +0.010 A 
ATOM      3  C   UNL     1       1.633  -8.315  -0.639  0.00  0.00    +0.024 A 
ATOM      4  C   UNL     1       2.632  -9.016   0.043  0.00  0.00    +0.033 A 
ATOM      5  C   UNL     1       3.675  -8.331   0.654  0.00  0.00    -0.024 A 
ATOM      6  C   UNL     1       3.726  -6.966   0.593  0.00  0.00    +0.013 A 
ATOM      7  C   UNL     1       4.766  -9.072   1.381  0.00  0.00    +0.064 C 
ATOM      8  C   UNL     1       4.888 -10.487   0.810  0.00  0.00    +0.144 C 
ATOM      9  C   UNL     1       3.515 -11.171   0.867  0.00  0.00    +0.081 C 
ATOM     10  N   UNL     1       2.550 -10.408   0.092  0.00  0.00    -0.329 N 
ATOM     11  C   UNL     1       1.444 -11.040  -0.632  0.00  0.00    +0.087 C 
ATOM     12  C   UNL     1       1.854 -12.421  -1.138  0.00  0.00    -0.060 C 
ATOM     13  N   UNL     1       2.387 -13.191  -0.004  0.00  0.00    +0.380 N 
ATOM     14  C   UNL     1       3.666 -12.610   0.402  0.00  0.00    -0.055 C 
ATOM     15  C   UNL     1       2.588 -14.589  -0.410  0.00  0.00    -0.096 C 
ATOM     16  C   UNL     1       5.867 -11.275   1.635  0.00  0.00    +0.240 C 
ATOM     17  O   UNL     1       5.647 -11.432   2.817  0.00  0.00    -0.274 OA
ATOM     18  N   UNL     1       6.974 -11.811   1.103  0.00  0.00    -0.228 N 
ATOM     19  C   UNL     1       7.273 -11.675  -0.198  0.00  0.00    +0.317 C 
ATOM     20  O   UNL     1       8.290 -12.182  -0.628  0.00  0.00    -0.252 OA
ATOM     21  N   UNL     1       6.478 -10.993  -1.035  0.00  0.00    -0.228 N 
ATOM     22  C   UNL     1       5.343 -10.412  -0.621  0.00  0.00    +0.240 C 
ATOM     23  O   UNL     1       4.665  -9.807  -1.423  0.00  0.00    -0.274 OA
ATOM     24  C   UNL     1       6.859 -10.880  -2.445  0.00  0.00    +0.143 C 
ATOM     25  C   UNL     1       7.884 -12.566   1.967  0.00  0.00    +0.143 C 
ATOM     26  H   UNL     1       1.738 -13.151   0.766  0.00  0.00    -0.082 HD
ENDROOT
BRANCH   1  31
ATOM     27  N   UNL     1       0.430  -1.998   0.194  0.00  0.00    -0.220 N 
ATOM     28  C   UNL     1       1.568  -2.649  -0.129  0.00  0.00    +0.259 C 
ATOM     29  O   UNL     1       2.505  -2.062  -0.636  0.00  0.00    -0.269 OA
ATOM     30  C   UNL     1       1.637  -4.096   0.156  0.00  0.00    +0.102 C 
ATOM     31  C   UNL     1       2.768  -4.840  -0.143  0.00  0.00    +0.026 C 
ATOM     32  C   UNL     1       0.452  -4.713   0.771  0.00  0.00    +0.276 C 
ATOM     33  O   UNL     1       0.432  -6.030   1.064  0.00  0.00    -0.268 OA
ATOM     34  N   UNL     1      -0.594  -3.946   1.031  0.00  0.00    -0.123 NA
ATOM     35  C   UNL     1      -0.601  -2.644   0.759  0.00  0.00    +0.335 C 
ATOM     36  O   UNL     1      -1.601  -2.004   1.033  0.00  0.00    -0.250 OA
BRANCH  27  37
ATOM     37  C   UNL     1       0.321  -0.561  -0.072  0.00  0.00    +0.118 C 
BRANCH  37  39
ATOM     38  C   UNL     1       0.709   1.722   0.865  0.00  0.00    +0.005 C 
ATOM     39  C   UNL     1       0.823   0.222   1.143  0.00  0.00    +0.016 C 
ENDBRANCH  37  39
ENDBRANCH  27  37
ENDBRANCH   1  31
TORSDOF 3
