REMARK  Name = ZINC67633217
REMARK  6 active torsions:
REMARK  status: ('A' for Active; 'I' for Inactive)
REMARK    1  A    between atoms: C_1  and  O_2
REMARK    2  A    between atoms: O_2  and  C_3
REMARK    3  A    between atoms: C_8  and  C_9
REMARK    4  A    between atoms: N_11  and  N_12
REMARK    5  A    between atoms: N_15  and  C_16
REMARK    6  A    between atoms: N_25  and  C_27
REMARK                            x       y       z     vdW  Elec       q    Type
REMARK                         _______ _______ _______ _____ _____    ______ ____
ROOT
ATOM      1  N   UNL     1       1.108  -4.931  -0.035  0.00  0.00    -0.218 N 
ATOM      2  C   UNL     1       1.047  -6.277  -0.042  0.00  0.00    +0.316 C 
ATOM      3  O   UNL     1       2.072  -6.932  -0.055  0.00  0.00    -0.251 OA
ATOM      4  N   UNL     1      -0.149  -6.898  -0.034  0.00  0.00    -0.295 N 
ATOM      5  H   UNL     1       1.968  -4.484  -0.041  0.00  0.00    +0.174 HD
ATOM      6  H   UNL     1      -0.966  -6.376  -0.023  0.00  0.00    +0.151 HD
ENDROOT
BRANCH   4   7
ATOM      7  C   UNL     1      -0.214  -8.358  -0.041  0.00  0.00    +0.077 C 
ATOM      8  C   UNL     1      -0.162  -8.889  -1.475  0.00  0.00    -0.007 C 
ATOM      9  C   UNL     1      -1.300  -8.298  -2.295  0.00  0.00    +0.003 C 
ATOM     10  C   UNL     1      -2.666  -8.539  -1.674  0.00  0.00    +0.001 C 
ATOM     11  C   UNL     1      -2.710  -8.246  -0.183  0.00  0.00    +0.003 C 
ATOM     12  C   UNL     1      -1.530  -8.838   0.575  0.00  0.00    -0.007 C 
ATOM     13  C   UNL     1      -1.568 -10.361   0.573  0.00  0.00    -0.073 C 
ATOM     14  N   UNL     1      -1.381 -10.936  -0.755  0.00  0.00    +0.382 N 
ATOM     15  C   UNL     1      -0.214 -10.412  -1.457  0.00  0.00    -0.073 C 
ATOM     16  H   UNL     1      -2.211 -10.808  -1.312  0.00  0.00    -0.081 HD
BRANCH  14  17
ATOM     17  C   UNL     1      -1.206 -12.386  -0.602  0.00  0.00    -0.069 C 
ATOM     18  C   UNL     1      -2.088 -13.299  -1.456  0.00  0.00    -0.017 C 
ATOM     19  C   UNL     1      -2.348 -13.171   0.046  0.00  0.00    -0.017 C 
ENDBRANCH  14  17
ENDBRANCH   4   7
BRANCH   1  22
ATOM     20  C   UNL     1      -0.013  -2.830  -0.013  0.00  0.00    +0.264 C 
ATOM     21  O   UNL     1       1.066  -2.270  -0.020  0.00  0.00    -0.269 OA
ATOM     22  N   UNL     1      -0.073  -4.177  -0.020  0.00  0.00    -0.229 N 
ATOM     23  H   UNL     1      -0.934  -4.624  -0.014  0.00  0.00    +0.173 HD
BRANCH  20  29
ATOM     24  C   UNL     1      -1.198  -0.636   0.010  0.00  0.00    +0.132 A 
ATOM     25  C   UNL     1      -2.373   0.100   0.019  0.00  0.00    +0.046 A 
ATOM     26  C   UNL     1      -3.594  -0.545   0.028  0.00  0.00    +0.004 A 
ATOM     27  C   UNL     1      -3.656  -1.929   0.027  0.00  0.00    +0.001 A 
ATOM     28  C   UNL     1      -2.498  -2.676   0.017  0.00  0.00    +0.017 A 
ATOM     29  C   UNL     1      -1.256  -2.037   0.003  0.00  0.00    +0.080 A 
BRANCH  24  31
ATOM     30  C   UNL     1      -0.017   1.425   0.010  0.00  0.00    +0.277 C 
ATOM     31  O   UNL     1       0.002  -0.004   0.002  0.00  0.00    -0.494 OA
ENDBRANCH  24  31
ENDBRANCH  20  29
ENDBRANCH   1  22
TORSDOF 5
