REMARK  Name = ZINC10430635
REMARK  11 active torsions:
REMARK  status: ('A' for Active; 'I' for Inactive)
REMARK    1  A    between atoms: C_1  and  C_2
REMARK    2  A    between atoms: C_2  and  N_3
REMARK    3  A    between atoms: N_3  and  C_4
REMARK    4  A    between atoms: N_3  and  C_21
REMARK    5  A    between atoms: C_4  and  C_5
REMARK    6  A    between atoms: N_7  and  C_8
REMARK    7  A    between atoms: C_13  and  O_14
REMARK    8  A    between atoms: O_14  and  C_15
REMARK    9  A    between atoms: C_22  and  N_37
REMARK   10  A    between atoms: N_23  and  C_30
REMARK   11  A    between atoms: C_30  and  C_31
REMARK                            x       y       z     vdW  Elec       q    Type
REMARK                         _______ _______ _______ _____ _____    ______ ____
ROOT
ATOM      1  N   UNL     1       1.790   4.766  -0.695  0.00  0.00    -0.315 N 
ENDROOT
BRANCH   1   2
ATOM      2  C   UNL     1       0.476   4.295  -0.928  0.00  0.00    +0.134 A 
ATOM      3  C   UNL     1      -0.507   5.154  -1.338  0.00  0.00    +0.127 A 
ATOM      4  N   UNL     1      -1.776   4.670  -1.558  0.00  0.00    -0.276 N 
ATOM      5  C   UNL     1      -2.048   3.365  -1.377  0.00  0.00    +0.331 A 
ATOM      6  O   UNL     1      -3.174   2.954  -1.582  0.00  0.00    -0.246 OA
ATOM      7  N   UNL     1      -1.095   2.508  -0.969  0.00  0.00    -0.273 N 
ATOM      8  H   UNL     1      -1.321   1.544  -0.833  0.00  0.00    +0.173 HD
ATOM      9  C   UNL     1       0.162   2.937  -0.741  0.00  0.00    +0.277 A 
ATOM     10  O   UNL     1       1.021   2.153  -0.376  0.00  0.00    -0.266 OA
BRANCH   3  11
ATOM     11  N   UNL     1      -0.229   6.488  -1.529  0.00  0.00    -0.343 N 
ATOM     12  H   UNL     1       0.667   6.824  -1.372  0.00  0.00    +0.144 HD
ATOM     13  H   UNL     1      -0.929   7.093  -1.820  0.00  0.00    +0.144 HD
ENDBRANCH   3  11
BRANCH   4  14
ATOM     14  C   UNL     1      -2.837   5.581  -1.998  0.00  0.00    +0.163 C 
BRANCH  14  15
ATOM     15  C   UNL     1      -2.865   5.629  -3.504  0.00  0.00    -0.028 A 
ATOM     16  C   UNL     1      -2.106   6.566  -4.180  0.00  0.00    +0.005 A 
ATOM     17  C   UNL     1      -2.128   6.607  -5.561  0.00  0.00    +0.000 A 
ATOM     18  C   UNL     1      -2.917   5.718  -6.267  0.00  0.00    +0.000 A 
ATOM     19  C   UNL     1      -3.680   4.785  -5.591  0.00  0.00    +0.000 A 
ATOM     20  C   UNL     1      -3.654   4.740  -4.210  0.00  0.00    +0.005 A 
ENDBRANCH  14  15
ENDBRANCH   4  14
ENDBRANCH   1   2
BRANCH   1  22
ATOM     21  C   UNL     1       1.504   5.542   1.610  0.00  0.00    +0.024 C 
ATOM     22  C   UNL     1       2.195   4.528   0.697  0.00  0.00    +0.102 C 
ENDBRANCH   1  22
BRANCH   1  23
ATOM     23  C   UNL     1       2.742   4.156  -1.633  0.00  0.00    +0.201 C 
BRANCH  23  24
ATOM     24  C   UNL     1       4.031   4.937  -1.619  0.00  0.00    +0.235 C 
ATOM     25  O   UNL     1       4.126   5.938  -0.940  0.00  0.00    -0.274 OA
ATOM     26  N   UNL     1       5.077   4.523  -2.361  0.00  0.00    -0.281 N 
ATOM     27  H   UNL     1       4.980   3.762  -2.954  0.00  0.00    +0.155 HD
BRANCH  26  28
ATOM     28  C   UNL     1       6.305   5.192  -2.274  0.00  0.00    +0.076 A 
ATOM     29  C   UNL     1       6.595   5.973  -1.165  0.00  0.00    +0.027 A 
ATOM     30  C   UNL     1       7.807   6.632  -1.082  0.00  0.00    +0.002 A 
ATOM     31  C   UNL     1       8.733   6.515  -2.103  0.00  0.00    +0.004 A 
ATOM     32  C   UNL     1       8.451   5.739  -3.211  0.00  0.00    +0.048 A 
ATOM     33  C   UNL     1       7.240   5.071  -3.300  0.00  0.00    +0.150 A 
BRANCH  33  34
ATOM     34  O   UNL     1       6.963   4.303  -4.387  0.00  0.00    -0.454 OA
BRANCH  34  35
ATOM     35  C   UNL     1       6.247   4.862  -5.398  0.00  0.00    +0.129 A 
ATOM     36  C   UNL     1       5.912   6.208  -5.350  0.00  0.00    +0.046 A 
ATOM     37  C   UNL     1       5.187   6.774  -6.381  0.00  0.00    +0.004 A 
ATOM     38  C   UNL     1       4.788   6.000  -7.454  0.00  0.00    +0.000 A 
ATOM     39  C   UNL     1       5.117   4.658  -7.502  0.00  0.00    +0.004 A 
ATOM     40  C   UNL     1       5.845   4.087  -6.476  0.00  0.00    +0.046 A 
ENDBRANCH  34  35
ENDBRANCH  33  34
ENDBRANCH  26  28
ENDBRANCH  23  24
ENDBRANCH   1  23
TORSDOF 10
