REMARK  Name = ZINC08424791
REMARK  3 active torsions:
REMARK  status: ('A' for Active; 'I' for Inactive)
REMARK    1  A    between atoms: C_5  and  N_7
REMARK    2  A    between atoms: N_7  and  C_8
REMARK    3  A    between atoms: N_15  and  C_18
REMARK                            x       y       z     vdW  Elec       q    Type
REMARK                         _______ _______ _______ _____ _____    ______ ____
ROOT
ATOM      1  C   UNL     1       0.082  -2.768  -0.067  0.00  0.00    +0.090 C 
ATOM      2  C   UNL     1       0.100  -4.148  -0.152  0.00  0.00    +0.113 C 
ATOM      3  C   UNL     1      -1.147  -4.930  -0.233  0.00  0.00    +0.258 C 
ATOM      4  O   UNL     1      -2.231  -4.379  -0.226  0.00  0.00    -0.270 OA
ATOM      5  N   UNL     1      -1.052  -6.273  -0.314  0.00  0.00    -0.235 N 
ATOM      6  C   UNL     1       0.136  -6.893  -0.323  0.00  0.00    +0.320 C 
ATOM      7  O   UNL     1       0.152  -8.106  -0.399  0.00  0.00    -0.251 OA
ATOM      8  N   UNL     1       1.308  -6.246  -0.254  0.00  0.00    -0.190 N 
ATOM      9  C   UNL     1       1.367  -4.901  -0.174  0.00  0.00    +0.265 C 
ATOM     10  O   UNL     1       2.437  -4.324  -0.116  0.00  0.00    -0.269 OA
ATOM     11  H   UNL     1      -1.863  -6.803  -0.367  0.00  0.00    +0.159 HD
ENDROOT
BRANCH   8  12
ATOM     12  C   UNL     1       2.500  -6.984  -0.271  0.00  0.00    +0.046 A 
ATOM     13  C   UNL     1       3.315  -7.014   0.853  0.00  0.00    +0.025 A 
ATOM     14  C   UNL     1       4.488  -7.742   0.834  0.00  0.00    +0.022 A 
ATOM     15  C   UNL     1       4.852  -8.441  -0.304  0.00  0.00    +0.041 A 
ATOM     16  C   UNL     1       4.041  -8.413  -1.425  0.00  0.00    +0.022 A 
ATOM     17  C   UNL     1       2.864  -7.690  -1.409  0.00  0.00    +0.025 A 
ATOM     18 CL   UNL     1       6.328  -9.355  -0.324  0.00  0.00    -0.084 Cl
ENDBRANCH   8  12
BRANCH   1  19
ATOM     19  N   UNL     1       1.236  -2.073  -0.134  0.00  0.00    -0.319 N 
ATOM     20  H   UNL     1       2.084  -2.543  -0.163  0.00  0.00    +0.152 HD
BRANCH  19  25
ATOM     21  C   UNL     1      -0.026   1.380  -0.147  0.00  0.00    +0.002 A 
ATOM     22  C   UNL     1       1.158   2.091  -0.214  0.00  0.00    +0.001 A 
ATOM     23  C   UNL     1       2.368   1.423  -0.256  0.00  0.00    +0.016 A 
ATOM     24  C   UNL     1       2.398   0.042  -0.229  0.00  0.00    +0.034 A 
ATOM     25  C   UNL     1       1.210  -0.675  -0.161  0.00  0.00    +0.044 A 
ATOM     26  C   UNL     1      -0.004  -0.001  -0.120  0.00  0.00    +0.024 A 
ATOM     27  I   UNL     1       4.232  -0.969  -0.293  0.00  0.00    -0.042 I 
ENDBRANCH  19  25
ENDBRANCH   1  19
TORSDOF 3
