REMARK  Name = ZINC18406160
REMARK  9 active torsions:
REMARK  status: ('A' for Active; 'I' for Inactive)
REMARK    1  A    between atoms: C_1  and  C_2
REMARK    2  A    between atoms: C_2  and  C_4
REMARK    3  A    between atoms: C_2  and  O_17
REMARK    4  A    between atoms: N_6  and  C_7
REMARK    5  A    between atoms: C_12  and  O_13
REMARK    6  A    between atoms: O_13  and  C_14
REMARK    7  A    between atoms: O_17  and  C_18
REMARK    8  A    between atoms: C_18  and  C_20
REMARK    9  A    between atoms: C_25  and  N_26
REMARK                            x       y       z     vdW  Elec       q    Type
REMARK                         _______ _______ _______ _____ _____    ______ ____
ROOT
ATOM      1  C   UNL     1       5.957  -2.254   1.345  0.00  0.00    +0.062 C 
ATOM      2  C   UNL     1       5.436  -2.119  -0.087  0.00  0.00    +0.259 C 
ENDROOT
BRANCH   2   3
ATOM      3  C   UNL     1       5.502  -3.458  -0.775  0.00  0.00    +0.258 C 
ATOM      4  O   UNL     1       4.489  -3.973  -1.200  0.00  0.00    -0.271 OA
ATOM      5  N   UNL     1       6.687  -4.085  -0.916  0.00  0.00    -0.280 N 
ATOM      6  H   UNL     1       7.489  -3.701  -0.529  0.00  0.00    +0.155 HD
BRANCH   5   7
ATOM      7  C   UNL     1       6.760  -5.293  -1.624  0.00  0.00    +0.076 A 
ATOM      8  C   UNL     1       5.644  -6.111  -1.720  0.00  0.00    +0.027 A 
ATOM      9  C   UNL     1       5.718  -7.299  -2.423  0.00  0.00    +0.002 A 
ATOM     10  C   UNL     1       6.905  -7.680  -3.022  0.00  0.00    +0.004 A 
ATOM     11  C   UNL     1       8.023  -6.872  -2.925  0.00  0.00    +0.048 A 
ATOM     12  C   UNL     1       7.956  -5.677  -2.227  0.00  0.00    +0.148 A 
BRANCH  12  13
ATOM     13  O   UNL     1       9.055  -4.882  -2.130  0.00  0.00    -0.432 OA
BRANCH  13  14
ATOM     14  C   UNL     1      10.245  -5.340  -2.774  0.00  0.00    +0.541 C 
ATOM     15  F   UNL     1      10.624  -6.572  -2.231  0.00  0.00    -0.166 F 
ATOM     16  F   UNL     1      10.008  -5.488  -4.144  0.00  0.00    -0.166 F 
ENDBRANCH  13  14
ENDBRANCH  12  13
ENDBRANCH   5   7
ENDBRANCH   2   3
BRANCH   2  17
ATOM     17  O   UNL     1       4.060  -1.656  -0.061  0.00  0.00    -0.449 OA
BRANCH  17  18
ATOM     18  C   UNL     1       3.863  -0.323  -0.081  0.00  0.00    +0.342 C 
ATOM     19  O   UNL     1       4.814   0.432  -0.120  0.00  0.00    -0.245 OA
BRANCH  18  20
ATOM     20  C   UNL     1       2.493   0.219  -0.056  0.00  0.00    +0.081 A 
ATOM     21  C   UNL     1       1.394  -0.642  -0.132  0.00  0.00    +0.017 A 
ATOM     22  C   UNL     1       0.117  -0.129  -0.109  0.00  0.00    +0.002 A 
ATOM     23  C   UNL     1      -0.088   1.238  -0.010  0.00  0.00    +0.022 A 
ATOM     24  C   UNL     1       0.986   2.102   0.066  0.00  0.00    +0.062 A 
ATOM     25  C   UNL     1       2.283   1.603   0.043  0.00  0.00    +0.057 A 
ATOM     26 CL   UNL     1       0.716   3.813   0.189  0.00  0.00    -0.082 Cl
BRANCH  25  27
ATOM     27  N   UNL     1       3.366   2.470   0.120  0.00  0.00    -0.356 N 
ATOM     28  H   UNL     1       4.267   2.116   0.186  0.00  0.00    +0.142 HD
ATOM     29  H   UNL     1       3.221   3.429   0.107  0.00  0.00    +0.142 HD
ENDBRANCH  25  27
ENDBRANCH  18  20
ENDBRANCH  17  18
ENDBRANCH   2  17
TORSDOF 8
