REMARK  Name = ZINC41990153
REMARK  5 active torsions:
REMARK  status: ('A' for Active; 'I' for Inactive)
REMARK    1  A    between atoms: C_1  and  C_2
REMARK    2  A    between atoms: C_2  and  C_3
REMARK    3  A    between atoms: C_2  and  C_10
REMARK    4  A    between atoms: C_2  and  S_13
REMARK    5  A    between atoms: S_13  and  C_14
REMARK                            x       y       z     vdW  Elec       q    Type
REMARK                         _______ _______ _______ _____ _____    ______ ____
ROOT
ATOM      1  C   UNL     1      -0.019   1.526   0.010  0.00  0.00    +0.040 C 
ATOM      2  C   UNL     1       0.002  -0.004   0.002  0.00  0.00    +0.146 C 
ENDROOT
BRANCH   2   3
ATOM      3  C   UNL     1       0.731  -0.503   1.223  0.00  0.00    -0.020 A 
ATOM      4  C   UNL     1       1.248   0.397   2.136  0.00  0.00    +0.006 A 
ATOM      5  C   UNL     1       1.916  -0.060   3.256  0.00  0.00    +0.015 A 
ATOM      6  C   UNL     1       2.067  -1.419   3.463  0.00  0.00    +0.018 A 
ATOM      7  C   UNL     1       1.550  -2.320   2.550  0.00  0.00    +0.015 A 
ATOM      8  C   UNL     1       0.878  -1.862   1.433  0.00  0.00    +0.006 A 
ATOM      9 BR   UNL     1       2.982  -2.046   4.995  0.00  0.00    -0.050 Br
ENDBRANCH   2   3
BRANCH   2  10
ATOM     10  C   UNL     1      -1.412  -0.526   0.013  0.00  0.00    +0.376 C 
ATOM     11  O   UNL     1      -1.810  -1.227  -0.902  0.00  0.00    -0.244 OA
ATOM     12  O   UNL     1      -2.158  -0.246   0.936  0.00  0.00    -0.244 OA
ENDBRANCH   2  10
BRANCH   2  13
ATOM     13  S   UNL     1       0.851  -0.589  -1.490  0.00  0.00    -0.076 S 
BRANCH  13  14
ATOM     14  C   UNL     1      -0.109   0.069  -2.813  0.00  0.00    +0.136 A 
ATOM     15  N   UNL     1      -1.190   0.819  -2.745  0.00  0.00    -0.241 NA
ATOM     16  C   UNL     1      -1.800   1.235  -3.841  0.00  0.00    +0.120 A 
ATOM     17  C   UNL     1      -1.264   0.857  -5.026  0.00  0.00    +0.067 A 
ATOM     18  S   UNL     1       0.136  -0.101  -4.469  0.00  0.00    -0.069 S 
ENDBRANCH  13  14
ENDBRANCH   2  13
TORSDOF 4
