REMARK  Name = ZINC35453628
REMARK  3 active torsions:
REMARK  status: ('A' for Active; 'I' for Inactive)
REMARK    1  A    between atoms: C_4  and  S_8
REMARK    2  A    between atoms: S_8  and  C_9
REMARK    3  A    between atoms: C_14  and  N_15
REMARK                            x       y       z     vdW  Elec       q    Type
REMARK                         _______ _______ _______ _____ _____    ______ ____
ROOT
ATOM      1  C   UNL     1      -5.192   0.319  -0.009  0.00  0.00    +0.038 A 
ATOM      2  C   UNL     1      -4.917   1.675  -0.105  0.00  0.00    +0.044 A 
ATOM      3  C   UNL     1      -5.956   2.590  -0.126  0.00  0.00    +0.077 A 
ATOM      4  C   UNL     1      -7.277   2.151  -0.050  0.00  0.00    +0.144 A 
ATOM      5  C   UNL     1      -7.553   0.798   0.045  0.00  0.00    +0.071 A 
ATOM      6  C   UNL     1      -6.513  -0.121   0.060  0.00  0.00    +0.042 A 
ATOM      7  O   UNL     1      -8.287   3.063  -0.069  0.00  0.00    -0.481 OA
ATOM      8  C   UNL     1      -8.020   4.330   0.538  0.00  0.00    +0.325 C 
ATOM      9  C   UNL     1      -6.680   4.842   0.074  0.00  0.00    +0.255 C 
ATOM     10  O   UNL     1      -6.487   6.035  -0.030  0.00  0.00    -0.272 OA
ATOM     11  N   UNL     1      -5.695   3.967  -0.223  0.00  0.00    -0.280 N 
ATOM     12  H   UNL     1      -4.822   4.284  -0.500  0.00  0.00    +0.155 HD
ENDROOT
BRANCH   6  13
ATOM     13  N   UNL     1      -6.792  -1.491   0.151  0.00  0.00    -0.357 N 
ATOM     14  H   UNL     1      -6.065  -2.133   0.166  0.00  0.00    +0.142 HD
ATOM     15  H   UNL     1      -7.711  -1.797   0.200  0.00  0.00    +0.142 HD
ENDBRANCH   6  13
BRANCH   1  16
ATOM     16  S   UNL     1      -3.873  -0.849   0.017  0.00  0.00    -0.050 S 
BRANCH  16  20
ATOM     17  C   UNL     1      -3.637  -2.064   4.306  0.00  0.00    +0.090 A 
ATOM     18  C   UNL     1      -4.484  -1.078   3.888  0.00  0.00    +0.119 A 
ATOM     19  N   UNL     1      -4.531  -0.739   2.603  0.00  0.00    -0.231 NA
ATOM     20  C   UNL     1      -3.770  -1.338   1.707  0.00  0.00    +0.174 A 
ATOM     21  N   UNL     1      -2.905  -2.328   2.066  0.00  0.00    -0.302 N 
ATOM     22  C   UNL     1      -2.822  -2.708   3.359  0.00  0.00    +0.252 A 
ATOM     23  O   UNL     1      -2.049  -3.589   3.699  0.00  0.00    -0.268 OA
ATOM     24  H   UNL     1      -2.353  -2.759   1.395  0.00  0.00    +0.171 HD
ENDBRANCH  16  20
ENDBRANCH   1  16
TORSDOF 3
