REMARK  Name = ZINC16082817
REMARK  4 active torsions:
REMARK  status: ('A' for Active; 'I' for Inactive)
REMARK    1  A    between atoms: C_1  and  C_15
REMARK    2  A    between atoms: C_3  and  C_10
REMARK    3  A    between atoms: N_11  and  O_12
REMARK    4  A    between atoms: N_16  and  O_17
REMARK                            x       y       z     vdW  Elec       q    Type
REMARK                         _______ _______ _______ _____ _____    ______ ____
ROOT
ATOM      1  C   UNL     1      -0.017   1.394   0.010  0.00  0.00    +0.092 A 
ATOM      2  C   UNL     1       1.183   2.105   0.002  0.00  0.00    +0.150 A 
ATOM      3  C   UNL     1       2.396   1.416  -0.013  0.00  0.00    +0.092 A 
ATOM      4  C   UNL     1       2.403   0.018  -0.021  0.00  0.00    +0.175 A 
ATOM      5  C   UNL     1       1.209  -0.682  -0.014  0.00  0.00    +0.195 A 
ATOM      6  C   UNL     1       0.002  -0.004   0.002  0.00  0.00    +0.175 A 
ATOM      7  F   UNL     1      -1.159  -0.694   0.010  0.00  0.00    -0.202 F 
ATOM      8  F   UNL     1       1.221  -2.033  -0.022  0.00  0.00    -0.199 F 
ATOM      9  F   UNL     1       3.577  -0.650  -0.036  0.00  0.00    -0.202 F 
ATOM     10  F   UNL     1       1.171   3.456   0.009  0.00  0.00    -0.204 F 
ENDROOT
BRANCH   3  11
ATOM     11  C   UNL     1       3.672   2.163  -0.022  0.00  0.00    +0.168 C 
ATOM     12  N   UNL     1       4.245   2.486   1.101  0.00  0.00    -0.071 NA
ATOM     13  N   UNL     1       4.258   2.519  -1.225  0.00  0.00    -0.340 N 
ATOM     14  H   UNL     1       3.831   2.278  -2.062  0.00  0.00    +0.144 HD
ATOM     15  H   UNL     1       5.095   3.009  -1.231  0.00  0.00    +0.144 HD
BRANCH  12  16
ATOM     16  O   UNL     1       5.467   3.201   1.093  0.00  0.00    -0.408 OA
ATOM     17  H   UNL     1       5.815   3.396   1.974  0.00  0.00    +0.328 HD
ENDBRANCH  12  16
ENDBRANCH   3  11
BRANCH   1  18
ATOM     18  C   UNL     1      -1.306   2.117   0.032  0.00  0.00    +0.168 C 
ATOM     19  N   UNL     1      -1.858   2.430   1.169  0.00  0.00    -0.071 NA
ATOM     20  N   UNL     1      -1.927   2.462  -1.157  0.00  0.00    -0.340 N 
ATOM     21  H   UNL     1      -1.516   2.229  -2.004  0.00  0.00    +0.144 HD
ATOM     22  H   UNL     1      -2.773   2.937  -1.142  0.00  0.00    +0.144 HD
BRANCH  19  23
ATOM     23  O   UNL     1      -1.223   2.077   2.384  0.00  0.00    -0.408 OA
ATOM     24  H   UNL     1      -1.707   2.351   3.175  0.00  0.00    +0.328 HD
ENDBRANCH  19  23
ENDBRANCH   1  18
TORSDOF 4
