REMARK  Name = ZINC05035786
REMARK  4 active torsions:
REMARK  status: ('A' for Active; 'I' for Inactive)
REMARK    1  A    between atoms: C_3  and  C_6
REMARK    2  A    between atoms: C_6  and  N_7
REMARK    3  A    between atoms: N_7  and  S_8
REMARK    4  A    between atoms: S_8  and  C_11
REMARK                            x       y       z     vdW  Elec       q    Type
REMARK                         _______ _______ _______ _____ _____    ______ ____
ROOT
ATOM      1  C   UNL     1       3.736   2.793   0.107  0.00  0.00    +0.107 A 
ATOM      2  C   UNL     1       3.470   1.665   0.862  0.00  0.00    +0.030 A 
ATOM      3  C   UNL     1       2.222   1.083   0.809  0.00  0.00    +0.027 A 
ATOM      4  C   UNL     1       1.218   1.619  -0.001  0.00  0.00    +0.055 A 
ATOM      5  C   UNL     1       1.485   2.748  -0.757  0.00  0.00    +0.057 A 
ATOM      6  C   UNL     1       2.753   3.330  -0.695  0.00  0.00    +0.053 A 
ATOM      7  N   UNL     1       0.555   3.356  -1.595  0.00  0.00    -0.284 N 
ATOM      8  C   UNL     1      -0.732   3.548  -1.314  0.00  0.00    +0.226 C 
ATOM      9  O   UNL     1      -1.436   4.127  -2.115  0.00  0.00    -0.275 OA
ATOM     10  C   UNL     1      -1.330   3.059  -0.021  0.00  0.00    +0.192 C 
ATOM     11  C   UNL     1      -1.203   1.558   0.017  0.00  0.00    +0.226 C 
ATOM     12  O   UNL     1      -2.206   0.877   0.059  0.00  0.00    -0.275 OA
ATOM     13  N   UNL     1      -0.011   0.966   0.007  0.00  0.00    -0.284 N 
ATOM     14  H   UNL     1       0.871   3.666  -2.458  0.00  0.00    +0.155 HD
ATOM     15  H   UNL     1       0.002  -0.004   0.002  0.00  0.00    +0.155 HD
ENDROOT
BRANCH   1  16
ATOM     16  S   UNL     1       5.330   3.541   0.171  0.00  0.00    +0.059 S 
ATOM     17  O   UNL     1       5.157   4.900  -0.208  0.00  0.00    -0.153 OA
ATOM     18  O   UNL     1       5.906   3.165   1.414  0.00  0.00    -0.153 OA
BRANCH  16  19
ATOM     19  N   UNL     1       6.251   2.834  -1.011  0.00  0.00    -0.183 NA
ATOM     20  H   UNL     1       7.025   2.302  -0.769  0.00  0.00    +0.148 HD
BRANCH  19  21
ATOM     21  C   UNL     1       5.896   3.013  -2.421  0.00  0.00    +0.180 C 
BRANCH  21  24
ATOM     22  C   UNL     1       8.474   1.431  -4.527  0.00  0.00    +0.041 A 
ATOM     23  C   UNL     1       7.280   1.367  -3.772  0.00  0.00    +0.046 A 
ATOM     24  C   UNL     1       7.059   2.602  -3.287  0.00  0.00    +0.120 A 
ATOM     25  O   UNL     1       8.046   3.408  -3.711  0.00  0.00    -0.466 OA
ATOM     26  C   UNL     1       8.911   2.701  -4.458  0.00  0.00    +0.195 A 
ENDBRANCH  21  24
ENDBRANCH  19  21
ENDBRANCH  16  19
ENDBRANCH   1  16
TORSDOF 4
