REMARK  Name = ZINC40681490
REMARK  6 active torsions:
REMARK  status: ('A' for Active; 'I' for Inactive)
REMARK    1  A    between atoms: C_1  and  C_2
REMARK    2  A    between atoms: C_13  and  N_27
REMARK    3  A    between atoms: C_14  and  O_18
REMARK    4  A    between atoms: O_18  and  C_19
REMARK    5  A    between atoms: C_21  and  C_26
REMARK    6  A    between atoms: C_23  and  C_25
REMARK                            x       y       z     vdW  Elec       q    Type
REMARK                         _______ _______ _______ _____ _____    ______ ____
ROOT
ATOM      1  C   UNL     1      -0.318   1.495   0.044  0.00  0.00    +0.044 C 
ATOM      2  C   UNL     1      -0.260  -0.011   0.032  0.00  0.00    -0.049 A 
ATOM      3  C   UNL     1      -0.266  -0.702  -1.171  0.00  0.00    +0.005 A 
ATOM      4  C   UNL     1      -0.214  -2.071  -1.210  0.00  0.00    +0.029 A 
ATOM      5  C   UNL     1      -0.153  -2.826  -0.016  0.00  0.00    +0.080 A 
ATOM      6  C   UNL     1      -0.149  -2.089   1.189  0.00  0.00    +0.041 A 
ATOM      7  C   UNL     1      -0.196  -0.717   1.219  0.00  0.00    +0.020 A 
ATOM      8  S   UNL     1      -0.066  -3.370   2.417  0.00  0.00    -0.052 S 
ATOM      9  C   UNL     1      -0.043  -4.758   1.292  0.00  0.00    +0.165 A 
ATOM     10  N   UNL     1      -0.097  -4.169   0.119  0.00  0.00    -0.225 NA
ATOM     11  N   UNL     1       0.018  -6.108   1.582  0.00  0.00    -0.277 N 
ATOM     12  C   UNL     1       0.026  -7.042   0.551  0.00  0.00    +0.152 A 
ATOM     13  C   UNL     1       0.082  -8.409   0.831  0.00  0.00    +0.128 A 
ATOM     14  C   UNL     1       0.087  -9.302  -0.240  0.00  0.00    +0.246 A 
ATOM     15  N   UNL     1       0.040  -8.822  -1.479  0.00  0.00    -0.199 NA
ATOM     16  C   UNL     1      -0.011  -7.524  -1.702  0.00  0.00    +0.227 A 
ATOM     17  N   UNL     1      -0.024  -6.646  -0.719  0.00  0.00    -0.218 NA
ATOM     18  H   UNL     1       0.055  -6.405   2.505  0.00  0.00    +0.156 HD
ENDROOT
BRANCH  13  19
ATOM     19  N   UNL     1       0.130  -8.872   2.155  0.00  0.00    -0.351 N 
ATOM     20  H   UNL     1       0.126  -8.239   2.890  0.00  0.00    +0.143 HD
ATOM     21  H   UNL     1       0.169  -9.824   2.335  0.00  0.00    +0.143 HD
ENDBRANCH  13  19
BRANCH  14  22
ATOM     22  O   UNL     1       0.141 -10.639  -0.021  0.00  0.00    -0.436 OA
BRANCH  22  23
ATOM     23  C   UNL     1       0.042 -11.466  -1.095  0.00  0.00    +0.131 A 
ATOM     24  C   UNL     1       1.133 -11.650  -1.933  0.00  0.00    +0.049 A 
ATOM     25  C   UNL     1       1.031 -12.491  -3.024  0.00  0.00    -0.047 A 
ATOM     26  C   UNL     1      -0.158 -13.148  -3.283  0.00  0.00    +0.007 A 
ATOM     27  C   UNL     1      -1.247 -12.966  -2.450  0.00  0.00    -0.047 A 
ATOM     28  C   UNL     1      -1.147 -12.132  -1.354  0.00  0.00    +0.049 A 
ATOM     29  C   UNL     1      -2.541 -13.683  -2.735  0.00  0.00    +0.044 C 
ATOM     30  C   UNL     1       2.215 -12.691  -3.934  0.00  0.00    +0.044 C 
ENDBRANCH  22  23
ENDBRANCH  14  22
TORSDOF 3
