REMARK  Name = ZINC40364942
REMARK  4 active torsions:
REMARK  status: ('A' for Active; 'I' for Inactive)
REMARK    1  A    between atoms: C_3  and  S_8
REMARK    2  A    between atoms: S_8  and  N_11
REMARK    3  A    between atoms: N_11  and  C_12
REMARK    4  A    between atoms: C_12  and  C_19
REMARK                            x       y       z     vdW  Elec       q    Type
REMARK                         _______ _______ _______ _____ _____    ______ ____
ROOT
ATOM      1  N   UNL     1       4.267   2.593   1.437  0.00  0.00    -0.170 NA
ATOM      2  H   UNL     1       3.507   2.609   0.834  0.00  0.00    +0.150 HD
ENDROOT
BRANCH   1   3
ATOM      3  C   UNL     1       4.488   1.436   2.307  0.00  0.00    +0.126 C 
ATOM      4  C   UNL     1       3.331   0.435   2.111  0.00  0.00    +0.039 C 
ATOM      5  C   UNL     1       3.787  -0.921   2.577  0.00  0.00    +0.003 C 
ATOM      6  C   UNL     1       3.401  -1.202   4.042  0.00  0.00    +0.000 C 
ATOM      7  C   UNL     1       3.612   0.018   4.959  0.00  0.00    +0.000 C 
ATOM      8  C   UNL     1       4.897   0.744   4.665  0.00  0.00    +0.003 C 
ATOM      9  C   UNL     1       4.596   1.895   3.684  0.00  0.00    +0.039 C 
BRANCH   3  10
ATOM     10  C   UNL     1       5.750   0.784   1.921  0.00  0.00    +0.086 C 
ATOM     11  N   UNL     1       6.724   0.281   1.623  0.00  0.00    -0.195 NA
ENDBRANCH   3  10
ENDBRANCH   1   3
BRANCH   1  12
ATOM     12  S   UNL     1       5.315   3.875   1.482  0.00  0.00    +0.060 S 
ATOM     13  O   UNL     1       5.404   4.279   2.841  0.00  0.00    -0.153 OA
ATOM     14  O   UNL     1       4.914   4.763   0.447  0.00  0.00    -0.153 OA
BRANCH  12  17
ATOM     15  C   UNL     1       8.505   2.689  -0.653  0.00  0.00    +0.003 A 
ATOM     16  C   UNL     1       7.258   3.168  -0.300  0.00  0.00    +0.028 A 
ATOM     17  C   UNL     1       6.905   3.264   1.033  0.00  0.00    +0.106 A 
ATOM     18  C   UNL     1       7.800   2.880   2.014  0.00  0.00    +0.043 A 
ATOM     19  C   UNL     1       9.048   2.400   1.661  0.00  0.00    +0.020 A 
ATOM     20  C   UNL     1       9.401   2.305   0.327  0.00  0.00    +0.015 A 
ATOM     21 BR   UNL     1      10.274   1.876   3.003  0.00  0.00    -0.050 Br
ENDBRANCH  12  17
ENDBRANCH   1  12
TORSDOF 4
