REMARK  Name = ZINC16328460
REMARK  9 active torsions:
REMARK  status: ('A' for Active; 'I' for Inactive)
REMARK    1  A    between atoms: C_1  and  C_2
REMARK    2  A    between atoms: C_4  and  C_27
REMARK    3  A    between atoms: C_5  and  N_9
REMARK    4  A    between atoms: C_13  and  S_15
REMARK    5  A    between atoms: S_15  and  C_16
REMARK    6  A    between atoms: C_16  and  C_18
REMARK    7  A    between atoms: C_16  and  C_21
REMARK    8  A    between atoms: C_18  and  C_19
REMARK    9  A    between atoms: C_18  and  C_20
REMARK                            x       y       z     vdW  Elec       q    Type
REMARK                         _______ _______ _______ _____ _____    ______ ____
ROOT
ATOM      1  N   UNL     1      -8.862  -0.887   1.180  0.00  0.00    -0.291 N 
ATOM      2  C   UNL     1      -8.111  -0.647   2.325  0.00  0.00    +0.187 A 
ATOM      3  N   UNL     1      -7.554  -1.509   3.154  0.00  0.00    -0.125 NA
ATOM      4  N   UNL     1      -6.839  -1.052   4.237  0.00  0.00    -0.133 NA
ATOM      5  C   UNL     1      -6.723   0.245   4.447  0.00  0.00    +0.161 A 
ATOM      6  S   UNL     1      -7.641   0.909   3.066  0.00  0.00    -0.024 S 
ATOM      7  H   UNL     1      -9.148  -0.145   0.623  0.00  0.00    +0.154 HD
ENDROOT
BRANCH   1  12
ATOM      8  C   UNL     1     -10.261  -6.199  -0.235  0.00  0.00    +0.044 C 
ATOM      9  C   UNL     1      -9.889  -4.788   0.141  0.00  0.00    -0.049 A 
ATOM     10  C   UNL     1     -10.767  -4.016   0.879  0.00  0.00    +0.008 A 
ATOM     11  C   UNL     1     -10.428  -2.724   1.230  0.00  0.00    -0.028 A 
ATOM     12  C   UNL     1      -9.207  -2.196   0.831  0.00  0.00    +0.054 A 
ATOM     13  C   UNL     1      -8.326  -2.974   0.089  0.00  0.00    +0.063 A 
ATOM     14  C   UNL     1      -8.670  -4.268  -0.254  0.00  0.00    +0.025 A 
ATOM     15 CL   UNL     1      -6.796  -2.321  -0.407  0.00  0.00    -0.082 Cl
ATOM     16  C   UNL     1     -11.384  -1.887   2.040  0.00  0.00    +0.046 C 
ENDBRANCH   1  12
BRANCH   5  17
ATOM     17  S   UNL     1      -5.880   1.096   5.739  0.00  0.00    -0.084 S 
BRANCH  17  18
ATOM     18  C   UNL     1      -5.189  -0.233   6.763  0.00  0.00    +0.142 C 
BRANCH  18  19
ATOM     19  C   UNL     1      -4.538   0.361   7.985  0.00  0.00    +0.234 C 
ATOM     20  O   UNL     1      -4.213   1.529   7.992  0.00  0.00    -0.274 OA
ATOM     21  N   UNL     1      -4.318  -0.406   9.071  0.00  0.00    -0.239 N 
ATOM     22  C   UNL     1      -3.730   0.124  10.162  0.00  0.00    +0.303 C 
ATOM     23  O   UNL     1      -3.404   1.294  10.169  0.00  0.00    -0.253 OA
ATOM     24  N   UNL     1      -3.505  -0.645  11.246  0.00  0.00    -0.313 N 
ATOM     25  H   UNL     1      -4.578  -1.340   9.066  0.00  0.00    +0.159 HD
ATOM     26  H   UNL     1      -3.765  -1.579  11.241  0.00  0.00    +0.146 HD
ATOM     27  H   UNL     1      -3.082  -0.264  12.031  0.00  0.00    +0.146 HD
ENDBRANCH  18  19
BRANCH  18  28
ATOM     28  C   UNL     1      -4.147  -1.009   5.955  0.00  0.00    +0.005 C 
ATOM     29  C   UNL     1      -2.966  -0.091   5.633  0.00  0.00    +0.009 C 
ATOM     30  C   UNL     1      -3.655  -2.205   6.773  0.00  0.00    +0.009 C 
ENDBRANCH  18  28
ENDBRANCH  17  18
ENDBRANCH   5  17
TORSDOF 5
