REMARK  Name = ZINC40783373
REMARK  7 active torsions:
REMARK  status: ('A' for Active; 'I' for Inactive)
REMARK    1  A    between atoms: C_1  and  C_2
REMARK    2  A    between atoms: C_5  and  S_8
REMARK    3  A    between atoms: S_8  and  C_9
REMARK    4  A    between atoms: C_10  and  N_27
REMARK    5  A    between atoms: C_11  and  N_15
REMARK    6  A    between atoms: C_21  and  O_25
REMARK    7  A    between atoms: O_25  and  C_26
REMARK                            x       y       z     vdW  Elec       q    Type
REMARK                         _______ _______ _______ _____ _____    ______ ____
ROOT
ATOM      1  C   UNL     1       0.227  -4.966   1.677  0.00  0.00    +0.127 A 
ATOM      2  C   UNL     1       0.392  -6.301   2.056  0.00  0.00    +0.098 A 
ATOM      3  C   UNL     1       0.517  -6.588   3.416  0.00  0.00    +0.150 A 
ATOM      4  N   UNL     1       0.475  -5.588   4.293  0.00  0.00    -0.219 NA
ATOM      5  C   UNL     1       0.318  -4.343   3.894  0.00  0.00    +0.224 A 
ATOM      6  N   UNL     1       0.201  -4.027   2.620  0.00  0.00    -0.227 NA
ENDROOT
BRANCH   3   7
ATOM      7  N   UNL     1       0.683  -7.901   3.848  0.00  0.00    -0.277 N 
ATOM      8  C   UNL     1       0.806  -8.174   5.198  0.00  0.00    +0.165 A 
ATOM      9  N   UNL     1       0.785  -7.340   6.212  0.00  0.00    -0.225 NA
ATOM     10  C   UNL     1       0.918  -7.752   7.493  0.00  0.00    +0.081 A 
ATOM     11  C   UNL     1       0.914  -6.963   8.667  0.00  0.00    +0.032 A 
ATOM     12  C   UNL     1       1.062  -7.540   9.900  0.00  0.00    +0.048 A 
ATOM     13  C   UNL     1       1.221  -8.915  10.044  0.00  0.00    +0.121 A 
ATOM     14  C   UNL     1       1.229  -9.717   8.913  0.00  0.00    +0.063 A 
ATOM     15  C   UNL     1       1.081  -9.143   7.675  0.00  0.00    +0.044 A 
ATOM     16  S   UNL     1       1.026  -9.752   6.007  0.00  0.00    -0.052 S 
ATOM     17  H   UNL     1       0.712  -8.624   3.203  0.00  0.00    +0.156 HD
BRANCH  13  18
ATOM     18  O   UNL     1       1.368  -9.466  11.279  0.00  0.00    -0.495 OA
ATOM     19  C   UNL     1       1.349  -8.572  12.394  0.00  0.00    +0.277 C 
ENDBRANCH  13  18
ENDBRANCH   3   7
BRANCH   2  20
ATOM     20  N   UNL     1       0.430  -7.324   1.097  0.00  0.00    -0.353 N 
ATOM     21  H   UNL     1       0.341  -7.109   0.155  0.00  0.00    +0.142 HD
ATOM     22  H   UNL     1       0.545  -8.246   1.375  0.00  0.00    +0.142 HD
ENDBRANCH   2  20
BRANCH   1  23
ATOM     23  S   UNL     1       0.063  -4.533  -0.023  0.00  0.00    -0.068 S 
BRANCH  23  28
ATOM     24  C   UNL     1      -0.036   1.502   0.010  0.00  0.00    +0.044 C 
ATOM     25  C   UNL     1      -0.011  -0.004   0.002  0.00  0.00    -0.050 A 
ATOM     26  C   UNL     1       1.199  -0.674  -0.007  0.00  0.00    +0.004 A 
ATOM     27  C   UNL     1       1.225  -2.055  -0.015  0.00  0.00    +0.015 A 
ATOM     28  C   UNL     1       0.035  -2.771  -0.013  0.00  0.00    +0.014 A 
ATOM     29  C   UNL     1      -1.179  -2.094  -0.003  0.00  0.00    +0.015 A 
ATOM     30  C   UNL     1      -1.198  -0.714   0.009  0.00  0.00    +0.004 A 
ENDBRANCH  23  28
ENDBRANCH   1  23
TORSDOF 5
