REMARK  Name = ZINC08790473
REMARK  10 active torsions:
REMARK  status: ('A' for Active; 'I' for Inactive)
REMARK    1  A    between atoms: C_1  and  C_2
REMARK    2  A    between atoms: C_13  and  C_15
REMARK    3  A    between atoms: C_15  and  C_16
REMARK    4  A    between atoms: N_21  and  C_24
REMARK    5  A    between atoms: C_24  and  C_25
REMARK    6  A    between atoms: C_25  and  C_26
REMARK    7  A    between atoms: C_29  and  O_34
REMARK    8  A    between atoms: C_30  and  O_32
REMARK    9  A    between atoms: O_32  and  C_33
REMARK   10  A    between atoms: O_34  and  C_35
REMARK                            x       y       z     vdW  Elec       q    Type
REMARK                         _______ _______ _______ _____ _____    ______ ____
ROOT
ATOM      1  C   UNL     1     -10.820   9.471  -1.571  0.00  0.00    +0.044 C 
ATOM      2  C   UNL     1      -9.402   9.559  -2.075  0.00  0.00    -0.050 A 
ATOM      3  C   UNL     1      -8.900  10.766  -2.525  0.00  0.00    +0.005 A 
ATOM      4  C   UNL     1      -7.604  10.852  -2.987  0.00  0.00    +0.024 A 
ATOM      5  C   UNL     1      -6.789   9.722  -3.004  0.00  0.00    +0.036 A 
ATOM      6  C   UNL     1      -7.306   8.512  -2.549  0.00  0.00    -0.027 A 
ATOM      7  C   UNL     1      -8.601   8.431  -2.088  0.00  0.00    +0.008 A 
ATOM      8  C   UNL     1      -6.196   7.510  -2.697  0.00  0.00    +0.050 C 
ATOM      9  C   UNL     1      -5.831   6.873  -1.350  0.00  0.00    +0.088 C 
ATOM     10  C   UNL     1      -6.589   5.516  -1.343  0.00  0.00    +0.073 C 
ATOM     11  C   UNL     1      -7.344   5.476  -2.687  0.00  0.00    -0.049 C 
ATOM     12  C   UNL     1      -5.475   4.494  -1.369  0.00  0.00    +0.224 C 
ATOM     13  O   UNL     1      -5.628   3.292  -1.382  0.00  0.00    -0.275 OA
ATOM     14  N   UNL     1      -4.294   5.123  -1.371  0.00  0.00    -0.241 N 
ATOM     15  C   UNL     1      -4.376   6.458  -1.364  0.00  0.00    +0.225 C 
ATOM     16  O   UNL     1      -3.432   7.218  -1.367  0.00  0.00    -0.275 OA
ATOM     17  C   UNL     1      -5.042   8.286  -3.270  0.00  0.00    +0.211 C 
ATOM     18  O   UNL     1      -3.944   7.852  -3.546  0.00  0.00    -0.277 OA
ATOM     19  N   UNL     1      -5.466   9.556  -3.418  0.00  0.00    -0.286 N 
ATOM     20  H   UNL     1      -4.915  10.273  -3.771  0.00  0.00    +0.155 HD
ATOM     21  N   UNL     1      -6.595   6.399  -3.543  0.00  0.00    +0.394 N 
ATOM     22  H   UNL     1      -5.767   5.932  -3.929  0.00  0.00    -0.083 HD
ATOM     23  H   UNL     1      -7.190   6.733  -4.310  0.00  0.00    -0.083 HD
ENDROOT
BRANCH  11  24
ATOM     24  C   UNL     1      -7.341   4.056  -3.257  0.00  0.00    +0.080 C 
BRANCH  24  25
ATOM     25  C   UNL     1      -8.186   4.013  -4.505  0.00  0.00    +0.209 C 
ATOM     26  O   UNL     1      -8.736   5.020  -4.899  0.00  0.00    -0.276 OA
ATOM     27  N   UNL     1      -8.330   2.857  -5.182  0.00  0.00    -0.329 N 
ATOM     28  H   UNL     1      -7.889   2.052  -4.867  0.00  0.00    +0.145 HD
ATOM     29  H   UNL     1      -8.873   2.830  -5.985  0.00  0.00    +0.145 HD
ENDBRANCH  24  25
ENDBRANCH  11  24
BRANCH  14  30
ATOM     30  C   UNL     1      -3.016   4.408  -1.387  0.00  0.00    +0.121 C 
BRANCH  30  31
ATOM     31  C   UNL     1      -2.557   4.152   0.049  0.00  0.00    +0.054 C 
BRANCH  31  32
ATOM     32  C   UNL     1      -1.242   3.416   0.033  0.00  0.00    -0.042 A 
ATOM     33  C   UNL     1      -0.055   4.125   0.025  0.00  0.00    +0.007 A 
ATOM     34  C   UNL     1       1.154   3.455   0.010  0.00  0.00    +0.049 A 
ATOM     35  C   UNL     1       1.178   2.069   0.002  0.00  0.00    +0.161 A 
ATOM     36  C   UNL     1      -0.016   1.356   0.009  0.00  0.00    +0.162 A 
ATOM     37  C   UNL     1      -1.225   2.034   0.019  0.00  0.00    +0.053 A 
BRANCH  36  38
ATOM     38  O   UNL     1       0.002  -0.004   0.002  0.00  0.00    -0.491 OA
ATOM     39  C   UNL     1      -1.262  -0.670   0.011  0.00  0.00    +0.277 C 
ENDBRANCH  36  38
BRANCH  35  40
ATOM     40  O   UNL     1       2.367   1.409  -0.013  0.00  0.00    -0.491 OA
ATOM     41  C   UNL     1       3.552   2.206  -0.021  0.00  0.00    +0.277 C 
ENDBRANCH  35  40
ENDBRANCH  31  32
ENDBRANCH  30  31
ENDBRANCH  14  30
TORSDOF 7
