REMARK  Name = ZINC32072467
REMARK  7 active torsions:
REMARK  status: ('A' for Active; 'I' for Inactive)
REMARK    1  A    between atoms: C_1  and  C_2
REMARK    2  A    between atoms: C_2  and  C_3
REMARK    3  A    between atoms: C_2  and  C_4
REMARK    4  A    between atoms: N_19  and  C_20
REMARK    5  A    between atoms: C_20  and  C_21
REMARK    6  A    between atoms: C_20  and  C_22
REMARK    7  A    between atoms: C_20  and  C_23
REMARK                            x       y       z     vdW  Elec       q    Type
REMARK                         _______ _______ _______ _____ _____    ______ ____
ROOT
ATOM      1  C   UNL     1      -1.412  -0.526   0.013  0.00  0.00    -0.044 A 
ATOM      2  C   UNL     1      -2.246  -0.196   1.062  0.00  0.00    +0.006 A 
ATOM      3  C   UNL     1      -3.556  -0.645   1.127  0.00  0.00    +0.024 A 
ATOM      4  C   UNL     1      -4.007  -1.452   0.082  0.00  0.00    +0.038 A 
ATOM      5  C   UNL     1      -3.151  -1.780  -0.977  0.00  0.00    -0.006 A 
ATOM      6  C   UNL     1      -1.851  -1.325  -1.038  0.00  0.00    +0.010 A 
ATOM      7  C   UNL     1      -3.946  -2.641  -1.905  0.00  0.00    +0.111 C 
ATOM      8  C   UNL     1      -4.074  -1.997  -3.284  0.00  0.00    +0.122 C 
ATOM      9  C   UNL     1      -2.838  -2.223  -4.109  0.00  0.00    +0.220 C 
ATOM     10  O   UNL     1      -2.448  -1.335  -4.838  0.00  0.00    -0.275 OA
ATOM     11  N   UNL     1      -2.148  -3.382  -4.064  0.00  0.00    -0.270 N 
ATOM     12  C   UNL     1      -2.483  -4.316  -3.084  0.00  0.00    +0.128 A 
ATOM     13  C   UNL     1      -3.329  -4.005  -2.050  0.00  0.00    +0.032 A 
ATOM     14  C   UNL     1      -3.464  -5.133  -1.255  0.00  0.00    +0.141 A 
ATOM     15  N   UNL     1      -2.727  -6.088  -1.772  0.00  0.00    -0.177 NA
ATOM     16  N   UNL     1      -2.092  -5.588  -2.921  0.00  0.00    -0.245 N 
ATOM     17  C   UNL     1      -5.305  -2.748  -1.249  0.00  0.00    +0.233 C 
ATOM     18  O   UNL     1      -6.263  -3.362  -1.670  0.00  0.00    -0.274 OA
ATOM     19  N   UNL     1      -5.249  -2.031  -0.107  0.00  0.00    -0.284 N 
ATOM     20  H   UNL     1      -1.436  -3.561  -4.698  0.00  0.00    +0.156 HD
ATOM     21  H   UNL     1      -5.992  -1.934   0.509  0.00  0.00    +0.155 HD
ENDROOT
BRANCH  16  22
ATOM     22  C   UNL     1      -1.169  -6.325  -3.787  0.00  0.00    +0.057 C 
ATOM     23  C   UNL     1       0.186  -5.614  -3.809  0.00  0.00    +0.036 C 
ATOM     24  C   UNL     1      -0.990  -7.746  -3.249  0.00  0.00    +0.036 C 
ATOM     25  C   UNL     1      -1.737  -6.384  -5.206  0.00  0.00    +0.036 C 
ENDBRANCH  16  22
BRANCH   1  27
ATOM     26  C   UNL     1      -0.019   1.526   0.010  0.00  0.00    +0.012 C 
ATOM     27  C   UNL     1       0.002  -0.004   0.002  0.00  0.00    +0.013 C 
ATOM     28  C   UNL     1       0.742  -0.511   1.242  0.00  0.00    +0.012 C 
ENDBRANCH   1  27
TORSDOF 2
