REMARK  Name = ZINC49428887
REMARK  4 active torsions:
REMARK  status: ('A' for Active; 'I' for Inactive)
REMARK    1  A    between atoms: C_3  and  N_6
REMARK    2  A    between atoms: C_13  and  C_16
REMARK    3  A    between atoms: N_18  and  C_19
REMARK    4  A    between atoms: C_22  and  C_25
REMARK                            x       y       z     vdW  Elec       q    Type
REMARK                         _______ _______ _______ _____ _____    ______ ____
ROOT
ATOM      1  N   UNL     1       3.583   1.678   0.068  0.00  0.00    -0.264 N 
ATOM      2  C   UNL     1       4.617   0.814   0.074  0.00  0.00    +0.307 C 
ATOM      3  O   UNL     1       4.426  -0.360   0.325  0.00  0.00    -0.252 OA
ATOM      4  N   UNL     1       5.862   1.252  -0.197  0.00  0.00    -0.285 N 
ATOM      5  C   UNL     1       6.129   2.685  -0.383  0.00  0.00    +0.109 C 
ATOM      6  C   UNL     1       7.261   3.102   0.561  0.00  0.00    +0.020 C 
ATOM      7  C   UNL     1       8.475   2.201   0.323  0.00  0.00    +0.016 C 
ATOM      8  C   UNL     1       8.103   0.749   0.629  0.00  0.00    +0.093 C 
ATOM      9  C   UNL     1       6.981   0.305  -0.308  0.00  0.00    +0.122 C 
ATOM     10  H   UNL     1       3.744   2.626  -0.059  0.00  0.00    +0.157 HD
ENDROOT
BRANCH   1  13
ATOM     11  C   UNL     1      -0.075   1.221   0.463  0.00  0.00    +0.009 A 
ATOM     12  C   UNL     1       1.110   1.909   0.272  0.00  0.00    +0.031 A 
ATOM     13  C   UNL     1       2.278   1.208   0.246  0.00  0.00    +0.073 A 
ATOM     14  S   UNL     1       1.710  -0.466   0.496  0.00  0.00    -0.082 S 
ATOM     15  C   UNL     1      -0.038  -0.124   0.618  0.00  0.00    +0.047 A 
ENDBRANCH   1  13
BRANCH   8  16
ATOM     16  C   UNL     1       9.308  -0.133   0.427  0.00  0.00    +0.222 C 
ATOM     17  O   UNL     1      10.362   0.352   0.073  0.00  0.00    -0.275 OA
ATOM     18  N   UNL     1       9.215  -1.461   0.639  0.00  0.00    -0.285 N 
ATOM     19  H   UNL     1       8.356  -1.859   0.850  0.00  0.00    +0.155 HD
BRANCH  18  20
ATOM     20  C   UNL     1      10.357  -2.264   0.556  0.00  0.00    +0.033 A 
ATOM     21  C   UNL     1      10.259  -3.566   0.082  0.00  0.00    +0.024 A 
ATOM     22  C   UNL     1      11.389  -4.357   0.001  0.00  0.00    +0.014 A 
ATOM     23  C   UNL     1      12.616  -3.853   0.391  0.00  0.00    +0.055 A 
ATOM     24  C   UNL     1      12.717  -2.558   0.863  0.00  0.00    +0.014 A 
ATOM     25  C   UNL     1      11.593  -1.760   0.941  0.00  0.00    +0.024 A 
BRANCH  23  26
ATOM     26  C   UNL     1      13.847  -4.719   0.301  0.00  0.00    +0.417 C 
ATOM     27  F   UNL     1      14.441  -4.556  -0.955  0.00  0.00    -0.166 F 
ATOM     28  F   UNL     1      14.754  -4.345   1.298  0.00  0.00    -0.166 F 
ATOM     29  F   UNL     1      13.488  -6.060   0.477  0.00  0.00    -0.166 F 
ENDBRANCH  23  26
ENDBRANCH  18  20
ENDBRANCH   8  16
TORSDOF 4
