REMARK  Name = ZINC38155545
REMARK  6 active torsions:
REMARK  status: ('A' for Active; 'I' for Inactive)
REMARK    1  A    between atoms: C_1  and  C_2
REMARK    2  A    between atoms: C_2  and  C_5
REMARK    3  A    between atoms: N_3  and  N_4
REMARK    4  A    between atoms: C_11  and  C_29
REMARK    5  A    between atoms: C_21  and  C_28
REMARK    6  A    between atoms: C_24  and  O_27
REMARK                            x       y       z     vdW  Elec       q    Type
REMARK                         _______ _______ _______ _____ _____    ______ ____
ROOT
ATOM      1  C   UNL     1       0.481  -1.237  -0.768  0.00  0.00    +0.041 C 
ATOM      2  C   UNL     1      -0.756  -1.053  -1.686  0.00  0.00    +0.010 C 
ATOM      3  C   UNL     1      -1.748  -2.195  -1.322  0.00  0.00    +0.005 C 
ATOM      4  C   UNL     1      -1.248  -2.632   0.066  0.00  0.00    -0.001 C 
ATOM      5  C   UNL     1       0.279  -2.636  -0.153  0.00  0.00    -0.021 C 
ATOM      6  C   UNL     1       0.996  -2.923   1.134  0.00  0.00    +0.008 C 
ATOM      7  C   UNL     1       0.403  -4.136   1.862  0.00  0.00    +0.005 C 
ATOM      8  C   UNL     1      -0.661  -4.867   1.064  0.00  0.00    +0.003 C 
ATOM      9  C   UNL     1      -1.774  -3.932   0.591  0.00  0.00    +0.000 C 
ATOM     10  C   UNL     1      -2.603  -4.695  -0.450  0.00  0.00    +0.031 C 
ATOM     11  C   UNL     1      -3.120  -5.947   0.206  0.00  0.00    -0.027 C 
ATOM     12  C   UNL     1      -2.555  -6.501   1.232  0.00  0.00    -0.065 C 
ATOM     13  C   UNL     1      -1.286  -6.000   1.877  0.00  0.00    -0.008 C 
ATOM     14  C   UNL     1      -1.599  -5.586   3.309  0.00  0.00    +0.014 C 
ATOM     15  C   UNL     1      -3.000  -6.055   3.702  0.00  0.00    +0.032 C 
ATOM     16  C   UNL     1      -3.237  -7.522   3.365  0.00  0.00    +0.119 C 
ATOM     17  C   UNL     1      -3.179  -7.741   1.848  0.00  0.00    +0.062 C 
ATOM     18  C   UNL     1      -0.274  -7.150   1.908  0.00  0.00    +0.016 C 
ATOM     19  C   UNL     1       0.709  -3.630  -1.242  0.00  0.00    +0.012 C 
ENDROOT
BRANCH   1  21
ATOM     20  C   UNL     1      -0.583   0.866   0.338  0.00  0.00    +0.062 C 
ATOM     21  C   UNL     1       0.521  -0.158   0.272  0.00  0.00    +0.037 C 
ATOM     22  N   UNL     1       1.492  -0.105   1.104  0.00  0.00    -0.199 NA
BRANCH  22  23
ATOM     23  N   UNL     1       2.596  -0.954   0.946  0.00  0.00    -0.283 N 
ATOM     24  H   UNL     1       2.683  -1.492   0.144  0.00  0.00    +0.164 HD
ATOM     25  H   UNL     1       3.273  -1.004   1.639  0.00  0.00    +0.164 HD
ENDBRANCH  22  23
ENDBRANCH   1  21
BRANCH  16  26
ATOM     26  O   UNL     1      -2.259  -8.337   4.013  0.00  0.00    -0.391 OA
ATOM     27  H   UNL     1      -2.356  -9.283   3.838  0.00  0.00    +0.210 HD
ENDBRANCH  16  26
TORSDOF 3
