REMARK  Name = ZINC42350437
REMARK  5 active torsions:
REMARK  status: ('A' for Active; 'I' for Inactive)
REMARK    1  A    between atoms: C_1  and  C_2
REMARK    2  A    between atoms: C_6  and  N_9
REMARK    3  A    between atoms: C_7  and  C_8
REMARK    4  A    between atoms: N_9  and  S_10
REMARK    5  A    between atoms: S_10  and  C_13
REMARK                            x       y       z     vdW  Elec       q    Type
REMARK                         _______ _______ _______ _____ _____    ______ ____
ROOT
ATOM      1  N   UNL     1       0.051  -2.796   2.390  0.00  0.00    -0.097 NA
ENDROOT
BRANCH   1   7
ATOM      2  C   UNL     1      -0.018   1.503   0.010  0.00  0.00    +0.044 C 
ATOM      3  C   UNL     1       0.002  -0.004   0.002  0.00  0.00    -0.046 A 
ATOM      4  C   UNL     1       0.006  -0.688  -1.200  0.00  0.00    +0.004 A 
ATOM      5  C   UNL     1       0.024  -2.071  -1.212  0.00  0.00    +0.002 A 
ATOM      6  C   UNL     1       0.039  -2.773  -0.023  0.00  0.00    +0.027 A 
ATOM      7  C   UNL     1       0.036  -2.089   1.186  0.00  0.00    +0.077 A 
ATOM      8  C   UNL     1       0.023  -0.700   1.194  0.00  0.00    -0.023 A 
ATOM      9  C   UNL     1       0.025   0.046   2.504  0.00  0.00    +0.046 C 
ENDBRANCH   1   7
BRANCH   1  10
ATOM     10  S   UNL     1       0.073  -4.452   2.378  0.00  0.00    +0.099 S 
ATOM     11  O   UNL     1      -1.169  -4.871   1.830  0.00  0.00    -0.148 OA
ATOM     12  O   UNL     1       1.321  -4.838   1.818  0.00  0.00    -0.148 OA
BRANCH  10  13
ATOM     13  C   UNL     1       0.088  -4.986   4.057  0.00  0.00    +0.161 A 
ATOM     14  C   UNL     1       0.113  -6.248   4.552  0.00  0.00    +0.052 A 
ATOM     15  C   UNL     1       0.121  -6.430   5.923  0.00  0.00    +0.025 A 
ATOM     16  C   UNL     1       0.105  -5.342   6.731  0.00  0.00    +0.048 A 
ATOM     17  S   UNL     1       0.083  -4.004   5.548  0.00  0.00    -0.076 S 
ATOM     18 BR   UNL     1       0.135  -7.736   3.385  0.00  0.00    -0.048 Br
ENDBRANCH  10  13
ENDBRANCH   1  10
TORSDOF 3
