REMARK  Name = ZINC20347456
REMARK  9 active torsions:
REMARK  status: ('A' for Active; 'I' for Inactive)
REMARK    1  A    between atoms: C_3  and  O_29
REMARK    2  A    between atoms: C_6  and  C_7
REMARK    3  A    between atoms: C_8  and  C_27
REMARK    4  A    between atoms: C_9  and  N_26
REMARK    5  A    between atoms: C_11  and  S_15
REMARK    6  A    between atoms: C_12  and  C_13
REMARK    7  A    between atoms: S_15  and  C_16
REMARK    8  A    between atoms: C_16  and  C_17
REMARK    9  A    between atoms: N_19  and  C_20
REMARK                            x       y       z     vdW  Elec       q    Type
REMARK                         _______ _______ _______ _____ _____    ______ ____
ROOT
ATOM      1  C   UNL     1       2.429   0.012  -0.021  0.00  0.00    +0.023 A 
ATOM      2  C   UNL     1       1.218  -0.711  -0.014  0.00  0.00    +0.100 A 
ATOM      3  C   UNL     1       0.002  -0.004   0.002  0.00  0.00    +0.136 A 
ATOM      4  N   UNL     1      -0.016   1.319   0.009  0.00  0.00    -0.224 NA
ATOM      5  C   UNL     1       1.096   2.040   0.003  0.00  0.00    +0.117 A 
ATOM      6  C   UNL     1       2.359   1.420  -0.013  0.00  0.00    +0.093 A 
ENDROOT
BRANCH   1  12
ATOM      7  C   UNL     1       4.603  -0.567   1.047  0.00  0.00    +0.012 A 
ATOM      8  C   UNL     1       5.815  -1.222   1.030  0.00  0.00    +0.046 A 
ATOM      9  C   UNL     1       6.175  -1.992  -0.069  0.00  0.00    +0.117 A 
ATOM     10  C   UNL     1       5.313  -2.108  -1.152  0.00  0.00    +0.046 A 
ATOM     11  C   UNL     1       4.098  -1.460  -1.141  0.00  0.00    +0.012 A 
ATOM     12  C   UNL     1       3.732  -0.685  -0.038  0.00  0.00    -0.015 A 
BRANCH   9  13
ATOM     13  O   UNL     1       7.372  -2.632  -0.084  0.00  0.00    -0.507 OA
ATOM     14  H   UNL     1       7.659  -3.242  -0.953  0.00  0.00    +0.292 HD
ENDBRANCH   9  13
ENDBRANCH   1  12
BRANCH   3  15
ATOM     15  N   UNL     1      -1.190  -0.701   0.010  0.00  0.00    -0.342 N 
ATOM     16  H   UNL     1      -2.145  -0.156   0.022  0.00  0.00    +0.144 HD
ATOM     17  H   UNL     1      -1.184  -1.801   0.003  0.00  0.00    +0.144 HD
ENDBRANCH   3  15
BRANCH   6  18
ATOM     18  C   UNL     1       3.556   2.207  -0.021  0.00  0.00    +0.102 C 
ATOM     19  N   UNL     1       4.505   2.831  -0.026  0.00  0.00    -0.191 NA
ENDBRANCH   6  18
BRANCH   2  20
ATOM     20  C   UNL     1       1.227  -2.143  -0.022  0.00  0.00    +0.103 C 
ATOM     21  N   UNL     1       1.234  -3.279  -0.028  0.00  0.00    -0.191 NA
ENDBRANCH   2  20
BRANCH   5  22
ATOM     22  S   UNL     1       0.991   3.799   0.013  0.00  0.00    -0.095 S 
BRANCH  22  23
ATOM     23  C   UNL     1      -0.807   4.006   0.031  0.00  0.00    +0.171 C 
BRANCH  23  24
ATOM     24  C   UNL     1      -1.143   5.475   0.042  0.00  0.00    +0.223 C 
ATOM     25  O   UNL     1      -0.255   6.301   0.038  0.00  0.00    -0.275 OA
ATOM     26  N   UNL     1      -2.431   5.872   0.057  0.00  0.00    -0.312 N 
ATOM     27  H   UNL     1      -3.237   5.123   0.060  0.00  0.00    +0.149 HD
BRANCH  26  28
ATOM     28  C   UNL     1      -2.758   7.300   0.068  0.00  0.00    +0.073 C 
ATOM     29  C   UNL     1      -2.735   7.818   1.507  0.00  0.00    +0.022 C 
ATOM     30  C   UNL     1      -3.076   9.309   1.518  0.00  0.00    +0.002 C 
ATOM     31  C   UNL     1      -4.470   9.518   0.923  0.00  0.00    +0.000 C 
ATOM     32  C   UNL     1      -4.493   9.001  -0.516  0.00  0.00    +0.002 C 
ATOM     33  C   UNL     1      -4.152   7.509  -0.528  0.00  0.00    +0.022 C 
ENDBRANCH  26  28
ENDBRANCH  23  24
ENDBRANCH  22  23
ENDBRANCH   5  22
TORSDOF 9
