REMARK  Name = ZINC59875779
REMARK  8 active torsions:
REMARK  status: ('A' for Active; 'I' for Inactive)
REMARK    1  A    between atoms: C_4  and  N_7
REMARK    2  A    between atoms: N_7  and  C_8
REMARK    3  A    between atoms: C_11  and  N_14
REMARK    4  A    between atoms: C_15  and  C_17
REMARK    5  A    between atoms: C_17  and  C_18
REMARK    6  A    between atoms: C_18  and  C_19
REMARK    7  A    between atoms: C_19  and  C_20
REMARK    8  A    between atoms: C_20  and  C_21
REMARK                            x       y       z     vdW  Elec       q    Type
REMARK                         _______ _______ _______ _____ _____    ______ ____
ROOT
ATOM      1  N   UNL     1       4.073  -6.198   0.131  0.00  0.00    -0.285 N 
ATOM      2  C   UNL     1       5.282  -6.770   0.296  0.00  0.00    +0.217 C 
ATOM      3  O   UNL     1       6.281  -6.083   0.317  0.00  0.00    -0.275 OA
ATOM      4  H   UNL     1       3.281  -6.752   0.050  0.00  0.00    +0.155 HD
ENDROOT
BRANCH   1   8
ATOM      5  C   UNL     1       3.739  -2.044  -0.036  0.00  0.00    +0.031 A 
ATOM      6  C   UNL     1       2.737  -2.798   0.562  0.00  0.00    +0.025 A 
ATOM      7  C   UNL     1       2.848  -4.173   0.617  0.00  0.00    +0.025 A 
ATOM      8  C   UNL     1       3.961  -4.802   0.074  0.00  0.00    +0.033 A 
ATOM      9  C   UNL     1       4.962  -4.048  -0.523  0.00  0.00    +0.025 A 
ATOM     10  C   UNL     1       4.849  -2.674  -0.584  0.00  0.00    +0.025 A 
BRANCH   5  11
ATOM     11  N   UNL     1       3.627  -0.650  -0.092  0.00  0.00    -0.314 N 
ATOM     12  H   UNL     1       3.970  -0.167  -0.859  0.00  0.00    +0.152 HD
BRANCH  11  16
ATOM     13  C   UNL     1       1.818   1.420   3.036  0.00  0.00    +0.000 A 
ATOM     14  C   UNL     1       2.395   0.185   3.268  0.00  0.00    +0.002 A 
ATOM     15  C   UNL     1       2.995  -0.505   2.233  0.00  0.00    +0.023 A 
ATOM     16  C   UNL     1       3.020   0.044   0.957  0.00  0.00    +0.031 A 
ATOM     17  C   UNL     1       2.439   1.285   0.727  0.00  0.00    +0.023 A 
ATOM     18  C   UNL     1       1.841   1.969   1.767  0.00  0.00    +0.002 A 
ENDBRANCH  11  16
ENDBRANCH   5  11
ENDBRANCH   1   8
BRANCH   2  19
ATOM     19  C   UNL     1       5.393  -8.265   0.454  0.00  0.00    +0.096 C 
BRANCH  19  20
ATOM     20  C   UNL     1       6.863  -8.652   0.625  0.00  0.00    +0.009 C 
BRANCH  20  21
ATOM     21  C   UNL     1       6.975 -10.170   0.785  0.00  0.00    +0.002 C 
BRANCH  21  22
ATOM     22  C   UNL     1       8.445 -10.557   0.956  0.00  0.00    +0.016 C 
BRANCH  22  23
ATOM     23  C   UNL     1       8.557 -12.075   1.117  0.00  0.00    +0.069 C 
ATOM     24  C   UNL     1      10.032 -12.511   1.248  0.00  0.00    +0.108 C 
ATOM     25  C   UNL     1      10.257 -13.618   2.283  0.00  0.00    +0.105 C 
ATOM     26  C   UNL     1       8.965 -14.071   2.996  0.00  0.00    +0.093 C 
ATOM     27  S   UNL     1       7.868 -12.622   2.739  0.00  0.00    -0.154 S 
ATOM     28  N   UNL     1      11.153 -13.003   3.275  0.00  0.00    -0.294 N 
ATOM     29  C   UNL     1      11.421 -11.745   2.901  0.00  0.00    +0.300 C 
ATOM     30  O   UNL     1      12.141 -11.001   3.540  0.00  0.00    -0.253 OA
ATOM     31  N   UNL     1      10.823 -11.383   1.767  0.00  0.00    -0.294 N 
ATOM     32  H   UNL     1      11.495 -13.439   4.072  0.00  0.00    +0.151 HD
ATOM     33  H   UNL     1      10.900 -10.511   1.350  0.00  0.00    +0.151 HD
ENDBRANCH  22  23
ENDBRANCH  21  22
ENDBRANCH  20  21
ENDBRANCH  19  20
ENDBRANCH   2  19
TORSDOF 8
