REMARK  Name = ZINC10149952
REMARK  14 active torsions:
REMARK  status: ('A' for Active; 'I' for Inactive)
REMARK    1  A    between atoms: C_1  and  C_2
REMARK    2  A    between atoms: C_2  and  C_3
REMARK    3  A    between atoms: C_4  and  C_29
REMARK    4  A    between atoms: C_6  and  N_11
REMARK    5  A    between atoms: C_7  and  C_8
REMARK    6  A    between atoms: N_11  and  C_12
REMARK    7  A    between atoms: C_12  and  N_14
REMARK    8  A    between atoms: C_15  and  C_17
REMARK    9  A    between atoms: C_20  and  O_23
REMARK   10  A    between atoms: O_23  and  C_24
REMARK   11  A    between atoms: C_24  and  C_25
REMARK   12  A    between atoms: C_25  and  C_26
REMARK   13  A    between atoms: C_26  and  C_27
REMARK   14  A    between atoms: C_26  and  C_28
REMARK                            x       y       z     vdW  Elec       q    Type
REMARK                         _______ _______ _______ _____ _____    ______ ____
ROOT
ATOM      1  C   UNL     1      -0.935   3.568   0.026  0.00  0.00    +0.141 C 
ATOM      2  S   UNL     1       0.648   4.219   0.022  0.00  0.00    -0.018 S 
ENDROOT
BRANCH   1   3
ATOM      3  N   UNL     1      -2.003   4.391   0.036  0.00  0.00    -0.264 N 
ATOM      4  C   UNL     1      -1.824   5.726   0.042  0.00  0.00    +0.250 C 
ATOM      5  O   UNL     1      -0.700   6.189   0.039  0.00  0.00    -0.270 OA
ATOM      6  H   UNL     1      -2.900   4.021   0.038  0.00  0.00    +0.157 HD
BRANCH   4   7
ATOM      7  C   UNL     1      -2.992   6.627   0.053  0.00  0.00    +0.037 A 
ATOM      8  C   UNL     1      -4.285   6.097   0.051  0.00  0.00    +0.016 A 
ATOM      9  C   UNL     1      -5.373   6.941   0.067  0.00  0.00    +0.046 A 
ATOM     10  C   UNL     1      -5.186   8.319   0.073  0.00  0.00    +0.121 A 
ATOM     11  C   UNL     1      -3.902   8.850   0.070  0.00  0.00    +0.046 A 
ATOM     12  C   UNL     1      -2.809   8.013   0.059  0.00  0.00    +0.016 A 
BRANCH  10  13
ATOM     13  O   UNL     1      -6.261   9.147   0.083  0.00  0.00    -0.492 OA
BRANCH  13  14
ATOM     14  C   UNL     1      -7.552   8.535   0.086  0.00  0.00    +0.229 C 
BRANCH  14  15
ATOM     15  C   UNL     1      -8.631   9.620   0.098  0.00  0.00    +0.044 C 
BRANCH  15  16
ATOM     16  C   UNL     1     -10.014   8.964   0.101  0.00  0.00    -0.014 C 
ATOM     17  C   UNL     1     -10.207   8.187   1.405  0.00  0.00    +0.007 C 
ATOM     18  C   UNL     1     -11.091  10.044  -0.014  0.00  0.00    +0.007 C 
ENDBRANCH  15  16
ENDBRANCH  14  15
ENDBRANCH  13  14
ENDBRANCH  10  13
ENDBRANCH   4   7
ENDBRANCH   1   3
BRANCH   1  19
ATOM     19  N   UNL     1      -1.114   2.232   0.020  0.00  0.00    -0.291 N 
ATOM     20  H   UNL     1      -2.011   1.863   0.022  0.00  0.00    +0.154 HD
BRANCH  19  24
ATOM     21  C   UNL     1       1.300  -0.635  -0.014  0.00  0.00    -0.024 A 
ATOM     22  C   UNL     1       2.376   0.172  -0.020  0.00  0.00    -0.008 A 
ATOM     23  S   UNL     1       1.663   1.804  -0.004  0.00  0.00    -0.078 S 
ATOM     24  C   UNL     1      -0.017   1.386   0.010  0.00  0.00    +0.084 A 
ATOM     25  C   UNL     1       0.002  -0.004   0.002  0.00  0.00    +0.068 A 
ATOM     26  C   UNL     1       3.833  -0.212  -0.035  0.00  0.00    +0.052 C 
BRANCH  25  27
ATOM     27  C   UNL     1      -1.235  -0.790   0.010  0.00  0.00    +0.244 C 
ATOM     28  O   UNL     1      -1.759  -1.111  -1.041  0.00  0.00    -0.270 OA
ATOM     29  N   UNL     1      -1.793  -1.157   1.181  0.00  0.00    -0.325 N 
ATOM     30  H   UNL     1      -1.375  -0.901   2.018  0.00  0.00    +0.145 HD
ATOM     31  H   UNL     1      -2.611  -1.677   1.186  0.00  0.00    +0.145 HD
ENDBRANCH  25  27
BRANCH  21  33
ATOM     32  C   UNL     1       1.479  -2.636  -1.468  0.00  0.00    +0.009 C 
ATOM     33  C   UNL     1       1.444  -2.135  -0.023  0.00  0.00    +0.033 C 
ENDBRANCH  21  33
ENDBRANCH  19  24
ENDBRANCH   1  19
TORSDOF 10
