REMARK  Name = ZINC62833257
REMARK  5 active torsions:
REMARK  status: ('A' for Active; 'I' for Inactive)
REMARK    1  A    between atoms: C_1  and  C_2
REMARK    2  A    between atoms: C_2  and  C_20
REMARK    3  A    between atoms: N_6  and  C_10
REMARK    4  A    between atoms: C_13  and  C_17
REMARK    5  A    between atoms: C_15  and  N_16
REMARK                            x       y       z     vdW  Elec       q    Type
REMARK                         _______ _______ _______ _____ _____    ______ ____
ROOT
ATOM      1  C   UNL     1       0.991  -4.038  -0.194  0.00  0.00    +0.064 A 
ATOM      2  C   UNL     1      -0.153  -4.816  -0.315  0.00  0.00    +0.026 A 
ATOM      3  C   UNL     1      -0.056  -6.190  -0.355  0.00  0.00    +0.017 A 
ATOM      4  C   UNL     1       1.197  -6.806  -0.274  0.00  0.00    +0.065 A 
ATOM      5  C   UNL     1       2.350  -6.024  -0.153  0.00  0.00    +0.039 A 
ATOM      6  C   UNL     1       2.247  -4.646  -0.119  0.00  0.00    +0.047 A 
ENDROOT
BRANCH   1  12
ATOM      7  C   UNL     1      -0.001   1.540  -0.083  0.00  0.00    +0.012 C 
ATOM      8  C   UNL     1       0.006   0.011  -0.136  0.00  0.00    -0.018 C 
ATOM      9  C   UNL     1       0.844  -0.458  -1.330  0.00  0.00    +0.103 C 
ATOM     10  C   UNL     1       0.939  -1.961  -1.307  0.00  0.00    +0.227 C 
ATOM     11  O   UNL     1       1.065  -2.564  -2.351  0.00  0.00    -0.275 OA
ATOM     12  N   UNL     1       0.887  -2.644  -0.154  0.00  0.00    -0.209 N 
ATOM     13  C   UNL     1       0.738  -2.043   1.036  0.00  0.00    +0.227 C 
ATOM     14  O   UNL     1       0.689  -2.719   2.041  0.00  0.00    -0.275 OA
ATOM     15  C   UNL     1       0.631  -0.545   1.148  0.00  0.00    +0.103 C 
ATOM     16  C   UNL     1      -1.428  -0.504  -0.274  0.00  0.00    +0.012 C 
ENDBRANCH   1  12
BRANCH   6  17
ATOM     17  N   UNL     1       3.398  -3.860  -0.003  0.00  0.00    -0.357 N 
ATOM     18  H   UNL     1       3.321  -2.900   0.110  0.00  0.00    +0.142 HD
ATOM     19  H   UNL     1       4.274  -4.276  -0.036  0.00  0.00    +0.142 HD
ENDBRANCH   6  17
BRANCH   4  20
ATOM     20  C   UNL     1       1.301  -8.274  -0.316  0.00  0.00    +0.387 C 
ATOM     21  O   UNL     1       0.291  -8.957  -0.422  0.00  0.00    -0.241 OA
ATOM     22  O   UNL     1       2.398  -8.812  -0.245  0.00  0.00    -0.241 OA
ENDBRANCH   4  20
TORSDOF 3
