REMARK  Name = ZINC08640210
REMARK  5 active torsions:
REMARK  status: ('A' for Active; 'I' for Inactive)
REMARK    1  A    between atoms: C_11  and  S_15
REMARK    2  A    between atoms: S_15  and  C_16
REMARK    3  A    between atoms: C_16  and  C_17
REMARK    4  A    between atoms: N_19  and  C_20
REMARK    5  A    between atoms: C_21  and  C_29
REMARK                            x       y       z     vdW  Elec       q    Type
REMARK                         _______ _______ _______ _____ _____    ______ ____
ROOT
ATOM      1  C   UNL     1       4.118   7.116   0.002  0.00  0.00    +0.228 C 
ATOM      2  O   UNL     1       5.326   7.219  -0.009  0.00  0.00    -0.275 OA
ATOM      3  N   UNL     1       3.348   8.222   0.016  0.00  0.00    -0.279 N 
ATOM      4  H   UNL     1       2.381   8.139   0.025  0.00  0.00    +0.155 HD
ENDROOT
BRANCH   3   5
ATOM      5  C   UNL     1       3.937   9.477   0.017  0.00  0.00    +0.084 A 
ATOM      6  C   UNL     1       3.319  10.719   0.025  0.00  0.00    +0.068 A 
ATOM      7  C   UNL     1       4.173  11.895   0.028  0.00  0.00    -0.023 A 
ATOM      8  C   UNL     1       5.500  11.641   0.013  0.00  0.00    -0.004 A 
ATOM      9  S   UNL     1       5.623   9.875   0.003  0.00  0.00    -0.077 S 
ATOM     10  C   UNL     1       6.611  12.645   0.006  0.00  0.00    +0.043 C 
ATOM     11  C   UNL     1       6.023  14.015  -0.359  0.00  0.00    +0.005 C 
ATOM     12  C   UNL     1       4.772  14.258   0.492  0.00  0.00    +0.005 C 
ATOM     13  C   UNL     1       3.647  13.325   0.041  0.00  0.00    +0.037 C 
BRANCH   6  14
ATOM     14  C   UNL     1       1.857  10.842   0.033  0.00  0.00    +0.244 C 
ATOM     15  O   UNL     1       1.257  10.889   1.091  0.00  0.00    -0.270 OA
ATOM     16  N   UNL     1       1.179  10.901  -1.130  0.00  0.00    -0.325 N 
ATOM     17  H   UNL     1       1.658  10.863  -1.973  0.00  0.00    +0.145 HD
ATOM     18  H   UNL     1       0.213  10.982  -1.125  0.00  0.00    +0.145 HD
ENDBRANCH   6  14
ENDBRANCH   3   5
BRANCH   1  19
ATOM     19  C   UNL     1       3.478   5.752   0.000  0.00  0.00    +0.173 C 
BRANCH  19  20
ATOM     20  S   UNL     1       4.766   4.481  -0.020  0.00  0.00    -0.078 S 
BRANCH  20  31
ATOM     21  C   UNL     1       0.560  -2.666   0.446  0.00  0.00    +0.005 C 
ATOM     22  C   UNL     1      -0.687  -2.336  -0.379  0.00  0.00    +0.005 C 
ATOM     23  C   UNL     1      -1.173  -0.932   0.007  0.00  0.00    +0.043 C 
ATOM     24  C   UNL     1       0.002  -0.004   0.002  0.00  0.00    -0.004 A 
ATOM     25  C   UNL     1       1.312  -0.341  -0.012  0.00  0.00    -0.023 A 
ATOM     26  C   UNL     1       2.267   0.755  -0.015  0.00  0.00    +0.075 A 
ATOM     27  C   UNL     1       3.696   0.645  -0.030  0.00  0.00    +0.261 A 
ATOM     28  O   UNL     1       4.262  -0.435  -0.041  0.00  0.00    -0.267 OA
ATOM     29  N   UNL     1       4.378   1.814  -0.031  0.00  0.00    -0.301 N 
ATOM     30  H   UNL     1       5.348   1.784  -0.041  0.00  0.00    +0.171 HD
ATOM     31  C   UNL     1       3.766   3.030  -0.018  0.00  0.00    +0.170 A 
ATOM     32  N   UNL     1       2.447   3.168  -0.004  0.00  0.00    -0.216 NA
ATOM     33  C   UNL     1       1.719   2.058  -0.003  0.00  0.00    +0.117 A 
ATOM     34  S   UNL     1      -0.022   1.771   0.012  0.00  0.00    -0.073 S 
ATOM     35  C   UNL     1       1.735  -1.808  -0.023  0.00  0.00    +0.037 C 
ENDBRANCH  20  31
ENDBRANCH  19  20
ENDBRANCH   1  19
TORSDOF 5
