REMARK  Name = ZINC04965678
REMARK  6 active torsions:
REMARK  status: ('A' for Active; 'I' for Inactive)
REMARK    1  A    between atoms: C_1  and  C_2
REMARK    2  A    between atoms: C_2  and  C_3
REMARK    3  A    between atoms: C_3  and  C_5
REMARK    4  A    between atoms: C_3  and  N_6
REMARK    5  A    between atoms: C_7  and  C_9
REMARK    6  A    between atoms: N_18  and  C_19
REMARK                            x       y       z     vdW  Elec       q    Type
REMARK                         _______ _______ _______ _____ _____    ______ ____
ROOT
ATOM      1  C   UNL     1       4.272   0.467  -2.302  0.00  0.00    +0.092 C 
ATOM      2  C   UNL     1       4.827   0.554  -3.726  0.00  0.00    +0.016 C 
ATOM      3  C   UNL     1       6.305   0.948  -3.676  0.00  0.00    +0.020 C 
ATOM      4  C   UNL     1       6.441   2.325  -3.019  0.00  0.00    +0.109 C 
ATOM      5  N   UNL     1       5.782   2.290  -1.706  0.00  0.00    -0.285 N 
ATOM      6  C   UNL     1       4.385   1.838  -1.629  0.00  0.00    +0.122 C 
ATOM      7  C   UNL     1       6.445   2.664  -0.595  0.00  0.00    +0.302 C 
ATOM      8  O   UNL     1       5.862   2.718   0.471  0.00  0.00    -0.253 OA
ATOM      9  N   UNL     1       7.753   2.978  -0.664  0.00  0.00    -0.296 N 
ATOM     10  H   UNL     1       8.200   3.007  -1.524  0.00  0.00    +0.151 HD
ENDROOT
BRANCH   9  11
ATOM     11  C   UNL     1       8.501   3.277   0.560  0.00  0.00    +0.074 C 
ATOM     12  C   UNL     1       8.316   4.752   0.923  0.00  0.00    +0.022 C 
ATOM     13  C   UNL     1       9.097   5.064   2.201  0.00  0.00    +0.002 C 
ATOM     14  C   UNL     1      10.582   4.777   1.974  0.00  0.00    +0.000 C 
ATOM     15  C   UNL     1      10.767   3.302   1.611  0.00  0.00    +0.002 C 
ATOM     16  C   UNL     1       9.986   2.990   0.333  0.00  0.00    +0.022 C 
ENDBRANCH   9  11
BRANCH   1  18
ATOM     17  N   UNL     1       2.127  -0.094  -1.208  0.00  0.00    -0.312 N 
ATOM     18  C   UNL     1       2.826   0.048  -2.351  0.00  0.00    +0.218 C 
ATOM     19  O   UNL     1       2.291  -0.161  -3.419  0.00  0.00    -0.275 OA
ATOM     20  H   UNL     1       2.555   0.073  -0.353  0.00  0.00    +0.149 HD
BRANCH  17  21
ATOM     21  C   UNL     1       0.720  -0.501  -1.255  0.00  0.00    +0.070 C 
ATOM     22  C   UNL     1       0.633  -2.027  -1.325  0.00  0.00    +0.028 C 
BRANCH  21  24
ATOM     23  C   UNL     1      -0.018   1.523   0.011  0.00  0.00    +0.005 C 
ATOM     24  C   UNL     1       0.004  -0.007   0.004  0.00  0.00    +0.018 C 
ENDBRANCH  21  24
ENDBRANCH  17  21
ENDBRANCH   1  18
TORSDOF 4
