REMARK  Name = ZINC63822351
REMARK  5 active torsions:
REMARK  status: ('A' for Active; 'I' for Inactive)
REMARK    1  A    between atoms: C_4  and  C_7
REMARK    2  A    between atoms: C_7  and  C_8
REMARK    3  A    between atoms: C_8  and  C_9
REMARK    4  A    between atoms: C_13  and  N_16
REMARK    5  A    between atoms: C_17  and  C_19
REMARK                            x       y       z     vdW  Elec       q    Type
REMARK                         _______ _______ _______ _____ _____    ______ ____
ROOT
ATOM      1  N   UNL     1       7.478  -5.002   1.184  0.00  0.00    -0.286 N 
ATOM      2  C   UNL     1       8.285  -5.835   1.870  0.00  0.00    +0.247 C 
ATOM      3  O   UNL     1       8.157  -5.951   3.072  0.00  0.00    -0.270 OA
ATOM      4  H   UNL     1       7.626  -4.854   0.237  0.00  0.00    +0.151 HD
ENDROOT
BRANCH   2   5
ATOM      5  C   UNL     1       9.329  -6.611   1.157  0.00  0.00    +0.051 A 
ATOM      6  C   UNL     1       9.569  -6.401  -0.171  0.00  0.00    +0.083 A 
ATOM      7  C   UNL     1      10.604  -7.181  -0.846  0.00  0.00    +0.250 A 
ATOM      8  O   UNL     1      10.820  -6.994  -2.030  0.00  0.00    -0.268 OA
ATOM      9  N   UNL     1      11.323  -8.101  -0.179  0.00  0.00    -0.322 N 
ATOM     10  H   UNL     1      12.005  -8.604  -0.651  0.00  0.00    +0.169 HD
ATOM     11  C   UNL     1      11.111  -8.342   1.161  0.00  0.00    +0.050 A 
ATOM     12  C   UNL     1      10.133  -7.618   1.865  0.00  0.00    +0.011 A 
ATOM     13  C   UNL     1       9.929  -7.866   3.226  0.00  0.00    +0.011 A 
ATOM     14  C   UNL     1      10.685  -8.806   3.867  0.00  0.00    +0.001 A 
ATOM     15  C   UNL     1      11.657  -9.518   3.178  0.00  0.00    +0.002 A 
ATOM     16  C   UNL     1      11.867  -9.300   1.833  0.00  0.00    +0.026 A 
ENDBRANCH   2   5
BRANCH   1  20
ATOM     17  C   UNL     1       5.460  -1.746   1.353  0.00  0.00    +0.130 C 
ATOM     18  N   UNL     1       5.918  -2.086   2.737  0.00  0.00    -0.241 NA
ATOM     19  N   UNL     1       6.877  -3.183   2.688  0.00  0.00    -0.227 NA
ATOM     20  C   UNL     1       6.376  -4.321   1.868  0.00  0.00    +0.217 C 
ATOM     21  S   UNL     1       5.286  -3.449   0.663  0.00  0.00    -0.102 S 
ATOM     22  H   UNL     1       6.314  -1.280   3.196  0.00  0.00    +0.142 HD
ATOM     23  H   UNL     1       7.774  -2.865   2.354  0.00  0.00    +0.143 HD
BRANCH  17  24
ATOM     24  C   UNL     1       4.117  -1.012   1.374  0.00  0.00    +0.035 C 
BRANCH  24  25
ATOM     25  C   UNL     1       3.640  -0.780  -0.061  0.00  0.00    +0.037 C 
BRANCH  25  29
ATOM     26  C   UNL     1      -0.108   1.268  -0.005  0.00  0.00    +0.000 A 
ATOM     27  C   UNL     1       1.072   1.987  -0.034  0.00  0.00    +0.000 A 
ATOM     28  C   UNL     1       2.285   1.324  -0.052  0.00  0.00    +0.003 A 
ATOM     29  C   UNL     1       2.318  -0.058  -0.041  0.00  0.00    -0.047 A 
ATOM     30  C   UNL     1       1.138  -0.777  -0.011  0.00  0.00    +0.003 A 
ATOM     31  C   UNL     1      -0.075  -0.114   0.006  0.00  0.00    +0.000 A 
ENDBRANCH  25  29
ENDBRANCH  24  25
ENDBRANCH  17  24
ENDBRANCH   1  20
TORSDOF 5
