REMARK  Name = ZINC49123449
REMARK  5 active torsions:
REMARK  status: ('A' for Active; 'I' for Inactive)
REMARK    1  A    between atoms: C_1  and  C_2
REMARK    2  A    between atoms: C_2  and  C_3
REMARK    3  A    between atoms: C_9  and  N_11
REMARK    4  A    between atoms: C_16  and  O_24
REMARK    5  A    between atoms: C_19  and  C_21
REMARK                            x       y       z     vdW  Elec       q    Type
REMARK                         _______ _______ _______ _____ _____    ______ ____
ROOT
ATOM      1  N   UNL     1      -0.750  -2.444   1.369  0.00  0.00    -0.296 N 
ATOM      2  C   UNL     1      -1.121  -3.664   0.932  0.00  0.00    +0.303 C 
ATOM      3  O   UNL     1      -0.289  -4.427   0.480  0.00  0.00    -0.253 OA
ATOM      4  N   UNL     1      -2.414  -4.039   0.996  0.00  0.00    -0.269 N 
ATOM      5  C   UNL     1      -3.522  -3.215   1.512  0.00  0.00    +0.141 C 
ATOM      6  C   UNL     1      -4.790  -3.782   0.827  0.00  0.00    +0.134 C 
ATOM      7  C   UNL     1      -4.478  -5.301   0.800  0.00  0.00    +0.067 C 
ATOM      8  C   UNL     1      -2.954  -5.334   0.558  0.00  0.00    +0.193 C 
ATOM      9  H   UNL     1      -1.414  -1.836   1.729  0.00  0.00    +0.151 HD
ENDROOT
BRANCH   1  15
ATOM     10  C   UNL     1       0.742  -0.511   1.242  0.00  0.00    +0.009 C 
ATOM     11  C   UNL     1       2.210  -0.086   1.169  0.00  0.00    +0.005 C 
ATOM     12  C   UNL     1       2.950  -0.593   2.408  0.00  0.00    +0.000 C 
ATOM     13  C   UNL     1       2.863  -2.119   2.465  0.00  0.00    +0.002 C 
ATOM     14  C   UNL     1       1.395  -2.544   2.538  0.00  0.00    +0.022 C 
ATOM     15  C   UNL     1       0.655  -2.037   1.299  0.00  0.00    +0.078 C 
BRANCH  10  17
ATOM     16  C   UNL     1      -0.019   1.526   0.010  0.00  0.00    +0.004 C 
ATOM     17  C   UNL     1       0.002  -0.004   0.002  0.00  0.00    +0.002 C 
ENDBRANCH  10  17
ENDBRANCH   1  15
BRANCH   8  18
ATOM     18  C   UNL     1      -2.333  -6.447   1.362  0.00  0.00    +0.376 C 
ATOM     19  O   UNL     1      -1.635  -6.186   2.327  0.00  0.00    -0.244 OA
ATOM     20  O   UNL     1      -2.530  -7.609   1.049  0.00  0.00    -0.244 OA
ENDBRANCH   8  18
BRANCH   6  21
ATOM     21  O   UNL     1      -5.958  -3.512   1.605  0.00  0.00    -0.390 OA
ATOM     22  H   UNL     1      -6.138  -2.571   1.731  0.00  0.00    +0.210 HD
ENDBRANCH   6  21
TORSDOF 4
