REMARK  Name = ZINC16610183
REMARK  12 active torsions:
REMARK  status: ('A' for Active; 'I' for Inactive)
REMARK    1  A    between atoms: C_1  and  C_2
REMARK    2  A    between atoms: C_7  and  N_8
REMARK    3  A    between atoms: N_11  and  C_12
REMARK    4  A    between atoms: C_15  and  C_18
REMARK    5  A    between atoms: C_20  and  C_28
REMARK    6  A    between atoms: C_21  and  C_27
REMARK    7  A    between atoms: N_22  and  C_26
REMARK    8  A    between atoms: C_28  and  O_30
REMARK    9  A    between atoms: O_30  and  C_31
REMARK   10  A    between atoms: C_31  and  C_32
REMARK   11  A    between atoms: C_32  and  C_33
REMARK   12  A    between atoms: C_32  and  C_34
REMARK                            x       y       z     vdW  Elec       q    Type
REMARK                         _______ _______ _______ _____ _____    ______ ____
ROOT
ATOM      1  C   UNL     1      -2.400   1.081   0.212  0.00  0.00    +0.035 A 
ATOM      2  C   UNL     1      -2.364  -0.308   0.211  0.00  0.00    +0.024 A 
ATOM      3  C   UNL     1      -3.532  -1.028   0.363  0.00  0.00    +0.007 A 
ATOM      4  C   UNL     1      -4.739  -0.369   0.506  0.00  0.00    -0.022 A 
ATOM      5  C   UNL     1      -4.779   1.014   0.504  0.00  0.00    +0.007 A 
ATOM      6  C   UNL     1      -3.614   1.740   0.357  0.00  0.00    +0.024 A 
ENDROOT
BRANCH   4   7
ATOM      7  C   UNL     1      -6.013  -1.158   0.666  0.00  0.00    +0.141 C 
ATOM      8  C   UNL     1      -6.546  -1.469  -0.717  0.00  0.00    +0.078 C 
ATOM      9  C   UNL     1      -6.723  -2.767  -1.046  0.00  0.00    +0.021 C 
ATOM     10  N   UNL     1      -6.431  -3.764  -0.160  0.00  0.00    -0.289 N 
ATOM     11  C   UNL     1      -5.957  -3.546   1.073  0.00  0.00    +0.137 C 
ATOM     12  S   UNL     1      -5.632  -4.889   2.084  0.00  0.00    -0.018 S 
ATOM     13  N   UNL     1      -5.729  -2.305   1.545  0.00  0.00    -0.315 N 
ATOM     14  C   UNL     1      -6.647  -5.150  -0.584  0.00  0.00    +0.137 C 
ATOM     15  C   UNL     1      -7.251  -3.121  -2.412  0.00  0.00    +0.061 C 
ATOM     16  H   UNL     1      -5.386  -2.170   2.442  0.00  0.00    +0.149 HD
BRANCH   8  17
ATOM     17  C   UNL     1      -6.849  -0.435  -1.634  0.00  0.00    +0.339 C 
ATOM     18  O   UNL     1      -7.277  -0.709  -2.740  0.00  0.00    -0.245 OA
BRANCH  17  19
ATOM     19  O   UNL     1      -6.665   0.854  -1.281  0.00  0.00    -0.461 OA
BRANCH  19  20
ATOM     20  C   UNL     1      -6.992   1.846  -2.256  0.00  0.00    +0.235 C 
BRANCH  20  21
ATOM     21  C   UNL     1      -6.718   3.237  -1.681  0.00  0.00    +0.020 C 
ATOM     22  C   UNL     1      -6.949   4.292  -2.764  0.00  0.00    +0.010 C 
ATOM     23  C   UNL     1      -7.663   3.497  -0.506  0.00  0.00    +0.010 C 
ENDBRANCH  20  21
ENDBRANCH  19  20
ENDBRANCH  17  19
ENDBRANCH   8  17
ENDBRANCH   4   7
BRANCH   1  27
ATOM     24  N   UNL     1       1.050   2.104   0.534  0.00  0.00    -0.269 N 
ATOM     25  C   UNL     1      -0.069   1.356   0.600  0.00  0.00    +0.308 C 
ATOM     26  O   UNL     1      -0.042   0.267   1.140  0.00  0.00    -0.252 OA
ATOM     27  N   UNL     1      -1.218   1.813   0.063  0.00  0.00    -0.269 N 
ATOM     28  H   UNL     1       1.050   2.935   0.034  0.00  0.00    +0.156 HD
ATOM     29  H   UNL     1      -1.224   2.650  -0.427  0.00  0.00    +0.156 HD
BRANCH  24  36
ATOM     30  C   UNL     1       3.554   3.042  -0.438  0.00  0.00    +0.045 C 
ATOM     31  C   UNL     1       3.456   2.116   0.747  0.00  0.00    -0.029 A 
ATOM     32  C   UNL     1       4.602   1.698   1.395  0.00  0.00    +0.005 A 
ATOM     33  C   UNL     1       4.512   0.849   2.482  0.00  0.00    +0.000 A 
ATOM     34  C   UNL     1       3.276   0.415   2.925  0.00  0.00    +0.002 A 
ATOM     35  C   UNL     1       2.126   0.833   2.284  0.00  0.00    +0.023 A 
ATOM     36  C   UNL     1       2.213   1.682   1.188  0.00  0.00    +0.038 A 
ENDBRANCH  24  36
ENDBRANCH   1  27
TORSDOF 7
