REMARK  Name = ZINC16805453
REMARK  8 active torsions:
REMARK  status: ('A' for Active; 'I' for Inactive)
REMARK    1  A    between atoms: C_3  and  C_13
REMARK    2  A    between atoms: C_4  and  N_10
REMARK    3  A    between atoms: C_6  and  C_7
REMARK    4  A    between atoms: C_13  and  O_14
REMARK    5  A    between atoms: O_14  and  C_15
REMARK    6  A    between atoms: C_15  and  C_17
REMARK    7  A    between atoms: C_17  and  C_18
REMARK    8  A    between atoms: C_25  and  C_30
REMARK                            x       y       z     vdW  Elec       q    Type
REMARK                         _______ _______ _______ _____ _____    ______ ____
ROOT
ATOM      1  C   UNL     1       1.722   2.888   2.373  0.00  0.00    +0.309 C 
ATOM      2  O   UNL     1       0.886   3.679   2.005  0.00  0.00    -0.251 OA
ENDROOT
BRANCH   1   3
ATOM      3  O   UNL     1       2.095   2.857   3.662  0.00  0.00    -0.460 OA
BRANCH   3   4
ATOM      4  C   UNL     1       1.453   3.803   4.557  0.00  0.00    +0.269 C 
BRANCH   4   7
ATOM      5  C   UNL     1       3.458   2.489   7.471  0.00  0.00    +0.013 A 
ATOM      6  C   UNL     1       2.958   2.659   6.197  0.00  0.00    +0.010 A 
ATOM      7  C   UNL     1       1.994   3.621   5.952  0.00  0.00    +0.020 A 
ATOM      8  C   UNL     1       1.530   4.422   6.981  0.00  0.00    +0.133 A 
ATOM      9  C   UNL     1       2.018   4.258   8.260  0.00  0.00    +0.046 A 
ATOM     10  C   UNL     1       2.991   3.290   8.514  0.00  0.00    +0.039 A 
BRANCH  10  11
ATOM     11  C   UNL     1       3.522   3.112   9.882  0.00  0.00    +0.242 C 
ATOM     12  O   UNL     1       3.113   3.811  10.789  0.00  0.00    -0.270 OA
ATOM     13  N   UNL     1       4.461   2.176  10.124  0.00  0.00    -0.325 N 
ATOM     14  H   UNL     1       4.787   1.618   9.401  0.00  0.00    +0.145 HD
ATOM     15  H   UNL     1       4.810   2.059  11.022  0.00  0.00    +0.145 HD
ENDBRANCH  10  11
BRANCH   8  16
ATOM     16  N   UNL     1       0.504   5.453   6.708  0.00  0.00    +0.057 N 
ATOM     17  O   UNL     1       0.095   6.159   7.612  0.00  0.00    -0.126 OA
ATOM     18  O   UNL     1       0.069   5.596   5.580  0.00  0.00    -0.126 OA
ENDBRANCH   8  16
ENDBRANCH   4   7
ENDBRANCH   3   4
ENDBRANCH   1   3
BRANCH   1  19
ATOM     19  C   UNL     1       2.346   1.936   1.385  0.00  0.00    +0.144 C 
BRANCH  19  20
ATOM     20  C   UNL     1       1.749   2.179  -0.003  0.00  0.00    +0.148 C 
ATOM     21  C   UNL     1       2.438   1.297  -1.012  0.00  0.00    +0.231 C 
ATOM     22  O   UNL     1       3.326   1.776  -1.685  0.00  0.00    -0.274 OA
ATOM     23  N   UNL     1       2.121   0.020  -1.200  0.00  0.00    -0.284 N 
ATOM     24  C   UNL     1       1.063  -0.668  -0.612  0.00  0.00    +0.047 A 
ATOM     25  C   UNL     1       1.070  -2.059  -0.624  0.00  0.00    +0.036 A 
ATOM     26  C   UNL     1       0.043  -2.765  -0.029  0.00  0.00    +0.057 A 
ATOM     27  C   UNL     1      -1.003  -2.099   0.583  0.00  0.00    +0.013 A 
ATOM     28  C   UNL     1      -1.025  -0.717   0.598  0.00  0.00    +0.017 A 
ATOM     29  C   UNL     1       0.002  -0.004   0.002  0.00  0.00    +0.030 A 
ATOM     30  S   UNL     1      -0.022   1.762   0.012  0.00  0.00    -0.110 S 
ATOM     31  H   UNL     1       2.683  -0.483  -1.809  0.00  0.00    +0.155 HD
BRANCH  26  32
ATOM     32  C   UNL     1       0.062  -4.272  -0.048  0.00  0.00    +0.417 C 
ATOM     33  F   UNL     1       0.732  -4.744   1.087  0.00  0.00    -0.166 F 
ATOM     34  F   UNL     1      -1.251  -4.755  -0.049  0.00  0.00    -0.166 F 
ATOM     35  F   UNL     1       0.723  -4.716  -1.198  0.00  0.00    -0.166 F 
ENDBRANCH  26  32
ENDBRANCH  19  20
ENDBRANCH   1  19
TORSDOF 8
