REMARK  Name = ZINC03408895
REMARK  6 active torsions:
REMARK  status: ('A' for Active; 'I' for Inactive)
REMARK    1  A    between atoms: C_3  and  N_23
REMARK    2  A    between atoms: C_6  and  C_7
REMARK    3  A    between atoms: C_7  and  O_9
REMARK    4  A    between atoms: O_9  and  C_10
REMARK    5  A    between atoms: C_10  and  C_11
REMARK    6  A    between atoms: N_13  and  C_14
REMARK                            x       y       z     vdW  Elec       q    Type
REMARK                         _______ _______ _______ _____ _____    ______ ____
ROOT
ATOM      1  C   UNL     1       4.512   8.093  -1.077  0.00  0.00    +0.340 C 
ATOM      2  O   UNL     1       5.627   7.677  -0.828  0.00  0.00    -0.245 OA
ENDROOT
BRANCH   1   8
ATOM      3  C   UNL     1       3.048   9.964  -1.818  0.00  0.00    +0.017 A 
ATOM      4  C   UNL     1       2.879  11.266  -2.231  0.00  0.00    +0.024 A 
ATOM      5  C   UNL     1       3.983  12.103  -2.368  0.00  0.00    +0.035 A 
ATOM      6  C   UNL     1       5.259  11.628  -2.082  0.00  0.00    +0.024 A 
ATOM      7  C   UNL     1       5.435  10.329  -1.663  0.00  0.00    +0.017 A 
ATOM      8  C   UNL     1       4.329   9.486  -1.525  0.00  0.00    +0.059 A 
BRANCH   5   9
ATOM      9  N   UNL     1       3.809  13.419  -2.792  0.00  0.00    -0.270 N 
ATOM     10  C   UNL     1       4.726  13.996  -3.593  0.00  0.00    +0.301 C 
ATOM     11  O   UNL     1       5.746  13.398  -3.878  0.00  0.00    -0.253 OA
ATOM     12  N   UNL     1       4.513  15.235  -4.079  0.00  0.00    -0.313 N 
ATOM     13  H   UNL     1       2.923  13.988  -2.472  0.00  0.00    +0.156 HD
ATOM     14  H   UNL     1       5.262  15.706  -4.733  0.00  0.00    +0.146 HD
ATOM     15  H   UNL     1       3.590  15.776  -3.821  0.00  0.00    +0.146 HD
ENDBRANCH   5   9
ENDBRANCH   1   8
BRANCH   1  16
ATOM     16  O   UNL     1       3.445   7.281  -0.945  0.00  0.00    -0.452 OA
BRANCH  16  17
ATOM     17  C   UNL     1       3.701   5.923  -0.500  0.00  0.00    +0.328 C 
BRANCH  17  18
ATOM     18  C   UNL     1       2.399   5.170  -0.411  0.00  0.00    +0.255 C 
ATOM     19  O   UNL     1       1.357   5.723  -0.694  0.00  0.00    -0.272 OA
ATOM     20  N   UNL     1       2.391   3.881  -0.016  0.00  0.00    -0.280 N 
ATOM     21  H   UNL     1       3.328   3.396   0.297  0.00  0.00    +0.155 HD
BRANCH  20  22
ATOM     22  C   UNL     1       1.191   3.159  -0.004  0.00  0.00    +0.071 A 
ATOM     23  C   UNL     1       0.294   3.282  -1.058  0.00  0.00    +0.065 A 
ATOM     24  C   UNL     1      -0.889   2.569  -1.044  0.00  0.00    +0.042 A 
ATOM     25  C   UNL     1      -1.185   1.737   0.022  0.00  0.00    +0.044 A 
ATOM     26  C   UNL     1      -0.291   1.608   1.071  0.00  0.00    +0.042 A 
ATOM     27  C   UNL     1       0.894   2.319   1.062  0.00  0.00    +0.065 A 
ATOM     28 CL   UNL     1       2.011   2.162   2.381  0.00  0.00    -0.082 Cl
ATOM     29 CL   UNL     1      -2.675   0.848   0.039  0.00  0.00    -0.083 Cl
ATOM     30 CL   UNL     1       0.661   4.330  -2.393  0.00  0.00    -0.082 Cl
ENDBRANCH  20  22
ENDBRANCH  17  18
ENDBRANCH  16  17
ENDBRANCH   1  16
TORSDOF 6
