REMARK  Name = ZINC06266129
REMARK  8 active torsions:
REMARK  status: ('A' for Active; 'I' for Inactive)
REMARK    1  A    between atoms: C_1  and  C_2
REMARK    2  A    between atoms: C_9  and  N_14
REMARK    3  A    between atoms: C_10  and  C_11
REMARK    4  A    between atoms: N_14  and  C_15
REMARK    5  A    between atoms: C_15  and  N_17
REMARK    6  A    between atoms: C_18  and  C_20
REMARK    7  A    between atoms: C_25  and  O_26
REMARK    8  A    between atoms: O_26  and  C_27
REMARK                            x       y       z     vdW  Elec       q    Type
REMARK                         _______ _______ _______ _____ _____    ______ ____
ROOT
ATOM      1  N   UNL     1      -1.119   2.575   0.022  0.00  0.00    -0.291 N 
ATOM      2  H   UNL     1      -0.990   3.536   0.026  0.00  0.00    +0.154 HD
ENDROOT
BRANCH   1  10
ATOM      3  C   UNL     1       4.799  -2.537  -0.153  0.00  0.00    +0.008 C 
ATOM      4  C   UNL     1       3.951  -1.292  -0.424  0.00  0.00    -0.009 C 
ATOM      5  C   UNL     1       4.473  -0.122   0.415  0.00  0.00    +0.008 C 
ATOM      6  C   UNL     1       3.798   1.177  -0.027  0.00  0.00    +0.037 C 
ATOM      7  C   UNL     1       2.288   0.974  -0.015  0.00  0.00    -0.023 A 
ATOM      8  C   UNL     1       1.753  -0.266  -0.017  0.00  0.00    -0.004 A 
ATOM      9  S   UNL     1       0.002  -0.004   0.002  0.00  0.00    -0.077 S 
ATOM     10  C   UNL     1      -0.021   1.728   0.011  0.00  0.00    +0.084 A 
ATOM     11  C   UNL     1       1.326   2.063   0.001  0.00  0.00    +0.068 A 
ATOM     12  C   UNL     1       2.492  -1.569  -0.032  0.00  0.00    +0.046 C 
BRANCH  11  13
ATOM     13  C   UNL     1       1.762   3.462   0.003  0.00  0.00    +0.244 C 
ATOM     14  O   UNL     1       1.953   4.038   1.059  0.00  0.00    -0.270 OA
ATOM     15  N   UNL     1       1.950   4.112  -1.162  0.00  0.00    -0.325 N 
ATOM     16  H   UNL     1       1.798   3.653  -2.003  0.00  0.00    +0.145 HD
ATOM     17  H   UNL     1       2.239   5.038  -1.161  0.00  0.00    +0.145 HD
ENDBRANCH  11  13
ENDBRANCH   1  10
BRANCH   1  18
ATOM     18  C   UNL     1      -2.365   2.062   0.025  0.00  0.00    +0.141 C 
ATOM     19  S   UNL     1      -2.593   0.365   0.018  0.00  0.00    -0.018 S 
BRANCH  18  20
ATOM     20  N   UNL     1      -3.432   2.885   0.035  0.00  0.00    -0.263 N 
ATOM     21  C   UNL     1      -4.679   2.372   0.039  0.00  0.00    +0.253 C 
ATOM     22  O   UNL     1      -4.840   1.167   0.034  0.00  0.00    -0.270 OA
ATOM     23  H   UNL     1      -3.303   3.846   0.040  0.00  0.00    +0.157 HD
BRANCH  21  24
ATOM     24  C   UNL     1      -5.846   3.273   0.050  0.00  0.00    +0.079 A 
ATOM     25  C   UNL     1      -5.665   4.658   0.056  0.00  0.00    +0.017 A 
ATOM     26  C   UNL     1      -6.760   5.494   0.066  0.00  0.00    +0.001 A 
ATOM     27  C   UNL     1      -8.042   4.967   0.069  0.00  0.00    +0.004 A 
ATOM     28  C   UNL     1      -8.235   3.600   0.063  0.00  0.00    +0.046 A 
ATOM     29  C   UNL     1      -7.144   2.744   0.048  0.00  0.00    +0.132 A 
BRANCH  29  30
ATOM     30  O   UNL     1      -7.333   1.401   0.037  0.00  0.00    -0.494 OA
ATOM     31  C   UNL     1      -8.684   0.935   0.035  0.00  0.00    +0.277 C 
ENDBRANCH  29  30
ENDBRANCH  21  24
ENDBRANCH  18  20
ENDBRANCH   1  18
TORSDOF 6
