REMARK  Name = ZINC66192388
REMARK  8 active torsions:
REMARK  status: ('A' for Active; 'I' for Inactive)
REMARK    1  A    between atoms: C_1  and  C_2
REMARK    2  A    between atoms: C_2  and  C_3
REMARK    3  A    between atoms: C_3  and  C_4
REMARK    4  A    between atoms: C_4  and  C_6
REMARK    5  A    between atoms: C_4  and  N_17
REMARK    6  A    between atoms: N_20  and  C_21
REMARK    7  A    between atoms: C_21  and  C_22
REMARK    8  A    between atoms: C_27  and  O_28
REMARK                            x       y       z     vdW  Elec       q    Type
REMARK                         _______ _______ _______ _____ _____    ______ ____
ROOT
ATOM      1  C   UNL     1      -1.413  -2.063   0.004  0.00  0.00    +0.161 C 
ENDROOT
BRANCH   1   2
ATOM      2  C   UNL     1      -2.820  -2.586   0.139  0.00  0.00    +0.236 C 
ATOM      3  O   UNL     1      -3.293  -3.285  -0.732  0.00  0.00    -0.274 OA
ATOM      4  N   UNL     1      -3.552  -2.276   1.227  0.00  0.00    -0.295 N 
ATOM      5  C   UNL     1      -4.925  -2.785   1.371  0.00  0.00    +0.113 C 
ATOM      6  C   UNL     1      -4.963  -3.731   2.582  0.00  0.00    +0.061 C 
ATOM      7  C   UNL     1      -4.185  -3.113   3.698  0.00  0.00    -0.004 A 
ATOM      8  C   UNL     1      -3.290  -2.091   3.627  0.00  0.00    -0.020 A 
ATOM      9  C   UNL     1      -2.688  -1.703   4.823  0.00  0.00    +0.013 A 
ATOM     10  C   UNL     1      -3.009  -2.332   5.977  0.00  0.00    +0.046 A 
ATOM     11  S   UNL     1      -4.206  -3.535   5.420  0.00  0.00    -0.101 S 
ATOM     12  C   UNL     1      -2.989  -1.430   2.288  0.00  0.00    +0.143 C 
ENDBRANCH   1   2
BRANCH   1  13
ATOM     13  N   UNL     1      -0.834  -2.537  -1.256  0.00  0.00    -0.288 N 
ATOM     14  C   UNL     1       0.503  -2.647  -1.384  0.00  0.00    +0.300 C 
ATOM     15  O   UNL     1       1.229  -2.353  -0.454  0.00  0.00    -0.253 OA
ATOM     16  N   UNL     1       1.035  -3.083  -2.543  0.00  0.00    -0.295 N 
ATOM     17  H   UNL     1      -1.414  -2.772  -1.997  0.00  0.00    +0.151 HD
ATOM     18  H   UNL     1       0.456  -3.317  -3.285  0.00  0.00    +0.151 HD
BRANCH  16  19
ATOM     19  C   UNL     1       2.488  -3.202  -2.683  0.00  0.00    +0.144 C 
BRANCH  19  20
ATOM     20  C   UNL     1       2.821  -3.707  -4.064  0.00  0.00    +0.011 A 
ATOM     21  C   UNL     1       3.116  -5.042  -4.259  0.00  0.00    +0.009 A 
ATOM     22  C   UNL     1       3.422  -5.505  -5.525  0.00  0.00    +0.001 A 
ATOM     23  C   UNL     1       3.431  -4.634  -6.599  0.00  0.00    +0.004 A 
ATOM     24  C   UNL     1       3.136  -3.298  -6.409  0.00  0.00    +0.046 A 
ATOM     25  C   UNL     1       2.824  -2.832  -5.140  0.00  0.00    +0.122 A 
BRANCH  25  26
ATOM     26  O   UNL     1       2.527  -1.519  -4.951  0.00  0.00    -0.506 OA
ATOM     27  H   UNL     1       3.296  -0.967  -4.753  0.00  0.00    +0.292 HD
ENDBRANCH  25  26
ENDBRANCH  19  20
ENDBRANCH  16  19
ENDBRANCH   1  13
BRANCH   1  28
ATOM     28  C   UNL     1      -1.433  -0.534   0.013  0.00  0.00    +0.031 C 
BRANCH  28  30
ATOM     29  C   UNL     1      -0.019   1.526   0.010  0.00  0.00    +0.004 C 
ATOM     30  C   UNL     1       0.002  -0.004   0.002  0.00  0.00    -0.001 C 
ENDBRANCH  28  30
ENDBRANCH   1  28
TORSDOF 7
