REMARK  Name = ZINC65366099
REMARK  3 active torsions:
REMARK  status: ('A' for Active; 'I' for Inactive)
REMARK    1  A    between atoms: C_1  and  C_2
REMARK    2  A    between atoms: C_4  and  C_8
REMARK    3  A    between atoms: C_16  and  C_22
REMARK                            x       y       z     vdW  Elec       q    Type
REMARK                         _______ _______ _______ _____ _____    ______ ____
ROOT
ATOM      1  C   UNL     1      -0.976  -2.937  -1.266  0.00  0.00    +0.203 C 
ATOM      2  N   UNL     1      -0.552  -4.355  -1.196  0.00  0.00    -0.278 NA
ATOM      3  C   UNL     1      -1.749  -5.015  -0.615  0.00  0.00    +0.187 C 
ATOM      4  C   UNL     1      -2.897  -4.096  -0.994  0.00  0.00    +0.042 C 
ATOM      5  N   UNL     1      -2.441  -2.960  -1.351  0.00  0.00    -0.269 NA
ATOM      6  C   UNL     1      -4.341  -4.517  -0.963  0.00  0.00    +0.062 C 
ATOM      7  C   UNL     1      -4.710  -5.019   0.443  0.00  0.00    +0.042 C 
ATOM      8  C   UNL     1      -3.901  -4.224   1.474  0.00  0.00    +0.112 C 
ATOM      9  N   UNL     1      -2.605  -4.829   1.714  0.00  0.00    -0.313 N 
ATOM     10  C   UNL     1      -1.592  -5.044   0.883  0.00  0.00    +0.236 C 
ATOM     11  O   UNL     1      -0.489  -5.254   1.340  0.00  0.00    -0.274 OA
ATOM     12  H   UNL     1      -0.349  -4.718  -2.116  0.00  0.00    +0.125 HD
ATOM     13  H   UNL     1      -2.454  -5.136   2.622  0.00  0.00    +0.149 HD
ENDROOT
BRANCH   7  14
ATOM     14  C   UNL     1      -6.183  -4.812   0.683  0.00  0.00    -0.042 A 
ATOM     15  C   UNL     1      -6.721  -3.540   0.628  0.00  0.00    +0.005 A 
ATOM     16  C   UNL     1      -8.072  -3.350   0.848  0.00  0.00    +0.020 A 
ATOM     17  C   UNL     1      -8.887  -4.434   1.124  0.00  0.00    +0.041 A 
ATOM     18  C   UNL     1      -8.348  -5.707   1.180  0.00  0.00    +0.020 A 
ATOM     19  C   UNL     1      -6.998  -5.896   0.954  0.00  0.00    +0.005 A 
ATOM     20 CL   UNL     1     -10.584  -4.196   1.402  0.00  0.00    -0.084 Cl
ENDBRANCH   7  14
BRANCH   1  24
ATOM     21  C   UNL     1      -0.018   1.503   0.010  0.00  0.00    +0.067 C 
ATOM     22  C   UNL     1       0.002  -0.004   0.002  0.00  0.00    +0.058 C 
ATOM     23  C   UNL     1      -1.086  -0.777   0.003  0.00  0.00    +0.029 C 
ATOM     24  C   UNL     1      -0.531  -2.190  -0.007  0.00  0.00    +0.191 C 
ATOM     25  N   UNL     1       0.926  -1.973  -0.013  0.00  0.00    -0.176 NA
ATOM     26  N   UNL     1       1.125  -0.756  -0.013  0.00  0.00    -0.159 NA
ENDBRANCH   1  24
TORSDOF 2
