REMARK  Name = ZINC16577208
REMARK  15 active torsions:
REMARK  status: ('A' for Active; 'I' for Inactive)
REMARK    1  A    between atoms: C_1  and  C_2
REMARK    2  A    between atoms: C_2  and  C_37
REMARK    3  A    between atoms: C_3  and  C_22
REMARK    4  A    between atoms: C_6  and  C_8
REMARK    5  A    between atoms: N_10  and  C_11
REMARK    6  A    between atoms: C_11  and  N_13
REMARK    7  A    between atoms: N_13  and  C_14
REMARK    8  A    between atoms: C_19  and  O_20
REMARK    9  A    between atoms: O_20  and  C_21
REMARK   10  A    between atoms: C_22  and  C_23
REMARK   11  A    between atoms: N_25  and  C_26
REMARK   12  A    between atoms: C_26  and  N_28
REMARK   13  A    between atoms: N_28  and  C_29
REMARK   14  A    between atoms: C_34  and  O_35
REMARK   15  A    between atoms: O_35  and  C_36
REMARK                            x       y       z     vdW  Elec       q    Type
REMARK                         _______ _______ _______ _____ _____    ______ ____
ROOT
ATOM      1  C   UNL     1      -1.192  10.908   0.738  0.00  0.00    +0.012 C 
ATOM      2  C   UNL     1      -2.592  11.061   0.140  0.00  0.00    -0.021 C 
ATOM      3  C   UNL     1      -3.717  11.011   1.187  0.00  0.00    +0.005 C 
ATOM      4  C   UNL     1      -3.737   9.488   0.978  0.00  0.00    +0.018 C 
ATOM      5  C   UNL     1      -3.167   9.752  -0.426  0.00  0.00    +0.082 C 
ATOM      6  C   UNL     1      -2.702  12.246  -0.822  0.00  0.00    +0.012 C 
ENDROOT
BRANCH   5   7
ATOM      7  C   UNL     1      -2.111   8.761  -0.845  0.00  0.00    +0.222 C 
ATOM      8  O   UNL     1      -0.938   9.057  -0.771  0.00  0.00    -0.275 OA
ATOM      9  N   UNL     1      -2.473   7.546  -1.303  0.00  0.00    -0.267 N 
ATOM     10  H   UNL     1      -3.411   7.309  -1.363  0.00  0.00    +0.157 HD
BRANCH   9  11
ATOM     11  C   UNL     1      -1.529   6.660  -1.678  0.00  0.00    +0.141 C 
ATOM     12  S   UNL     1       0.128   7.077  -1.573  0.00  0.00    -0.018 S 
BRANCH  11  13
ATOM     13  N   UNL     1      -1.890   5.445  -2.136  0.00  0.00    -0.294 N 
ATOM     14  H   UNL     1      -2.828   5.233  -2.263  0.00  0.00    +0.154 HD
BRANCH  13  15
ATOM     15  C   UNL     1      -0.910   4.487  -2.429  0.00  0.00    +0.075 A 
ATOM     16  C   UNL     1       0.126   4.256  -1.536  0.00  0.00    +0.027 A 
ATOM     17  C   UNL     1       1.091   3.311  -1.827  0.00  0.00    +0.002 A 
ATOM     18  C   UNL     1       1.028   2.594  -3.008  0.00  0.00    +0.004 A 
ATOM     19  C   UNL     1      -0.005   2.815  -3.901  0.00  0.00    +0.047 A 
ATOM     20  C   UNL     1      -0.973   3.765  -3.619  0.00  0.00    +0.141 A 
BRANCH  20  21
ATOM     21  O   UNL     1      -1.986   3.987  -4.498  0.00  0.00    -0.493 OA
ATOM     22  C   UNL     1      -1.987   3.209  -5.697  0.00  0.00    +0.277 C 
ENDBRANCH  20  21
ENDBRANCH  13  15
ENDBRANCH  11  13
ENDBRANCH   9  11
ENDBRANCH   5   7
BRANCH   3  23
ATOM     23  C   UNL     1      -3.270  11.432   2.588  0.00  0.00    +0.100 C 
BRANCH  23  24
ATOM     24  C   UNL     1      -4.451  11.396   3.524  0.00  0.00    +0.219 C 
ATOM     25  O   UNL     1      -5.542  11.066   3.111  0.00  0.00    -0.275 OA
ATOM     26  N   UNL     1      -4.293  11.730   4.821  0.00  0.00    -0.268 N 
ATOM     27  H   UNL     1      -3.421  11.993   5.151  0.00  0.00    +0.156 HD
BRANCH  26  28
ATOM     28  C   UNL     1      -5.349  11.697   5.658  0.00  0.00    +0.141 C 
ATOM     29  S   UNL     1      -6.890  11.232   5.074  0.00  0.00    -0.018 S 
BRANCH  28  30
ATOM     30  N   UNL     1      -5.192  12.031   6.954  0.00  0.00    -0.294 N 
ATOM     31  H   UNL     1      -4.337  12.364   7.269  0.00  0.00    +0.154 HD
BRANCH  30  32
ATOM     32  C   UNL     1      -6.264  11.899   7.846  0.00  0.00    +0.075 A 
ATOM     33  C   UNL     1      -7.032  10.744   7.843  0.00  0.00    +0.027 A 
ATOM     34  C   UNL     1      -8.086  10.613   8.728  0.00  0.00    +0.002 A 
ATOM     35  C   UNL     1      -8.384  11.636   9.610  0.00  0.00    +0.004 A 
ATOM     36  C   UNL     1      -7.625  12.792   9.615  0.00  0.00    +0.047 A 
ATOM     37  C   UNL     1      -6.564  12.928   8.735  0.00  0.00    +0.141 A 
BRANCH  37  38
ATOM     38  O   UNL     1      -5.817  14.065   8.739  0.00  0.00    -0.493 OA
ATOM     39  C   UNL     1      -6.183  15.078   9.678  0.00  0.00    +0.277 C 
ENDBRANCH  37  38
ENDBRANCH  30  32
ENDBRANCH  28  30
ENDBRANCH  26  28
ENDBRANCH  23  24
ENDBRANCH   3  23
TORSDOF 11
