REMARK  Name = ZINC04327216
REMARK  4 active torsions:
REMARK  status: ('A' for Active; 'I' for Inactive)
REMARK    1  A    between atoms: C_5  and  C_7
REMARK    2  A    between atoms: C_13  and  S_16
REMARK    3  A    between atoms: S_16  and  C_17
REMARK    4  A    between atoms: C_17  and  C_18
REMARK                            x       y       z     vdW  Elec       q    Type
REMARK                         _______ _______ _______ _____ _____    ______ ____
ROOT
ATOM      1  C   UNL     1       5.109   0.929  -0.040  0.00  0.00    +0.203 A 
ATOM      2  N   UNL     1       6.114   1.787  -0.045  0.00  0.00    -0.125 NA
ATOM      3  N   UNL     1       5.665   2.993  -0.035  0.00  0.00    -0.128 NA
ATOM      4  C   UNL     1       4.339   2.973  -0.023  0.00  0.00    +0.178 A 
ATOM      5  N   UNL     1       3.956   1.657  -0.026  0.00  0.00    -0.190 N 
ATOM      6  N   UNL     1       2.601   1.321  -0.010  0.00  0.00    -0.157 NA
ATOM      7  C   UNL     1       1.681   2.259  -0.002  0.00  0.00    +0.118 A 
ATOM      8  C   UNL     1       2.042   3.621   0.002  0.00  0.00    +0.040 A 
ATOM      9  C   UNL     1       3.354   3.978  -0.009  0.00  0.00    +0.053 A 
ENDROOT
BRANCH   1  14
ATOM     10  C   UNL     1       6.557  -2.528  -0.069  0.00  0.00    +0.004 A 
ATOM     11  C   UNL     1       5.378  -3.263  -0.061  0.00  0.00    +0.020 A 
ATOM     12  C   UNL     1       4.165  -2.601  -0.046  0.00  0.00    +0.111 A 
ATOM     13  N   UNL     1       4.112  -1.284  -0.035  0.00  0.00    -0.252 NA
ATOM     14  C   UNL     1       5.216  -0.543  -0.048  0.00  0.00    +0.110 A 
ATOM     15  C   UNL     1       6.475  -1.147  -0.062  0.00  0.00    +0.031 A 
ENDBRANCH   1  14
BRANCH   7  16
ATOM     16  S   UNL     1      -0.022   1.810   0.012  0.00  0.00    -0.100 S 
BRANCH  16  17
ATOM     17  C   UNL     1       0.002  -0.004   0.002  0.00  0.00    +0.111 C 
BRANCH  17  18
ATOM     18  C   UNL     1      -1.412  -0.526   0.013  0.00  0.00    -0.037 A 
ATOM     19  C   UNL     1      -2.046  -0.777   1.215  0.00  0.00    +0.006 A 
ATOM     20  C   UNL     1      -3.345  -1.250   1.225  0.00  0.00    +0.020 A 
ATOM     21  C   UNL     1      -4.006  -1.483   0.032  0.00  0.00    +0.041 A 
ATOM     22  C   UNL     1      -3.368  -1.237  -1.171  0.00  0.00    +0.020 A 
ATOM     23  C   UNL     1      -2.071  -0.758  -1.180  0.00  0.00    +0.006 A 
ATOM     24 CL   UNL     1      -5.635  -2.083   0.045  0.00  0.00    -0.084 Cl
ENDBRANCH  17  18
ENDBRANCH  16  17
ENDBRANCH   7  16
TORSDOF 4
