REMARK  Name = ZINC08968148
REMARK  9 active torsions:
REMARK  status: ('A' for Active; 'I' for Inactive)
REMARK    1  A    between atoms: C_1  and  C_2
REMARK    2  A    between atoms: C_5  and  C_8
REMARK    3  A    between atoms: C_8  and  C_10
REMARK    4  A    between atoms: C_8  and  S_25
REMARK    5  A    between atoms: C_10  and  N_11
REMARK    6  A    between atoms: C_12  and  C_14
REMARK    7  A    between atoms: N_16  and  N_17
REMARK    8  A    between atoms: C_18  and  C_20
REMARK    9  A    between atoms: S_25  and  C_28
REMARK                            x       y       z     vdW  Elec       q    Type
REMARK                         _______ _______ _______ _____ _____    ______ ____
ROOT
ATOM      1  C   UNL     1      -0.013   1.086   0.008  0.00  0.00    +0.136 C 
ENDROOT
BRANCH   1   2
ATOM      2  N   UNL     1      -0.721   1.571  -1.179  0.00  0.00    -0.305 N 
ATOM      3  C   UNL     1      -0.268   1.258  -2.409  0.00  0.00    +0.301 C 
ATOM      4  O   UNL     1       0.727   0.575  -2.534  0.00  0.00    -0.265 OA
ATOM      5  H   UNL     1      -1.516   2.118  -1.079  0.00  0.00    +0.149 HD
BRANCH   3   6
ATOM      6  C   UNL     1      -0.991   1.754  -3.620  0.00  0.00    +0.315 C 
ATOM      7  O   UNL     1      -1.986   2.437  -3.495  0.00  0.00    -0.264 OA
ATOM      8  N   UNL     1      -0.538   1.441  -4.850  0.00  0.00    -0.226 N 
ATOM      9  H   UNL     1       0.257   0.894  -4.949  0.00  0.00    +0.173 HD
BRANCH   8  10
ATOM     10  N   UNL     1      -1.215   1.905  -5.985  0.00  0.00    -0.227 N 
ATOM     11  C   UNL     1      -0.762   1.592  -7.215  0.00  0.00    +0.295 C 
ATOM     12  O   UNL     1       0.235   0.907  -7.340  0.00  0.00    -0.265 OA
ATOM     13  H   UNL     1      -2.011   2.451  -5.886  0.00  0.00    +0.173 HD
BRANCH  11  14
ATOM     14  C   UNL     1      -1.472   2.078  -8.403  0.00  0.00    +0.190 A 
ATOM     15  C   UNL     1      -1.122   1.836  -9.701  0.00  0.00    +0.054 A 
ATOM     16  C   UNL     1      -2.072   2.488 -10.503  0.00  0.00    +0.042 A 
ATOM     17  C   UNL     1      -2.949   3.091  -9.670  0.00  0.00    +0.196 A 
ATOM     18  O   UNL     1      -2.587   2.837  -8.406  0.00  0.00    -0.458 OA
ENDBRANCH  11  14
ENDBRANCH   8  10
ENDBRANCH   3   6
ENDBRANCH   1   2
BRANCH   1  19
ATOM     19  C   UNL     1      -0.729   1.579   1.267  0.00  0.00    +0.183 C 
BRANCH  19  24
ATOM     20  C   UNL     1       2.064  -0.335   5.949  0.00  0.00    +0.044 C 
ATOM     21  C   UNL     1       1.337   0.164   4.728  0.00  0.00    -0.050 A 
ATOM     22  C   UNL     1       1.190   1.523   4.518  0.00  0.00    +0.004 A 
ATOM     23  C   UNL     1       0.522   1.980   3.397  0.00  0.00    +0.006 A 
ATOM     24  C   UNL     1       0.000   1.080   2.488  0.00  0.00    -0.022 A 
ATOM     25  C   UNL     1       0.142  -0.278   2.701  0.00  0.00    +0.006 A 
ATOM     26  C   UNL     1       0.815  -0.736   3.818  0.00  0.00    +0.004 A 
ENDBRANCH  19  24
BRANCH  19  27
ATOM     27  S   UNL     1      -2.431   0.951   1.280  0.00  0.00    +0.011 S 
ATOM     28  O   UNL     1      -3.053   1.249   2.522  0.00  0.00    -0.168 OA
ATOM     29  O   UNL     1      -3.076   1.263   0.053  0.00  0.00    -0.168 OA
BRANCH  27  30
ATOM     30  C   UNL     1      -2.266  -0.803   1.269  0.00  0.00    +0.126 A 
ATOM     31  C   UNL     1      -2.176  -1.658   2.316  0.00  0.00    +0.035 A 
ATOM     32  C   UNL     1      -2.052  -3.012   2.067  0.00  0.00    +0.009 A 
ATOM     33  C   UNL     1      -2.024  -3.445   0.783  0.00  0.00    +0.047 A 
ATOM     34  S   UNL     1      -2.182  -1.915  -0.125  0.00  0.00    -0.078 S 
ENDBRANCH  27  30
ENDBRANCH  19  27
ENDBRANCH   1  19
TORSDOF 8
