REMARK  Name = ZINC61856601
REMARK  4 active torsions:
REMARK  status: ('A' for Active; 'I' for Inactive)
REMARK    1  A    between atoms: C_3  and  C_16
REMARK    2  A    between atoms: C_6  and  S_7
REMARK    3  A    between atoms: S_7  and  C_8
REMARK    4  A    between atoms: N_17  and  O_18
REMARK                            x       y       z     vdW  Elec       q    Type
REMARK                         _______ _______ _______ _____ _____    ______ ____
ROOT
ATOM      1  C   UNL     1      -0.069   1.783  -0.661  0.00  0.00    +0.016 A 
ATOM      2  C   UNL     1       1.165   2.377  -0.522  0.00  0.00    +0.014 A 
ATOM      3  C   UNL     1       2.277   1.603  -0.183  0.00  0.00    +0.036 A 
ATOM      4  C   UNL     1       2.133   0.227   0.013  0.00  0.00    +0.053 A 
ATOM      5  C   UNL     1       0.895  -0.361  -0.127  0.00  0.00    +0.035 A 
ATOM      6  C   UNL     1      -0.210   0.413  -0.465  0.00  0.00    +0.017 A 
ATOM      7 CL   UNL     1       3.512  -0.740   0.434  0.00  0.00    -0.083 Cl
ENDROOT
BRANCH   3   8
ATOM      8  C   UNL     1       3.604   2.238  -0.034  0.00  0.00    +0.164 C 
ATOM      9  N   UNL     1       3.763   3.226   0.799  0.00  0.00    -0.071 NA
ATOM     10  N   UNL     1       4.678   1.783  -0.780  0.00  0.00    -0.340 N 
ATOM     11  H   UNL     1       4.559   1.047  -1.401  0.00  0.00    +0.144 HD
ATOM     12  H   UNL     1       5.548   2.199  -0.682  0.00  0.00    +0.144 HD
BRANCH   9  13
ATOM     13  O   UNL     1       2.694   3.622   1.640  0.00  0.00    -0.408 OA
ATOM     14  H   UNL     1       2.881   4.410   2.169  0.00  0.00    +0.328 HD
ENDBRANCH   9  13
ENDBRANCH   3   8
BRANCH   6  15
ATOM     15  S   UNL     1      -1.792  -0.343  -0.644  0.00  0.00    -0.050 S 
BRANCH  15  16
ATOM     16  C   UNL     1      -1.832  -0.854  -2.329  0.00  0.00    +0.196 A 
ATOM     17  N   UNL     1      -0.740  -0.725  -3.070  0.00  0.00    -0.230 NA
ATOM     18  C   UNL     1      -0.733  -1.099  -4.340  0.00  0.00    +0.119 A 
ATOM     19  C   UNL     1      -1.882  -1.630  -4.896  0.00  0.00    +0.092 A 
ATOM     20  C   UNL     1      -3.014  -1.753  -4.092  0.00  0.00    +0.274 A 
ATOM     21  N   UNL     1      -2.951  -1.363  -2.824  0.00  0.00    -0.183 NA
ATOM     22  O   UNL     1      -4.162  -2.268  -4.595  0.00  0.00    -0.266 OA
ENDBRANCH  15  16
ENDBRANCH   6  15
TORSDOF 4
