REMARK  Name = ZINC12502504
REMARK  8 active torsions:
REMARK  status: ('A' for Active; 'I' for Inactive)
REMARK    1  A    between atoms: C_4  and  N_7
REMARK    2  A    between atoms: C_8  and  C_10
REMARK    3  A    between atoms: C_10  and  C_11
REMARK    4  A    between atoms: C_11  and  C_12
REMARK    5  A    between atoms: N_14  and  N_15
REMARK    6  A    between atoms: N_15  and  C_16
REMARK    7  A    between atoms: C_16  and  N_18
REMARK    8  A    between atoms: C_19  and  C_21
REMARK                            x       y       z     vdW  Elec       q    Type
REMARK                         _______ _______ _______ _____ _____    ______ ____
ROOT
ATOM      1  N   UNL     1       3.326   9.997   0.039  0.00  0.00    -0.246 N 
ATOM      2  H   UNL     1       3.998  10.696   0.043  0.00  0.00    +0.172 HD
ENDROOT
BRANCH   1   5
ATOM      3  C   UNL     1       1.592  11.627   0.057  0.00  0.00    +0.230 C 
ATOM      4  O   UNL     1       2.433  12.502   0.062  0.00  0.00    -0.274 OA
ATOM      5  N   UNL     1       1.966  10.333   0.045  0.00  0.00    -0.235 N 
ATOM      6  H   UNL     1       1.294   9.634   0.041  0.00  0.00    +0.173 HD
BRANCH   3   7
ATOM      7  C   UNL     1       0.129  11.989   0.064  0.00  0.00    +0.106 C 
BRANCH   7   8
ATOM      8  C   UNL     1      -0.020  13.512   0.077  0.00  0.00    +0.105 C 
BRANCH   8  10
ATOM      9  N   UNL     1      -1.857  15.168   0.096  0.00  0.00    -0.285 N 
ATOM     10  C   UNL     1      -1.483  13.873   0.084  0.00  0.00    +0.218 C 
ATOM     11  O   UNL     1      -2.324  12.999   0.079  0.00  0.00    -0.275 OA
ATOM     12  H   UNL     1      -1.187  15.866   0.168  0.00  0.00    +0.155 HD
BRANCH   9  16
ATOM     13  C   UNL     1      -5.891  16.173  -0.176  0.00  0.00    +0.000 A 
ATOM     14  C   UNL     1      -5.508  15.034   0.509  0.00  0.00    +0.002 A 
ATOM     15  C   UNL     1      -4.172  14.698   0.601  0.00  0.00    +0.023 A 
ATOM     16  C   UNL     1      -3.212  15.506   0.005  0.00  0.00    +0.033 A 
ATOM     17  C   UNL     1      -3.599  16.652  -0.677  0.00  0.00    +0.023 A 
ATOM     18  C   UNL     1      -4.938  16.979  -0.770  0.00  0.00    +0.002 A 
ENDBRANCH   9  16
ENDBRANCH   8  10
ENDBRANCH   7   8
ENDBRANCH   3   7
ENDBRANCH   1   5
BRANCH   1  19
ATOM     19  C   UNL     1       3.700   8.702   0.027  0.00  0.00    +0.153 C 
ATOM     20  S   UNL     1       5.362   8.291   0.019  0.00  0.00    -0.017 S 
BRANCH  19  21
ATOM     21  N   UNL     1       2.766   7.730   0.021  0.00  0.00    -0.262 N 
ATOM     22  C   UNL     1       3.140   6.436   0.010  0.00  0.00    +0.258 C 
ATOM     23  O   UNL     1       4.321   6.144   0.004  0.00  0.00    -0.269 OA
ATOM     24  H   UNL     1       1.824   7.963   0.026  0.00  0.00    +0.157 HD
BRANCH  22  25
ATOM     25  C   UNL     1       2.123   5.378   0.004  0.00  0.00    +0.094 A 
ATOM     26  C   UNL     1       2.302   4.029  -0.008  0.00  0.00    +0.068 A 
ATOM     27  C   UNL     1       1.185   3.173  -0.012  0.00  0.00    +0.008 A 
ATOM     28  C   UNL     1       1.165   1.755  -0.023  0.00  0.00    +0.010 A 
ATOM     29  C   UNL     1      -0.011   1.076  -0.026  0.00  0.00    +0.001 A 
ATOM     30  C   UNL     1      -1.234   1.737  -0.022  0.00  0.00    +0.001 A 
ATOM     31  C   UNL     1      -1.260   3.117  -0.006  0.00  0.00    +0.016 A 
ATOM     32  C   UNL     1      -0.074   3.820  -0.003  0.00  0.00    +0.021 A 
ATOM     33  S   UNL     1       0.346   5.544   0.010  0.00  0.00    -0.082 S 
ATOM     34 CL   UNL     1       3.906   3.364  -0.018  0.00  0.00    -0.082 Cl
ENDBRANCH  22  25
ENDBRANCH  19  21
ENDBRANCH   1  19
TORSDOF 8
