REMARK  Name = ZINC66088867
REMARK  9 active torsions:
REMARK  status: ('A' for Active; 'I' for Inactive)
REMARK    1  A    between atoms: C_1  and  C_2
REMARK    2  A    between atoms: C_5  and  N_8
REMARK    3  A    between atoms: N_8  and  C_9
REMARK    4  A    between atoms: C_9  and  C_10
REMARK    5  A    between atoms: C_11  and  C_25
REMARK    6  A    between atoms: N_13  and  C_18
REMARK    7  A    between atoms: C_16  and  O_17
REMARK    8  A    between atoms: C_21  and  O_24
REMARK    9  A    between atoms: C_29  and  O_31
REMARK                            x       y       z     vdW  Elec       q    Type
REMARK                         _______ _______ _______ _____ _____    ______ ____
ROOT
ATOM      1  C   UNL     1       0.273  -6.336   1.166  0.00  0.00    +0.045 C 
ATOM      2  C   UNL     1       0.367  -7.246   2.369  0.00  0.00    +0.148 C 
ATOM      3  N   UNL     1       0.439  -8.612   1.836  0.00  0.00    -0.253 N 
ATOM      4  C   UNL     1       0.395  -8.533   0.494  0.00  0.00    +0.287 C 
ATOM      5  O   UNL     1       0.434  -9.486  -0.262  0.00  0.00    -0.266 OA
ATOM      6  C   UNL     1       0.287  -7.134   0.074  0.00  0.00    +0.187 C 
ENDROOT
BRANCH   3   7
ATOM      7  C   UNL     1       0.537  -9.788   2.590  0.00  0.00    +0.038 A 
ATOM      8  C   UNL     1       0.568  -9.723   3.977  0.00  0.00    +0.027 A 
ATOM      9  C   UNL     1       0.665 -10.883   4.720  0.00  0.00    +0.047 A 
ATOM     10  C   UNL     1       0.731 -12.113   4.081  0.00  0.00    +0.117 A 
ATOM     11  C   UNL     1       0.700 -12.178   2.696  0.00  0.00    +0.047 A 
ATOM     12  C   UNL     1       0.598 -11.020   1.952  0.00  0.00    +0.027 A 
BRANCH  10  13
ATOM     13  O   UNL     1       0.826 -13.255   4.814  0.00  0.00    -0.507 OA
ATOM     14  H   UNL     1      -0.028 -13.644   5.048  0.00  0.00    +0.292 HD
ENDBRANCH  10  13
ENDBRANCH   3   7
BRANCH   2  15
ATOM     15  C   UNL     1      -0.856  -7.089   3.236  0.00  0.00    -0.019 A 
ATOM     16  C   UNL     1      -2.038  -7.713   2.881  0.00  0.00    +0.006 A 
ATOM     17  C   UNL     1      -3.162  -7.571   3.674  0.00  0.00    +0.004 A 
ATOM     18  C   UNL     1      -3.106  -6.805   4.823  0.00  0.00    +0.045 A 
ATOM     19  C   UNL     1      -1.921  -6.178   5.181  0.00  0.00    +0.117 A 
ATOM     20  C   UNL     1      -0.793  -6.328   4.386  0.00  0.00    +0.051 A 
BRANCH  19  21
ATOM     21  O   UNL     1      -1.863  -5.425   6.310  0.00  0.00    -0.507 OA
ATOM     22  H   UNL     1      -1.610  -5.920   7.101  0.00  0.00    +0.292 HD
ENDBRANCH  19  21
ENDBRANCH   2  15
BRANCH   1  23
ATOM     23  C   UNL     1       0.180  -4.872   1.181  0.00  0.00    +0.033 C 
ATOM     24  C   UNL     1       0.177  -4.212   2.348  0.00  0.00    +0.034 C 
BRANCH  23  25
ATOM     25  N   UNL     1       0.093  -4.165  -0.022  0.00  0.00    -0.315 N 
ATOM     26  H   UNL     1      -0.003  -4.644  -0.860  0.00  0.00    +0.152 HD
BRANCH  25  31
ATOM     27  C   UNL     1       0.301   1.502  -0.002  0.00  0.00    +0.044 C 
ATOM     28  C   UNL     1       0.246  -0.004  -0.007  0.00  0.00    -0.050 A 
ATOM     29  C   UNL     1      -0.656  -0.658  -0.827  0.00  0.00    +0.005 A 
ATOM     30  C   UNL     1      -0.709  -2.038  -0.835  0.00  0.00    +0.023 A 
ATOM     31  C   UNL     1       0.144  -2.769  -0.018  0.00  0.00    +0.031 A 
ATOM     32  C   UNL     1       1.049  -2.108   0.804  0.00  0.00    +0.023 A 
ATOM     33  C   UNL     1       1.100  -0.728   0.803  0.00  0.00    +0.005 A 
ENDBRANCH  25  31
ENDBRANCH  23  25
ENDBRANCH   1  23
BRANCH   6  34
ATOM     34  O   UNL     1       0.214  -6.705  -1.214  0.00  0.00    -0.502 OA
ATOM     35  H   UNL     1       0.238  -7.416  -1.868  0.00  0.00    +0.292 HD
ENDBRANCH   6  34
TORSDOF 8
