REMARK  Name = ZINC58139654
REMARK  6 active torsions:
REMARK  status: ('A' for Active; 'I' for Inactive)
REMARK    1  A    between atoms: C_4  and  C_7
REMARK    2  A    between atoms: C_7  and  N_8
REMARK    3  A    between atoms: C_11  and  C_13
REMARK    4  A    between atoms: C_11  and  C_26
REMARK    5  A    between atoms: N_15  and  C_16
REMARK    6  A    between atoms: C_20  and  N_22
REMARK                            x       y       z     vdW  Elec       q    Type
REMARK                         _______ _______ _______ _____ _____    ______ ____
ROOT
ATOM      1  C   UNL     1       6.058  -3.805   2.087  0.00  0.00    +0.233 C 
ATOM      2  O   UNL     1       6.292  -3.970   0.909  0.00  0.00    -0.274 OA
ATOM      3  N   UNL     1       6.144  -4.843   2.943  0.00  0.00    -0.285 N 
ATOM      4  H   UNL     1       6.023  -4.698   3.895  0.00  0.00    +0.155 HD
ENDROOT
BRANCH   3   5
ATOM      5  C   UNL     1       6.411  -6.128   2.459  0.00  0.00    +0.035 A 
ATOM      6  C   UNL     1       7.260  -6.301   1.374  0.00  0.00    +0.023 A 
ATOM      7  C   UNL     1       7.523  -7.570   0.895  0.00  0.00    +0.004 A 
ATOM      8  C   UNL     1       6.943  -8.671   1.495  0.00  0.00    +0.023 A 
ATOM      9  C   UNL     1       6.093  -8.505   2.580  0.00  0.00    +0.037 A 
ATOM     10  C   UNL     1       5.831  -7.232   3.067  0.00  0.00    +0.046 A 
BRANCH   9  11
ATOM     11  N   UNL     1       5.505  -9.621   3.187  0.00  0.00    -0.270 N 
ATOM     12  C   UNL     1       4.255  -9.538   3.685  0.00  0.00    +0.301 C 
ATOM     13  O   UNL     1       3.671  -8.472   3.684  0.00  0.00    -0.253 OA
ATOM     14  N   UNL     1       3.654 -10.636   4.184  0.00  0.00    -0.313 N 
ATOM     15  H   UNL     1       5.997 -10.455   3.248  0.00  0.00    +0.156 HD
ATOM     16  H   UNL     1       4.121 -11.486   4.185  0.00  0.00    +0.146 HD
ATOM     17  H   UNL     1       2.755 -10.576   4.543  0.00  0.00    +0.146 HD
ENDBRANCH   9  11
ENDBRANCH   3   5
BRANCH   1  21
ATOM     18  N   UNL     1       4.183  -0.930   1.409  0.00  0.00    -0.297 NA
ATOM     19  C   UNL     1       3.355  -1.982   2.053  0.00  0.00    +0.086 C 
ATOM     20  C   UNL     1       4.253  -2.480   3.213  0.00  0.00    +0.042 C 
ATOM     21  C   UNL     1       5.670  -2.440   2.595  0.00  0.00    +0.155 C 
ATOM     22  C   UNL     1       5.570  -1.443   1.425  0.00  0.00    +0.110 C 
BRANCH  21  23
ATOM     23  C   UNL     1       6.686  -1.948   3.627  0.00  0.00    +0.405 C 
ATOM     24  F   UNL     1       6.715  -2.832   4.711  0.00  0.00    -0.170 F 
ATOM     25  F   UNL     1       7.955  -1.887   3.041  0.00  0.00    -0.170 F 
ATOM     26  F   UNL     1       6.317  -0.674   4.074  0.00  0.00    -0.170 F 
ENDBRANCH  21  23
BRANCH  18  27
ATOM     27  C   UNL     1       3.733  -0.673   0.035  0.00  0.00    +0.119 C 
BRANCH  27  31
ATOM     28  C   UNL     1       0.021   1.439   0.122  0.00  0.00    +0.000 A 
ATOM     29  C   UNL     1       1.214   2.138   0.109  0.00  0.00    +0.000 A 
ATOM     30  C   UNL     1       2.415   1.454   0.081  0.00  0.00    +0.005 A 
ATOM     31  C   UNL     1       2.424   0.072   0.066  0.00  0.00    -0.033 A 
ATOM     32  C   UNL     1       1.231  -0.627   0.080  0.00  0.00    +0.005 A 
ATOM     33  C   UNL     1       0.030   0.057   0.106  0.00  0.00    +0.000 A 
ENDBRANCH  27  31
ENDBRANCH  18  27
ENDBRANCH   1  21
TORSDOF 6
