REMARK  Name = ZINC41065757
REMARK  3 active torsions:
REMARK  status: ('A' for Active; 'I' for Inactive)
REMARK    1  A    between atoms: C_6  and  S_7
REMARK    2  A    between atoms: S_7  and  N_10
REMARK    3  A    between atoms: N_10  and  C_11
REMARK                            x       y       z     vdW  Elec       q    Type
REMARK                         _______ _______ _______ _____ _____    ______ ____
ROOT
ATOM      1  S   UNL     1      -1.611  -1.022   0.065  0.00  0.00    +0.062 S 
ATOM      2  O   UNL     1      -1.652  -2.140   0.940  0.00  0.00    -0.153 OA
ATOM      3  O   UNL     1      -2.571   0.025   0.120  0.00  0.00    -0.153 OA
ENDROOT
BRANCH   1   9
ATOM      4  C   UNL     1       0.865  -0.778   1.207  0.00  0.00    +0.048 A 
ATOM      5  C   UNL     1       2.097  -0.154   1.344  0.00  0.00    +0.038 A 
ATOM      6  C   UNL     1       2.386   0.946   0.558  0.00  0.00    +0.127 A 
ATOM      7  N   UNL     1       1.507   1.403  -0.313  0.00  0.00    -0.240 NA
ATOM      8  C   UNL     1       0.327   0.835  -0.470  0.00  0.00    +0.155 A 
ATOM      9  C   UNL     1      -0.033  -0.270   0.282  0.00  0.00    +0.143 A 
ATOM     10 CL   UNL     1      -0.789   1.482  -1.632  0.00  0.00    -0.060 Cl
ATOM     11 BR   UNL     1       3.364  -0.799   2.590  0.00  0.00    -0.049 Br
ENDBRANCH   1   9
BRANCH   1  12
ATOM     12  N   UNL     1      -1.658  -1.625  -1.477  0.00  0.00    -0.187 NA
ATOM     13  H   UNL     1      -2.277  -1.253  -2.125  0.00  0.00    +0.148 HD
BRANCH  12  14
ATOM     14  C   UNL     1      -0.766  -2.721  -1.862  0.00  0.00    +0.077 C 
ATOM     15  C   UNL     1       0.478  -2.150  -2.546  0.00  0.00    +0.020 C 
ATOM     16  C   UNL     1       1.410  -3.294  -2.948  0.00  0.00    +0.002 C 
ATOM     17  C   UNL     1       0.681  -4.230  -3.914  0.00  0.00    +0.000 C 
ATOM     18  C   UNL     1      -0.562  -4.801  -3.231  0.00  0.00    +0.002 C 
ATOM     19  C   UNL     1      -1.494  -3.657  -2.829  0.00  0.00    +0.020 C 
ENDBRANCH  12  14
ENDBRANCH   1  12
TORSDOF 3
