REMARK  Name = ZINC09876126
REMARK  6 active torsions:
REMARK  status: ('A' for Active; 'I' for Inactive)
REMARK    1  A    between atoms: C_3  and  N_15
REMARK    2  A    between atoms: C_5  and  S_7
REMARK    3  A    between atoms: S_7  and  N_10
REMARK    4  A    between atoms: N_15  and  C_16
REMARK    5  A    between atoms: C_16  and  C_17
REMARK    6  A    between atoms: N_19  and  C_20
REMARK                            x       y       z     vdW  Elec       q    Type
REMARK                         _______ _______ _______ _____ _____    ______ ____
ROOT
ATOM      1  C   UNL     1       1.280   1.980  -0.014  0.00  0.00    +0.198 C 
ENDROOT
BRANCH   1   2
ATOM      2  C   UNL     1      -0.014   1.209   0.006  0.00  0.00    +0.234 C 
ATOM      3  O   UNL     1       0.003  -0.004   0.006  0.00  0.00    -0.274 OA
ATOM      4  N   UNL     1      -1.191   1.867   0.018  0.00  0.00    -0.283 N 
ATOM      5  H   UNL     1      -1.205   2.833   0.099  0.00  0.00    +0.155 HD
BRANCH   4   6
ATOM      6  C   UNL     1      -2.393   1.154  -0.086  0.00  0.00    +0.050 A 
ATOM      7  C   UNL     1      -2.409  -0.090  -0.699  0.00  0.00    +0.052 A 
ATOM      8  C   UNL     1      -3.599  -0.792  -0.800  0.00  0.00    +0.069 A 
ATOM      9  C   UNL     1      -4.777  -0.246  -0.286  0.00  0.00    +0.068 A 
ATOM     10  C   UNL     1      -4.755   0.999   0.325  0.00  0.00    +0.045 A 
ATOM     11  C   UNL     1      -3.566   1.694   0.430  0.00  0.00    +0.041 A 
ATOM     12 BR   UNL     1      -3.535   3.387   1.271  0.00  0.00    -0.048 Br
ATOM     13  N   UNL     1      -5.792  -1.170  -0.534  0.00  0.00    -0.306 N 
ATOM     14  H   UNL     1      -6.725  -1.069  -0.290  0.00  0.00    +0.170 HD
ATOM     15  C   UNL     1      -5.254  -2.229  -1.169  0.00  0.00    +0.325 A 
ATOM     16  O   UNL     1      -5.868  -3.216  -1.529  0.00  0.00    -0.247 OA
ATOM     17  N   UNL     1      -3.934  -2.031  -1.344  0.00  0.00    -0.306 N 
ATOM     18  H   UNL     1      -3.320  -2.646  -1.775  0.00  0.00    +0.170 HD
ENDBRANCH   4   6
ENDBRANCH   1   2
BRANCH   1  19
ATOM     19  N   UNL     1       2.407   1.044  -0.031  0.00  0.00    -0.335 N 
ATOM     20  H   UNL     1       2.243   0.088  -0.028  0.00  0.00    +0.147 HD
BRANCH  19  23
ATOM     21  C   UNL     1       5.250   3.371  -0.077  0.00  0.00    +0.004 A 
ATOM     22  C   UNL     1       3.953   2.896  -0.061  0.00  0.00    +0.023 A 
ATOM     23  C   UNL     1       3.717   1.528  -0.051  0.00  0.00    +0.029 A 
ATOM     24  C   UNL     1       4.786   0.641  -0.067  0.00  0.00    +0.051 A 
ATOM     25  C   UNL     1       6.080   1.122  -0.088  0.00  0.00    +0.107 A 
ATOM     26  C   UNL     1       6.312   2.486  -0.093  0.00  0.00    +0.028 A 
BRANCH  25  27
ATOM     27  S   UNL     1       7.437  -0.001  -0.108  0.00  0.00    +0.061 S 
ATOM     28  O   UNL     1       8.553   0.699   0.425  0.00  0.00    -0.153 OA
ATOM     29  O   UNL     1       6.964  -1.219   0.451  0.00  0.00    -0.153 OA
BRANCH  27  30
ATOM     30  N   UNL     1       7.790  -0.315  -1.696  0.00  0.00    -0.177 NA
ATOM     31  C   UNL     1       7.215  -1.401  -2.502  0.00  0.00    +0.109 C 
ATOM     32  C   UNL     1       7.853  -1.317  -3.905  0.00  0.00    +0.018 C 
ATOM     33  C   UNL     1       9.174  -0.547  -3.638  0.00  0.00    +0.018 C 
ATOM     34  C   UNL     1       8.736   0.445  -2.532  0.00  0.00    +0.109 C 
ENDBRANCH  27  30
ENDBRANCH  25  27
ENDBRANCH  19  23
ENDBRANCH   1  19
TORSDOF 6
