REMARK  Name = ZINC02858264
REMARK  8 active torsions:
REMARK  status: ('A' for Active; 'I' for Inactive)
REMARK    1  A    between atoms: C_1  and  C_2
REMARK    2  A    between atoms: C_2  and  C_4
REMARK    3  A    between atoms: C_7  and  N_10
REMARK    4  A    between atoms: N_10  and  C_11
REMARK    5  A    between atoms: C_11  and  N_13
REMARK    6  A    between atoms: N_13  and  N_14
REMARK    7  A    between atoms: C_15  and  C_17
REMARK    8  A    between atoms: C_22  and  O_23
REMARK                            x       y       z     vdW  Elec       q    Type
REMARK                         _______ _______ _______ _____ _____    ______ ____
ROOT
ATOM      1  N   UNL     1      -1.178   1.597   0.311  0.00  0.00    -0.245 N 
ATOM      2  H   UNL     1      -1.159   2.543   0.522  0.00  0.00    +0.172 HD
ENDROOT
BRANCH   1   3
ATOM      3  N   UNL     1       0.014   0.921   0.015  0.00  0.00    -0.231 N 
ATOM      4  C   UNL     1       1.185   1.587   0.019  0.00  0.00    +0.264 C 
ATOM      5  O   UNL     1       1.208   2.774   0.284  0.00  0.00    -0.269 OA
ATOM      6  H   UNL     1      -0.005  -0.025  -0.196  0.00  0.00    +0.173 HD
BRANCH   4   7
ATOM      7  C   UNL     1       2.439   0.877  -0.299  0.00  0.00    +0.081 A 
ATOM      8  C   UNL     1       2.417  -0.487  -0.598  0.00  0.00    +0.032 A 
ATOM      9  C   UNL     1       3.591  -1.143  -0.899  0.00  0.00    +0.019 A 
ATOM     10  C   UNL     1       4.796  -0.457  -0.896  0.00  0.00    +0.019 A 
ATOM     11  C   UNL     1       4.832   0.890  -0.596  0.00  0.00    +0.047 A 
ATOM     12  C   UNL     1       3.659   1.567  -0.296  0.00  0.00    +0.129 A 
ATOM     13 BR   UNL     1       3.560  -2.989  -1.312  0.00  0.00    -0.050 Br
BRANCH  12  14
ATOM     14  O   UNL     1       3.693   2.891  -0.001  0.00  0.00    -0.506 OA
ATOM     15  H   UNL     1       3.810   3.081   0.939  0.00  0.00    +0.292 HD
ENDBRANCH  12  14
ENDBRANCH   4   7
ENDBRANCH   1   3
BRANCH   1  16
ATOM     16  C   UNL     1      -2.350   0.931   0.302  0.00  0.00    +0.151 C 
ATOM     17  S   UNL     1      -3.805   1.757   0.663  0.00  0.00    -0.017 S 
BRANCH  16  18
ATOM     18  N   UNL     1      -2.376  -0.384   0.008  0.00  0.00    -0.296 N 
ATOM     19  H   UNL     1      -1.565  -0.833  -0.279  0.00  0.00    +0.154 HD
BRANCH  18  23
ATOM     20  C   UNL     1      -5.928  -2.515   0.330  0.00  0.00    +0.017 A 
ATOM     21  C   UNL     1      -5.070  -2.740  -0.754  0.00  0.00    +0.013 A 
ATOM     22  C   UNL     1      -3.903  -2.037  -0.856  0.00  0.00    +0.024 A 
ATOM     23  C   UNL     1      -3.566  -1.098   0.116  0.00  0.00    +0.033 A 
ATOM     24  C   UNL     1      -4.414  -0.875   1.198  0.00  0.00    +0.024 A 
ATOM     25  C   UNL     1      -5.585  -1.569   1.305  0.00  0.00    +0.013 A 
BRANCH  20  27
ATOM     26  C   UNL     1      -8.163  -2.937   1.539  0.00  0.00    +0.091 C 
ATOM     27  C   UNL     1      -7.183  -3.268   0.443  0.00  0.00    +0.160 C 
ATOM     28  O   UNL     1      -7.432  -4.155  -0.345  0.00  0.00    -0.292 OA
ENDBRANCH  20  27
ENDBRANCH  18  23
ENDBRANCH  16  18
ENDBRANCH   1  16
TORSDOF 7
