REMARK  Name = ZINC40315493
REMARK  12 active torsions:
REMARK  status: ('A' for Active; 'I' for Inactive)
REMARK    1  A    between atoms: C_1  and  C_2
REMARK    2  A    between atoms: C_5  and  O_9
REMARK    3  A    between atoms: C_6  and  C_8
REMARK    4  A    between atoms: O_9  and  C_10
REMARK    5  A    between atoms: C_10  and  C_11
REMARK    6  A    between atoms: C_11  and  C_13
REMARK    7  A    between atoms: C_11  and  O_37
REMARK    8  A    between atoms: C_13  and  N_14
REMARK    9  A    between atoms: N_14  and  C_15
REMARK   10  A    between atoms: C_16  and  C_26
REMARK   11  A    between atoms: C_21  and  C_25
REMARK   12  A    between atoms: N_28  and  C_29
REMARK                            x       y       z     vdW  Elec       q    Type
REMARK                         _______ _______ _______ _____ _____    ______ ____
ROOT
ATOM      1  C   UNL     1      -0.266  -9.261  -3.368  0.00  0.00    +0.078 A 
ATOM      2  C   UNL     1      -0.378 -10.644  -3.377  0.00  0.00    +0.068 A 
ATOM      3  C   UNL     1      -0.495 -11.292  -4.673  0.00  0.00    -0.023 A 
ATOM      4  C   UNL     1      -0.479 -10.440  -5.719  0.00  0.00    -0.004 A 
ATOM      5  S   UNL     1      -0.319  -8.836  -4.991  0.00  0.00    -0.078 S 
ATOM      6  C   UNL     1      -0.582 -10.796  -7.170  0.00  0.00    +0.046 C 
ATOM      7  C   UNL     1      -1.087 -12.242  -7.278  0.00  0.00    -0.009 C 
ATOM      8  C   UNL     1      -0.270 -13.124  -6.329  0.00  0.00    +0.008 C 
ATOM      9  C   UNL     1      -0.625 -12.794  -4.877  0.00  0.00    +0.037 C 
ATOM     10  C   UNL     1      -0.918 -12.738  -8.715  0.00  0.00    +0.008 C 
ENDROOT
BRANCH   2  11
ATOM     11  C   UNL     1      -0.377 -11.418  -2.133  0.00  0.00    +0.247 C 
ATOM     12  O   UNL     1      -1.427 -11.656  -1.564  0.00  0.00    -0.270 OA
ATOM     13  N   UNL     1       0.785 -11.867  -1.620  0.00  0.00    -0.307 N 
ATOM     14  H   UNL     1       1.621 -11.678  -2.073  0.00  0.00    +0.149 HD
BRANCH  13  15
ATOM     15  C   UNL     1       0.785 -12.642  -0.376  0.00  0.00    +0.096 C 
ATOM     16  C   UNL     1       0.830 -11.688   0.830  0.00  0.00    +0.046 C 
ATOM     17  C   UNL     1       1.152 -12.482   2.119  0.00  0.00    +0.168 C 
ATOM     18  S   UNL     1       2.132 -13.902   1.484  0.00  0.00    -0.029 S 
ATOM     19  O   UNL     1       1.429 -15.107   1.753  0.00  0.00    -0.174 OA
ATOM     20  O   UNL     1       3.478 -13.767   1.919  0.00  0.00    -0.174 OA
ATOM     21  C   UNL     1       2.048 -13.549  -0.322  0.00  0.00    +0.188 C 
ENDBRANCH  13  15
ENDBRANCH   2  11
BRANCH   1  22
ATOM     22  N   UNL     1      -0.145  -8.425  -2.274  0.00  0.00    -0.335 N 
ATOM     23  H   UNL     1      -0.127  -8.798  -1.378  0.00  0.00    +0.147 HD
BRANCH  22  24
ATOM     24  C   UNL     1      -0.045  -6.977  -2.466  0.00  0.00    +0.136 C 
BRANCH  24  25
ATOM     25  C   UNL     1       0.079  -6.289  -1.105  0.00  0.00    +0.169 C 
BRANCH  25  26
ATOM     26  O   UNL     1       1.308  -6.674  -0.487  0.00  0.00    -0.387 OA
ATOM     27  H   UNL     1       2.096  -6.440  -0.997  0.00  0.00    +0.210 HD
ENDBRANCH  25  26
BRANCH  25  28
ATOM     28  C   UNL     1       0.058  -4.771  -1.298  0.00  0.00    +0.261 C 
BRANCH  28  29
ATOM     29  O   UNL     1       0.057  -4.129  -0.021  0.00  0.00    -0.489 OA
BRANCH  29  34
ATOM     30  C   UNL     1      -0.018   1.503   0.010  0.00  0.00    +0.044 C 
ATOM     31  C   UNL     1       0.002  -0.004   0.002  0.00  0.00    -0.050 A 
ATOM     32  C   UNL     1       0.006  -0.688  -1.200  0.00  0.00    +0.007 A 
ATOM     33  C   UNL     1       0.024  -2.069  -1.210  0.00  0.00    +0.046 A 
ATOM     34  C   UNL     1       0.039  -2.770  -0.013  0.00  0.00    +0.124 A 
ATOM     35  C   UNL     1       0.036  -2.082   1.191  0.00  0.00    -0.009 A 
ATOM     36  C   UNL     1       0.023  -0.701   1.196  0.00  0.00    +0.010 A 
ATOM     37  C   UNL     1       0.052  -2.841   2.493  0.00  0.00    +0.047 C 
ENDBRANCH  29  34
ENDBRANCH  28  29
ENDBRANCH  25  28
ENDBRANCH  24  25
ENDBRANCH  22  24
ENDBRANCH   1  22
TORSDOF 9
