REMARK  Name = ZINC21040781
REMARK  8 active torsions:
REMARK  status: ('A' for Active; 'I' for Inactive)
REMARK    1  A    between atoms: C_4  and  O_28
REMARK    2  A    between atoms: C_5  and  C_7
REMARK    3  A    between atoms: N_8  and  N_9
REMARK    4  A    between atoms: C_12  and  S_15
REMARK    5  A    between atoms: S_15  and  C_16
REMARK    6  A    between atoms: C_16  and  C_17
REMARK    7  A    between atoms: C_17  and  C_18
REMARK    8  A    between atoms: N_20  and  C_21
REMARK                            x       y       z     vdW  Elec       q    Type
REMARK                         _______ _______ _______ _____ _____    ______ ____
ROOT
ATOM      1  N   UNL     1      -3.599  -0.854   0.024  0.00  0.00    -0.205 N 
ATOM      2  C   UNL     1      -4.812  -0.180   0.040  0.00  0.00    +0.232 A 
ATOM      3  N   UNL     1      -6.051  -0.757   0.041  0.00  0.00    -0.186 NA
ATOM      4  C   UNL     1      -6.982   0.242   0.060  0.00  0.00    +0.210 A 
ATOM      5  N   UNL     1      -6.345   1.389   0.070  0.00  0.00    -0.144 NA
ATOM      6  N   UNL     1      -4.970   1.121   0.063  0.00  0.00    -0.245 N 
ATOM      7  H   UNL     1      -3.580  -1.954   0.010  0.00  0.00    +0.177 HD
ATOM      8  H   UNL     1      -4.091   1.782   0.073  0.00  0.00    +0.192 HD
ENDROOT
BRANCH   1  10
ATOM      9  C   UNL     1      -1.262  -0.764   0.009  0.00  0.00    +0.142 C 
ATOM     10  N   UNL     1      -2.397  -0.133   0.025  0.00  0.00    -0.187 NA
BRANCH   9  15
ATOM     11  C   UNL     1       2.404   0.036  -0.006  0.00  0.00    +0.001 A 
ATOM     12  C   UNL     1       2.381   1.420   0.011  0.00  0.00    +0.004 A 
ATOM     13  C   UNL     1       1.176   2.099   0.028  0.00  0.00    +0.046 A 
ATOM     14  C   UNL     1      -0.017   1.396   0.028  0.00  0.00    +0.125 A 
ATOM     15  C   UNL     1       0.002  -0.006   0.010  0.00  0.00    +0.036 A 
ATOM     16  C   UNL     1       1.225  -0.680  -0.007  0.00  0.00    +0.013 A 
BRANCH  14  17
ATOM     17  O   UNL     1      -1.201   2.062   0.039  0.00  0.00    -0.506 OA
ATOM     18  H   UNL     1      -2.147   1.501   0.038  0.00  0.00    +0.292 HD
ENDBRANCH  14  17
ENDBRANCH   9  15
ENDBRANCH   1  10
BRANCH   4  19
ATOM     19  S   UNL     1      -8.731   0.029   0.070  0.00  0.00    -0.084 S 
BRANCH  19  20
ATOM     20  C   UNL     1      -9.380   1.722   0.095  0.00  0.00    +0.086 C 
BRANCH  20  21
ATOM     21  C   UNL     1     -10.909   1.683   0.105  0.00  0.00    +0.107 C 
BRANCH  21  22
ATOM     22  C   UNL     1     -11.448   3.090   0.126  0.00  0.00    +0.218 C 
ATOM     23  O   UNL     1     -10.684   4.032   0.132  0.00  0.00    -0.275 OA
ATOM     24  N   UNL     1     -12.779   3.301   0.138  0.00  0.00    -0.285 N 
ATOM     25  H   UNL     1     -13.472   2.451   0.056  0.00  0.00    +0.155 HD
BRANCH  24  26
ATOM     26  C   UNL     1     -13.280   4.603   0.255  0.00  0.00    +0.033 A 
ATOM     27  C   UNL     1     -14.454   4.836   0.959  0.00  0.00    +0.025 A 
ATOM     28  C   UNL     1     -14.943   6.122   1.077  0.00  0.00    +0.022 A 
ATOM     29  C   UNL     1     -14.270   7.177   0.485  0.00  0.00    +0.041 A 
ATOM     30  C   UNL     1     -13.103   6.947  -0.221  0.00  0.00    +0.022 A 
ATOM     31  C   UNL     1     -12.606   5.663  -0.338  0.00  0.00    +0.025 A 
ATOM     32 CL   UNL     1     -14.891   8.792   0.630  0.00  0.00    -0.084 Cl
ENDBRANCH  24  26
ENDBRANCH  21  22
ENDBRANCH  20  21
ENDBRANCH  19  20
ENDBRANCH   4  19
TORSDOF 8
