REMARK  Name = ZINC34597126
REMARK  3 active torsions:
REMARK  status: ('A' for Active; 'I' for Inactive)
REMARK    1  A    between atoms: C_4  and  CA_7
REMARK    2  A    between atoms: CA_7  and  C_9
REMARK    3  A    between atoms: CA_7  and  N_12
REMARK                            x       y       z     vdW  Elec       q    Type
REMARK                         _______ _______ _______ _____ _____    ______ ____
ROOT
ATOM      1  CA  UNL     1       2.870  -0.461  -2.526  0.00  0.00    +0.190 C 
ENDROOT
BRANCH   1   2
ATOM      2  N   UNL     1       2.890  -1.926  -2.534  0.00  0.00    -0.286 N 
ATOM      3  C   UNL     1       2.989  -2.592  -3.702  0.00  0.00    +0.298 C 
ATOM      4  O   UNL     1       3.063  -1.978  -4.748  0.00  0.00    -0.253 OA
ATOM      5  N   UNL     1       3.008  -3.940  -3.709  0.00  0.00    -0.313 N 
ATOM      6  H   UNL     1       2.831  -2.417  -1.700  0.00  0.00    +0.151 HD
ATOM      7  H   UNL     1       2.949  -4.430  -2.874  0.00  0.00    +0.146 HD
ATOM      8  H   UNL     1       3.079  -4.419  -4.549  0.00  0.00    +0.146 HD
ENDBRANCH   1   2
BRANCH   1  12
ATOM      9  C   UNL     1      -0.019   1.526   0.010  0.00  0.00    +0.000 C 
ATOM     10  C   UNL     1       1.417   2.055  -0.000  0.00  0.00    +0.000 C 
ATOM     11  C   UNL     1       2.133   1.562  -1.259  0.00  0.00    +0.006 C 
ATOM     12  C   UNL     1       2.154   0.032  -1.268  0.00  0.00    +0.020 C 
ATOM     13  C   UNL     1       0.718  -0.497  -1.257  0.00  0.00    +0.006 C 
ATOM     14  C   UNL     1       0.002  -0.004   0.002  0.00  0.00    +0.000 C 
ENDBRANCH   1  12
BRANCH   1  15
ATOM     15  C   UNL     1       4.284   0.060  -2.537  0.00  0.00    +0.376 C 
ATOM     16  O   UNL     1       5.217  -0.705  -2.367  0.00  0.00    -0.244 OA
ATOM     17  OXT UNL     1       4.494   1.248  -2.716  0.00  0.00    -0.244 OA
ENDBRANCH   1  15
TORSDOF 3
