REMARK  Name = ZINC39709204
REMARK  9 active torsions:
REMARK  status: ('A' for Active; 'I' for Inactive)
REMARK    1  A    between atoms: C_4  and  N_7
REMARK    2  A    between atoms: C_8  and  C_28
REMARK    3  A    between atoms: C_12  and  S_14
REMARK    4  A    between atoms: S_14  and  C_15
REMARK    5  A    between atoms: C_15  and  C_16
REMARK    6  A    between atoms: N_18  and  C_19
REMARK    7  A    between atoms: C_22  and  N_25
REMARK    8  A    between atoms: C_28  and  C_29
REMARK    9  A    between atoms: C_29  and  C_30
REMARK                            x       y       z     vdW  Elec       q    Type
REMARK                         _______ _______ _______ _____ _____    ______ ____
ROOT
ATOM      1  N   UNL     1       3.603  -0.638  -0.033  0.00  0.00    -0.288 N 
ATOM      2  C   UNL     1       3.788  -2.103  -0.049  0.00  0.00    +0.158 C 
ATOM      3  N   UNL     1       5.142  -2.294  -0.632  0.00  0.00    -0.234 NA
ATOM      4  N   UNL     1       5.909  -1.176  -0.061  0.00  0.00    -0.226 NA
ATOM      5  C   UNL     1       4.952  -0.046  -0.047  0.00  0.00    +0.217 C 
ATOM      6  H   UNL     1       5.113  -2.235  -1.639  0.00  0.00    +0.143 HD
ATOM      7  H   UNL     1       6.712  -0.959  -0.631  0.00  0.00    +0.143 HD
ENDROOT
BRANCH   1  11
ATOM      8  C   UNL     1      -0.019   1.415   0.023  0.00  0.00    +0.000 A 
ATOM      9  C   UNL     1       1.172   2.118   0.013  0.00  0.00    +0.002 A 
ATOM     10  C   UNL     1       2.375   1.440  -0.005  0.00  0.00    +0.023 A 
ATOM     11  C   UNL     1       2.388   0.051  -0.013  0.00  0.00    +0.033 A 
ATOM     12  C   UNL     1       1.189  -0.652  -0.003  0.00  0.00    +0.023 A 
ATOM     13  C   UNL     1      -0.010   0.033   0.015  0.00  0.00    +0.002 A 
ENDBRANCH   1  11
BRANCH   5  14
ATOM     14  S   UNL     1       5.205   0.960   1.442  0.00  0.00    -0.112 S 
BRANCH  14  15
ATOM     15  C   UNL     1       4.996  -0.217   2.807  0.00  0.00    +0.168 C 
BRANCH  15  16
ATOM     16  C   UNL     1       5.184   0.499   4.120  0.00  0.00    +0.227 C 
ATOM     17  O   UNL     1       5.433   1.686   4.133  0.00  0.00    -0.275 OA
ATOM     18  N   UNL     1       5.074  -0.180   5.279  0.00  0.00    -0.285 N 
ATOM     19  H   UNL     1       4.809  -1.113   5.271  0.00  0.00    +0.155 HD
BRANCH  18  20
ATOM     20  C   UNL     1       5.343   0.461   6.493  0.00  0.00    +0.034 A 
ATOM     21  C   UNL     1       5.943  -0.239   7.532  0.00  0.00    +0.025 A 
ATOM     22  C   UNL     1       6.207   0.397   8.729  0.00  0.00    +0.034 A 
ATOM     23  C   UNL     1       5.874   1.729   8.895  0.00  0.00    +0.126 A 
ATOM     24  C   UNL     1       5.276   2.428   7.863  0.00  0.00    +0.034 A 
ATOM     25  C   UNL     1       5.015   1.800   6.661  0.00  0.00    +0.025 A 
BRANCH  23  26
ATOM     26  N   UNL     1       6.158   2.407  10.179  0.00  0.00    +0.056 N 
ATOM     27  O   UNL     1       6.681   1.796  11.082  0.00  0.00    -0.126 OA
ATOM     28  O   UNL     1       5.867   3.571  10.325  0.00  0.00    -0.126 OA
ENDBRANCH  23  26
ENDBRANCH  18  20
ENDBRANCH  15  16
ENDBRANCH  14  15
ENDBRANCH   5  14
BRANCH   2  29
ATOM     29  C   UNL     1       3.731  -2.666   1.372  0.00  0.00    +0.047 C 
BRANCH  29  30
ATOM     30  C   UNL     1       3.925  -4.183   1.329  0.00  0.00    +0.077 C 
BRANCH  30  31
ATOM     31  C   UNL     1       3.868  -4.737   2.729  0.00  0.00    +0.108 A 
ATOM     32  N   UNL     1       4.612  -4.339   3.719  0.00  0.00    -0.232 NA
ATOM     33  C   UNL     1       4.304  -5.046   4.836  0.00  0.00    +0.089 A 
ATOM     34  C   UNL     1       4.781  -5.032   6.149  0.00  0.00    +0.030 A 
ATOM     35  C   UNL     1       4.255  -5.889   7.074  0.00  0.00    +0.002 A 
ATOM     36  C   UNL     1       3.250  -6.778   6.724  0.00  0.00    +0.002 A 
ATOM     37  C   UNL     1       2.764  -6.811   5.434  0.00  0.00    +0.028 A 
ATOM     38  C   UNL     1       3.285  -5.947   4.481  0.00  0.00    +0.066 A 
ATOM     39  N   UNL     1       3.027  -5.723   3.143  0.00  0.00    -0.342 N 
ATOM     40  H   UNL     1       2.370  -6.185   2.599  0.00  0.00    +0.167 HD
ENDBRANCH  30  31
ENDBRANCH  29  30
ENDBRANCH   2  29
TORSDOF 9
