REMARK  Name = ZINC66976620
REMARK  4 active torsions:
REMARK  status: ('A' for Active; 'I' for Inactive)
REMARK    1  A    between atoms: C_10  and  C_11
REMARK    2  A    between atoms: C_10  and  O_29
REMARK    3  A    between atoms: C_11  and  N_12
REMARK    4  A    between atoms: N_15  and  C_16
REMARK                            x       y       z     vdW  Elec       q    Type
REMARK                         _______ _______ _______ _____ _____    ______ ____
ROOT
ATOM      1  N   UNL     1       4.733   1.477  -0.622  0.00  0.00    -0.296 N 
ATOM      2  C   UNL     1       5.418   2.343  -1.394  0.00  0.00    +0.300 C 
ATOM      3  O   UNL     1       5.985   1.948  -2.395  0.00  0.00    -0.253 OA
ATOM      4  N   UNL     1       5.475   3.647  -1.058  0.00  0.00    -0.293 N 
ATOM      5  H   UNL     1       4.281   1.792   0.177  0.00  0.00    +0.150 HD
ATOM      6  H   UNL     1       5.023   3.962  -0.260  0.00  0.00    +0.151 HD
ENDROOT
BRANCH   4   7
ATOM      7  C   UNL     1       6.220   4.588  -1.898  0.00  0.00    +0.106 C 
ATOM      8  C   UNL     1       5.644   5.990  -1.715  0.00  0.00    +0.027 C 
ATOM      9  C   UNL     1       6.573   6.986  -2.420  0.00  0.00    +0.008 C 
ATOM     10  C   UNL     1       7.884   7.051  -1.638  0.00  0.00    +0.054 C 
ATOM     11  C   UNL     1       8.430   5.666  -1.398  0.00  0.00    +0.024 A 
ATOM     12  C   UNL     1       7.675   4.556  -1.509  0.00  0.00    -0.008 A 
ATOM     13  C   UNL     1       8.250   3.295  -1.257  0.00  0.00    +0.012 A 
ATOM     14  C   UNL     1       9.562   3.204  -0.906  0.00  0.00    +0.070 A 
ATOM     15  C   UNL     1      10.323   4.382  -0.805  0.00  0.00    +0.249 A 
ATOM     16  O   UNL     1      11.502   4.324  -0.496  0.00  0.00    -0.268 OA
ATOM     17  N   UNL     1       9.748   5.568  -1.052  0.00  0.00    -0.326 N 
ATOM     18  H   UNL     1      10.281   6.375  -0.982  0.00  0.00    +0.169 HD
ENDBRANCH   4   7
BRANCH   1  19
ATOM     19  C   UNL     1       4.671   0.060  -0.987  0.00  0.00    +0.145 C 
BRANCH  19  29
ATOM     20  C   UNL     1       3.635  -4.797  -1.159  0.00  0.00    +0.000 A 
ATOM     21  C   UNL     1       3.604  -3.797  -2.113  0.00  0.00    +0.000 A 
ATOM     22  C   UNL     1       3.643  -2.475  -1.720  0.00  0.00    +0.007 A 
ATOM     23  C   UNL     1       3.714  -2.140  -0.374  0.00  0.00    -0.011 A 
ATOM     24  C   UNL     1       3.749  -3.136   0.575  0.00  0.00    -0.041 A 
ATOM     25  C   UNL     1       3.706  -4.467   0.178  0.00  0.00    +0.004 A 
ATOM     26  C   UNL     1       3.843  -2.847   2.051  0.00  0.00    +0.035 C 
ATOM     27  C   UNL     1       3.451  -1.399   2.340  0.00  0.00    +0.008 C 
ATOM     28  C   UNL     1       4.257  -0.485   1.410  0.00  0.00    +0.041 C 
ATOM     29  C   UNL     1       3.746  -0.677  -0.016  0.00  0.00    +0.107 C 
BRANCH  29  30
ATOM     30  O   UNL     1       2.427  -0.138  -0.121  0.00  0.00    -0.382 OA
ATOM     31  H   UNL     1       2.042  -0.209  -1.006  0.00  0.00    +0.211 HD
ENDBRANCH  29  30
ENDBRANCH  19  29
ENDBRANCH   1  19
TORSDOF 4
