REMARK  Name = ZINC06747597
REMARK  6 active torsions:
REMARK  status: ('A' for Active; 'I' for Inactive)
REMARK    1  A    between atoms: C_1  and  O_2
REMARK    2  A    between atoms: O_2  and  C_3
REMARK    3  A    between atoms: C_6  and  S_18
REMARK    4  A    between atoms: C_8  and  C_9
REMARK    5  A    between atoms: N_11  and  C_12
REMARK    6  A    between atoms: S_18  and  N_21
REMARK                            x       y       z     vdW  Elec       q    Type
REMARK                         _______ _______ _______ _____ _____    ______ ____
ROOT
ATOM      1  C   UNL     1      -0.150   1.183   2.377  0.00  0.00    +0.132 A 
ATOM      2  C   UNL     1       0.990   0.393   2.421  0.00  0.00    +0.048 A 
ATOM      3  C   UNL     1       1.533   0.028   3.636  0.00  0.00    +0.032 A 
ATOM      4  C   UNL     1       0.940   0.437   4.820  0.00  0.00    +0.106 A 
ATOM      5  C   UNL     1      -0.195   1.217   4.796  0.00  0.00    +0.045 A 
ATOM      6  C   UNL     1      -0.752   1.598   3.572  0.00  0.00    +0.080 A 
ENDROOT
BRANCH   6   7
ATOM      7  C   UNL     1      -1.968   2.434   3.539  0.00  0.00    +0.248 C 
ATOM      8  O   UNL     1      -2.450   2.764   2.473  0.00  0.00    -0.270 OA
ATOM      9  N   UNL     1      -2.545   2.831   4.691  0.00  0.00    -0.308 N 
ATOM     10  H   UNL     1      -2.109   2.532   5.655  0.00  0.00    +0.149 HD
BRANCH   9  11
ATOM     11  C   UNL     1      -3.752   3.661   4.657  0.00  0.00    +0.073 C 
ATOM     12  C   UNL     1      -3.355   5.132   4.519  0.00  0.00    +0.022 C 
ATOM     13  C   UNL     1      -4.616   5.998   4.484  0.00  0.00    +0.002 C 
ATOM     14  C   UNL     1      -5.405   5.802   5.780  0.00  0.00    +0.000 C 
ATOM     15  C   UNL     1      -5.801   4.331   5.919  0.00  0.00    +0.002 C 
ATOM     16  C   UNL     1      -4.541   3.465   5.954  0.00  0.00    +0.022 C 
ENDBRANCH   9  11
ENDBRANCH   6   7
BRANCH   4  17
ATOM     17  S   UNL     1       1.641  -0.043   6.364  0.00  0.00    +0.056 S 
ATOM     18  O   UNL     1       3.014  -0.318   6.118  0.00  0.00    -0.153 OA
ATOM     19  O   UNL     1       1.216   0.918   7.320  0.00  0.00    -0.153 OA
BRANCH  17  20
ATOM     20  N   UNL     1       0.941  -1.481   6.793  0.00  0.00    -0.204 NA
ATOM     21  H   UNL     1       1.353  -1.816   7.756  0.00  0.00    +0.144 HD
ATOM     22  H   UNL     1       1.150  -2.236   6.022  0.00  0.00    +0.144 HD
ENDBRANCH  17  20
ENDBRANCH   4  17
BRANCH   1  24
ATOM     23  C   UNL     1      -0.013   1.086   0.008  0.00  0.00    +0.277 C 
ATOM     24  O   UNL     1      -0.682   1.547   1.184  0.00  0.00    -0.494 OA
ENDBRANCH   1  24
TORSDOF 5
