REMARK  Name = ZINC14633269
REMARK  8 active torsions:
REMARK  status: ('A' for Active; 'I' for Inactive)
REMARK    1  A    between atoms: C_4  and  C_7
REMARK    2  A    between atoms: C_7  and  N_8
REMARK    3  A    between atoms: C_9  and  N_34
REMARK    4  A    between atoms: C_10  and  N_17
REMARK    5  A    between atoms: N_17  and  C_18
REMARK    6  A    between atoms: C_18  and  C_19
REMARK    7  A    between atoms: C_25  and  C_27
REMARK    8  A    between atoms: C_27  and  C_28
REMARK                            x       y       z     vdW  Elec       q    Type
REMARK                         _______ _______ _______ _____ _____    ______ ____
ROOT
ATOM      1  N   UNL     1      -3.104  -6.220  -2.114  0.00  0.00    -0.276 N 
ATOM      2  C   UNL     1      -2.796  -4.892  -2.290  0.00  0.00    +0.128 A 
ATOM      3  C   UNL     1      -2.525  -4.111  -1.185  0.00  0.00    +0.140 A 
ATOM      4  C   UNL     1      -2.569  -4.702   0.092  0.00  0.00    +0.277 A 
ATOM      5  O   UNL     1      -2.330  -4.036   1.085  0.00  0.00    -0.266 OA
ATOM      6  N   UNL     1      -2.882  -6.007   0.209  0.00  0.00    -0.273 N 
ATOM      7  H   UNL     1      -2.921  -6.426   1.117  0.00  0.00    +0.173 HD
ATOM      8  C   UNL     1      -3.143  -6.753  -0.879  0.00  0.00    +0.331 A 
ATOM      9  O   UNL     1      -3.418  -7.929  -0.744  0.00  0.00    -0.246 OA
ENDROOT
BRANCH   3  10
ATOM     10  N   UNL     1      -2.205  -2.745  -1.333  0.00  0.00    -0.260 N 
ATOM     11  C   UNL     1      -0.969  -2.304  -1.018  0.00  0.00    +0.221 C 
ATOM     12  O   UNL     1      -0.107  -3.094  -0.695  0.00  0.00    -0.275 OA
BRANCH  10  13
ATOM     13  C   UNL     1      -3.214  -1.805  -1.827  0.00  0.00    +0.149 C 
BRANCH  13  14
ATOM     14  C   UNL     1      -4.070  -1.337  -0.679  0.00  0.00    -0.030 A 
ATOM     15  C   UNL     1      -5.168  -2.080  -0.288  0.00  0.00    +0.005 A 
ATOM     16  C   UNL     1      -5.951  -1.653   0.768  0.00  0.00    +0.000 A 
ATOM     17  C   UNL     1      -5.641  -0.478   1.427  0.00  0.00    +0.000 A 
ATOM     18  C   UNL     1      -4.547   0.268   1.032  0.00  0.00    +0.000 A 
ATOM     19  C   UNL     1      -3.761  -0.161  -0.021  0.00  0.00    +0.005 A 
ENDBRANCH  13  14
ENDBRANCH  10  13
BRANCH  11  20
ATOM     20  C   UNL     1      -0.659  -0.830  -1.070  0.00  0.00    +0.104 C 
BRANCH  20  21
ATOM     21  C   UNL     1       0.823  -0.609  -0.758  0.00  0.00    +0.020 C 
ATOM     22  C   UNL     1       1.138   0.903  -0.682  0.00  0.00    +0.012 C 
ATOM     23  C   UNL     1       2.551   0.953  -1.309  0.00  0.00    +0.027 C 
ATOM     24  C   UNL     1       2.623  -0.271  -2.191  0.00  0.00    -0.031 C 
ATOM     25  C   UNL     1       1.681  -1.123  -1.891  0.00  0.00    -0.027 C 
ENDBRANCH  20  21
ENDBRANCH  11  20
ENDBRANCH   3  10
BRANCH   2  26
ATOM     26  N   UNL     1      -2.757  -4.348  -3.552  0.00  0.00    -0.343 N 
ATOM     27  H   UNL     1      -2.440  -3.440  -3.679  0.00  0.00    +0.144 HD
ATOM     28  H   UNL     1      -3.047  -4.872  -4.315  0.00  0.00    +0.144 HD
ENDBRANCH   2  26
BRANCH   1  29
ATOM     29  C   UNL     1      -3.394  -7.061  -3.278  0.00  0.00    +0.163 C 
BRANCH  29  33
ATOM     30  C   UNL     1       0.228  -8.824  -4.699  0.00  0.00    +0.000 A 
ATOM     31  C   UNL     1      -0.532  -9.478  -3.747  0.00  0.00    +0.000 A 
ATOM     32  C   UNL     1      -1.704  -8.908  -3.288  0.00  0.00    +0.005 A 
ATOM     33  C   UNL     1      -2.116  -7.683  -3.779  0.00  0.00    -0.028 A 
ATOM     34  C   UNL     1      -1.359  -7.032  -4.735  0.00  0.00    +0.005 A 
ATOM     35  C   UNL     1      -0.184  -7.600  -5.191  0.00  0.00    +0.000 A 
ENDBRANCH  29  33
ENDBRANCH   1  29
TORSDOF 8
