REMARK  Name = ZINC66055522
REMARK  6 active torsions:
REMARK  status: ('A' for Active; 'I' for Inactive)
REMARK    1  A    between atoms: C_1  and  C_2
REMARK    2  A    between atoms: N_5  and  S_8
REMARK    3  A    between atoms: S_8  and  C_11
REMARK    4  A    between atoms: C_14  and  N_17
REMARK    5  A    between atoms: C_19  and  C_24
REMARK    6  A    between atoms: N_26  and  N_27
REMARK                            x       y       z     vdW  Elec       q    Type
REMARK                         _______ _______ _______ _____ _____    ______ ____
ROOT
ATOM      1  C   UNL     1      -0.795  -5.265   1.507  0.00  0.00    +0.106 A 
ATOM      2  C   UNL     1      -1.680  -5.892   0.650  0.00  0.00    +0.030 A 
ATOM      3  C   UNL     1      -1.386  -7.144   0.146  0.00  0.00    +0.025 A 
ATOM      4  C   UNL     1      -0.200  -7.773   0.500  0.00  0.00    +0.036 A 
ATOM      5  C   UNL     1       0.688  -7.140   1.361  0.00  0.00    +0.025 A 
ATOM      6  C   UNL     1       0.390  -5.886   1.858  0.00  0.00    +0.030 A 
ENDROOT
BRANCH   4   7
ATOM      7  N   UNL     1       0.101  -9.041  -0.008  0.00  0.00    -0.271 N 
ATOM      8  C   UNL     1       1.372  -9.741   0.211  0.00  0.00    +0.127 C 
ATOM      9  C   UNL     1       1.094 -11.220  -0.139  0.00  0.00    +0.103 C 
ATOM     10  C   UNL     1      -0.091 -11.093  -1.125  0.00  0.00    +0.110 C 
ATOM     11  C   UNL     1      -0.740  -9.777  -0.755  0.00  0.00    +0.221 C 
ATOM     12  O   UNL     1      -1.855  -9.435  -1.087  0.00  0.00    -0.275 OA
BRANCH   9  13
ATOM     13  C   UNL     1       2.288 -11.849  -0.808  0.00  0.00    +0.231 C 
ATOM     14  O   UNL     1       3.291 -11.194  -1.001  0.00  0.00    -0.274 OA
ATOM     15  N   UNL     1       2.243 -13.141  -1.192  0.00  0.00    -0.253 N 
ATOM     16  H   UNL     1       1.441 -13.665  -1.038  0.00  0.00    +0.169 HD
BRANCH  15  17
ATOM     17  N   UNL     1       3.326 -13.711  -1.799  0.00  0.00    -0.254 NA
ATOM     18  H   UNL     1       3.144 -14.677  -2.028  0.00  0.00    +0.140 HD
ATOM     19  H   UNL     1       3.597 -13.190  -2.619  0.00  0.00    +0.140 HD
ENDBRANCH  15  17
ENDBRANCH   9  13
ENDBRANCH   4   7
BRANCH   1  20
ATOM     20  S   UNL     1      -1.173  -3.668   2.148  0.00  0.00    +0.061 S 
ATOM     21  O   UNL     1      -0.433  -3.528   3.353  0.00  0.00    -0.153 OA
ATOM     22  O   UNL     1      -2.588  -3.537   2.103  0.00  0.00    -0.153 OA
BRANCH  20  27
ATOM     23  C   UNL     1       0.029   1.526   0.037  0.00  0.00    +0.007 C 
ATOM     24  C   UNL     1       0.043  -0.004   0.025  0.00  0.00    -0.012 C 
ATOM     25  C   UNL     1      -1.396  -0.527   0.017  0.00  0.00    +0.020 C 
ATOM     26  C   UNL     1      -1.378  -2.058  -0.030  0.00  0.00    +0.110 C 
ATOM     27  N   UNL     1      -0.561  -2.556   1.085  0.00  0.00    -0.177 NA
ATOM     28  C   UNL     1       0.809  -2.048   1.239  0.00  0.00    +0.110 C 
ATOM     29  C   UNL     1       0.766  -0.517   1.272  0.00  0.00    +0.020 C 
ENDBRANCH  20  27
ENDBRANCH   1  20
TORSDOF 5
