REMARK  Name = ZINC35339901
REMARK  6 active torsions:
REMARK  status: ('A' for Active; 'I' for Inactive)
REMARK    1  A    between atoms: C_1  and  N_2
REMARK    2  A    between atoms: N_2  and  S_3
REMARK    3  A    between atoms: S_3  and  C_6
REMARK    4  A    between atoms: C_9  and  N_13
REMARK    5  A    between atoms: C_10  and  N_12
REMARK    6  A    between atoms: N_13  and  C_14
REMARK                            x       y       z     vdW  Elec       q    Type
REMARK                         _______ _______ _______ _____ _____    ______ ____
ROOT
ATOM      1  C   UNL     1      -1.283   0.379  -2.115  0.00  0.00    +0.107 A 
ATOM      2  C   UNL     1      -2.321   1.291  -2.076  0.00  0.00    +0.030 A 
ATOM      3  C   UNL     1      -3.292   1.282  -3.059  0.00  0.00    +0.027 A 
ATOM      4  C   UNL     1      -3.227   0.357  -4.090  0.00  0.00    +0.052 A 
ATOM      5  C   UNL     1      -2.179  -0.563  -4.131  0.00  0.00    +0.048 A 
ATOM      6  C   UNL     1      -1.206  -0.544  -3.143  0.00  0.00    +0.053 A 
ENDROOT
BRANCH   1   7
ATOM      7  S   UNL     1      -0.049   0.397  -0.857  0.00  0.00    +0.058 S 
ATOM      8  O   UNL     1       0.518  -0.906  -0.826  0.00  0.00    -0.153 OA
ATOM      9  O   UNL     1      -0.643   0.996   0.286  0.00  0.00    -0.153 OA
BRANCH   7  11
ATOM     10  C   UNL     1       0.870   2.852  -1.522  0.00  0.00    +0.127 C 
ATOM     11  N   UNL     1       1.149   1.422  -1.361  0.00  0.00    -0.193 NA
ATOM     12  H   UNL     1       2.036   1.077  -1.550  0.00  0.00    +0.148 HD
ENDBRANCH   7  11
ENDBRANCH   1   7
BRANCH   5  13
ATOM     13  N   UNL     1      -2.107  -1.500  -5.168  0.00  0.00    -0.356 N 
ATOM     14  H   UNL     1      -2.786  -1.510  -5.860  0.00  0.00    +0.142 HD
ATOM     15  H   UNL     1      -1.378  -2.139  -5.195  0.00  0.00    +0.142 HD
ENDBRANCH   5  13
BRANCH   4  16
ATOM     16  N   UNL     1      -4.210   0.346  -5.088  0.00  0.00    -0.313 N 
ATOM     17  H   UNL     1      -4.226  -0.368  -5.744  0.00  0.00    +0.152 HD
BRANCH  16  18
ATOM     18  C   UNL     1      -5.166   1.362  -5.136  0.00  0.00    +0.031 A 
ATOM     19  C   UNL     1      -4.789   2.684  -4.930  0.00  0.00    +0.024 A 
ATOM     20  C   UNL     1      -5.737   3.686  -4.979  0.00  0.00    +0.016 A 
ATOM     21  C   UNL     1      -7.061   3.377  -5.235  0.00  0.00    +0.013 A 
ATOM     22  C   UNL     1      -7.440   2.062  -5.441  0.00  0.00    +0.016 A 
ATOM     23  C   UNL     1      -6.496   1.055  -5.398  0.00  0.00    +0.024 A 
ATOM     24  I   UNL     1      -8.496   4.901  -5.308  0.00  0.00    -0.044 I 
ENDBRANCH  16  18
ENDBRANCH   4  16
TORSDOF 5
