REMARK  Name = ZINC20877782
REMARK  8 active torsions:
REMARK  status: ('A' for Active; 'I' for Inactive)
REMARK    1  A    between atoms: C_1  and  N_2
REMARK    2  A    between atoms: C_6  and  C_13
REMARK    3  A    between atoms: N_9  and  C_12
REMARK    4  A    between atoms: C_13  and  O_14
REMARK    5  A    between atoms: O_14  and  C_15
REMARK    6  A    between atoms: C_20  and  C_21
REMARK    7  A    between atoms: C_21  and  N_22
REMARK    8  A    between atoms: N_22  and  C_23
REMARK                            x       y       z     vdW  Elec       q    Type
REMARK                         _______ _______ _______ _____ _____    ______ ____
ROOT
ATOM      1  C   UNL     1      -1.857   0.921   1.698  0.00  0.00    +0.126 A 
ATOM      2  C   UNL     1      -2.502   1.369   2.843  0.00  0.00    +0.046 A 
ATOM      3  C   UNL     1      -2.014   2.466   3.525  0.00  0.00    +0.004 A 
ATOM      4  C   UNL     1      -0.881   3.116   3.071  0.00  0.00    +0.001 A 
ATOM      5  C   UNL     1      -0.234   2.669   1.934  0.00  0.00    +0.009 A 
ATOM      6  C   UNL     1      -0.718   1.572   1.248  0.00  0.00    +0.011 A 
ENDROOT
BRANCH   1   7
ATOM      7  O   UNL     1      -2.339  -0.155   1.022  0.00  0.00    -0.487 OA
BRANCH   7   8
ATOM      8  C   UNL     1      -3.516  -0.775   1.544  0.00  0.00    +0.264 C 
BRANCH   8  14
ATOM      9  C   UNL     1      -5.603  -5.590  -2.732  0.00  0.00    +0.154 C 
ATOM     10  N   UNL     1      -4.777  -5.318  -1.553  0.00  0.00    -0.295 N 
ATOM     11  C   UNL     1      -4.610  -4.077  -0.943  0.00  0.00    +0.070 A 
ATOM     12  C   UNL     1      -5.110  -2.812  -1.208  0.00  0.00    +0.028 A 
ATOM     13  C   UNL     1      -4.758  -1.750  -0.398  0.00  0.00    +0.009 A 
ATOM     14  C   UNL     1      -3.898  -1.941   0.670  0.00  0.00    -0.008 A 
ATOM     15  C   UNL     1      -3.394  -3.198   0.941  0.00  0.00    +0.035 A 
ATOM     16  C   UNL     1      -3.747  -4.272   0.137  0.00  0.00    +0.070 A 
ATOM     17  N   UNL     1      -3.416  -5.625   0.150  0.00  0.00    -0.295 N 
ATOM     18  C   UNL     1      -4.049  -6.226  -0.875  0.00  0.00    +0.330 A 
ATOM     19  O   UNL     1      -3.975  -7.409  -1.147  0.00  0.00    -0.246 OA
ATOM     20  C   UNL     1      -2.531  -6.282   1.115  0.00  0.00    +0.154 C 
ENDBRANCH   8  14
ENDBRANCH   7   8
ENDBRANCH   1   7
BRANCH   6  21
ATOM     21  C   UNL     1      -0.013   1.086   0.008  0.00  0.00    +0.140 C 
BRANCH  21  22
ATOM     22  N   UNL     1      -0.721   1.571  -1.179  0.00  0.00    -0.340 N 
ATOM     23  H   UNL     1      -1.623   2.191  -1.066  0.00  0.00    +0.146 HD
BRANCH  22  24
ATOM     24  C   UNL     1      -0.251   1.246  -2.456  0.00  0.00    +0.029 A 
ATOM     25  C   UNL     1       0.892   0.468  -2.597  0.00  0.00    +0.025 A 
ATOM     26  C   UNL     1       1.359   0.140  -3.854  0.00  0.00    +0.029 A 
ATOM     27  C   UNL     1       0.691   0.596  -4.981  0.00  0.00    +0.067 A 
ATOM     28  C   UNL     1      -0.454   1.383  -4.843  0.00  0.00    +0.069 A 
ATOM     29  C   UNL     1      -0.923   1.707  -3.579  0.00  0.00    +0.050 A 
ATOM     30  N   UNL     1      -0.894   1.684  -6.129  0.00  0.00    -0.306 N 
ATOM     31  H   UNL     1      -1.793   2.301  -6.273  0.00  0.00    +0.170 HD
ATOM     32  C   UNL     1      -0.056   1.107  -7.011  0.00  0.00    +0.325 A 
ATOM     33  O   UNL     1      -0.158   1.174  -8.222  0.00  0.00    -0.247 OA
ATOM     34  N   UNL     1       0.911   0.443  -6.350  0.00  0.00    -0.306 N 
ATOM     35  H   UNL     1       1.768  -0.146  -6.707  0.00  0.00    +0.170 HD
ENDBRANCH  22  24
ENDBRANCH  21  22
ENDBRANCH   6  21
TORSDOF 6
