REMARK  Name = ZINC36601633
REMARK  19 active torsions:
REMARK  status: ('A' for Active; 'I' for Inactive)
REMARK    1  A    between atoms: C_1  and  C_2
REMARK    2  A    between atoms: C_5  and  C_7
REMARK    3  A    between atoms: C_7  and  N_8
REMARK    4  A    between atoms: N_8  and  C_9
REMARK    5  A    between atoms: C_9  and  C_11
REMARK    6  A    between atoms: C_9  and  C_20
REMARK    7  A    between atoms: C_12  and  O_19
REMARK    8  A    between atoms: C_14  and  O_18
REMARK    9  A    between atoms: C_16  and  O_17
REMARK   10  A    between atoms: N_22  and  C_23
REMARK   11  A    between atoms: C_23  and  C_24
REMARK   12  A    between atoms: C_23  and  C_25
REMARK   13  A    between atoms: C_23  and  C_26
REMARK   14  A    between atoms: C_26  and  C_27
REMARK   15  A    between atoms: C_27  and  C_28
REMARK   16  A    between atoms: C_27  and  C_29
REMARK   17  A    between atoms: C_27  and  C_30
REMARK   18  A    between atoms: C_31  and  C_33
REMARK   19  A    between atoms: C_33  and  C_35
REMARK                            x       y       z     vdW  Elec       q    Type
REMARK                         _______ _______ _______ _____ _____    ______ ____
ROOT
ATOM      1  C   UNL     1       2.995  -0.708  -4.941  0.00  0.00    +0.200 C 
ENDROOT
BRANCH   1   2
ATOM      2  C   UNL     1       1.970  -0.629  -6.043  0.00  0.00    +0.065 A 
ATOM      3  C   UNL     1       0.619  -0.702  -5.740  0.00  0.00    +0.129 A 
ATOM      4  C   UNL     1      -0.325  -0.629  -6.753  0.00  0.00    +0.091 A 
ATOM      5  C   UNL     1       0.083  -0.483  -8.071  0.00  0.00    +0.124 A 
ATOM      6  C   UNL     1       1.434  -0.409  -8.374  0.00  0.00    +0.091 A 
ATOM      7  C   UNL     1       2.377  -0.478  -7.360  0.00  0.00    +0.129 A 
BRANCH   7   8
ATOM      8  O   UNL     1       3.701  -0.401  -7.657  0.00  0.00    -0.506 OA
ATOM      9  H   UNL     1       4.086  -1.235  -7.959  0.00  0.00    +0.292 HD
ENDBRANCH   7   8
BRANCH   5  10
ATOM     10  O   UNL     1      -0.841  -0.412  -9.065  0.00  0.00    -0.507 OA
ATOM     11  H   UNL     1      -1.137   0.487  -9.263  0.00  0.00    +0.292 HD
ENDBRANCH   5  10
BRANCH   3  12
ATOM     12  O   UNL     1       0.219  -0.845  -4.449  0.00  0.00    -0.506 OA
ATOM     13  H   UNL     1      -0.013  -0.013  -4.014  0.00  0.00    +0.292 HD
ENDBRANCH   3  12
ENDBRANCH   1   2
BRANCH   1  14
ATOM     14  C   UNL     1       4.097  -1.653  -5.347  0.00  0.00    +0.239 C 
ATOM     15  O   UNL     1       4.132  -2.776  -4.890  0.00  0.00    -0.273 OA
ATOM     16  N   UNL     1       5.043  -1.250  -6.219  0.00  0.00    -0.308 N 
ATOM     17  H   UNL     1       5.067  -0.327  -6.515  0.00  0.00    +0.149 HD
BRANCH  16  18
ATOM     18  C   UNL     1       6.034  -2.206  -6.718  0.00  0.00    +0.030 C 
ATOM     19  C   UNL     1       6.704  -2.909  -5.535  0.00  0.00    +0.031 C 
ATOM     20  C   UNL     1       5.341  -3.244  -7.603  0.00  0.00    +0.031 C 
BRANCH  18  21
ATOM     21  C   UNL     1       7.092  -1.463  -7.535  0.00  0.00    +0.031 C 
BRANCH  21  22
ATOM     22  C   UNL     1       7.874  -0.518  -6.620  0.00  0.00    -0.036 C 
ATOM     23  C   UNL     1       8.845  -1.329  -5.760  0.00  0.00    +0.010 C 
ATOM     24  C   UNL     1       8.659   0.482  -7.471  0.00  0.00    +0.010 C 
ATOM     25  C   UNL     1       6.899   0.237  -5.716  0.00  0.00    +0.010 C 
ENDBRANCH  21  22
ENDBRANCH  18  21
ENDBRANCH  16  18
ENDBRANCH   1  14
BRANCH   1  26
ATOM     26  N   UNL     1       2.358  -1.199  -3.716  0.00  0.00    -0.275 N 
ATOM     27  C   UNL     1       1.498  -2.235  -3.772  0.00  0.00    +0.243 C 
ATOM     28  O   UNL     1       1.188  -2.823  -2.754  0.00  0.00    -0.270 OA
BRANCH  27  29
ATOM     29  C   UNL     1       0.936  -2.655  -5.065  0.00  0.00    +0.004 C 
ATOM     30  C   UNL     1      -0.370  -2.877  -5.181  0.00  0.00    +0.017 C 
ATOM     31  C   UNL     1       1.839  -2.834  -6.257  0.00  0.00    +0.048 C 
ENDBRANCH  27  29
BRANCH  26  32
ATOM     32  C   UNL     1       2.656  -0.562  -2.431  0.00  0.00    +0.183 C 
BRANCH  32  37
ATOM     33  C   UNL     1       0.254   3.863  -2.132  0.00  0.00    +0.086 C 
ATOM     34  C   UNL     1       0.556   2.393  -1.994  0.00  0.00    +0.102 A 
ATOM     35  C   UNL     1      -0.249   1.474  -1.432  0.00  0.00    +0.045 A 
ATOM     36  C   UNL     1       0.424   0.234  -1.516  0.00  0.00    +0.046 A 
ATOM     37  C   UNL     1       1.600   0.469  -2.124  0.00  0.00    +0.122 A 
ATOM     38  O   UNL     1       1.672   1.778  -2.417  0.00  0.00    -0.463 OA
ENDBRANCH  32  37
ENDBRANCH  26  32
ENDBRANCH   1  26
TORSDOF 12
