REMARK  Name = ZINC06518949
REMARK  8 active torsions:
REMARK  status: ('A' for Active; 'I' for Inactive)
REMARK    1  A    between atoms: C_1  and  C_2
REMARK    2  A    between atoms: C_2  and  C_3
REMARK    3  A    between atoms: C_6  and  N_9
REMARK    4  A    between atoms: C_10  and  C_12
REMARK    5  A    between atoms: C_12  and  C_27
REMARK    6  A    between atoms: C_13  and  C_14
REMARK    7  A    between atoms: N_16  and  C_23
REMARK    8  A    between atoms: C_23  and  C_24
REMARK                            x       y       z     vdW  Elec       q    Type
REMARK                         _______ _______ _______ _____ _____    ______ ____
ROOT
ATOM      1  C   UNL     1       4.719  -2.155  -5.934  0.00  0.00    +0.114 C 
ATOM      2  C   UNL     1       6.075  -2.434  -5.925  0.00  0.00    +0.034 C 
ENDROOT
BRANCH   2   3
ATOM      3  C   UNL     1       6.754  -2.683  -7.138  0.00  0.00    +0.002 A 
ATOM      4  C   UNL     1       6.317  -2.373  -8.412  0.00  0.00    +0.095 A 
ATOM      5  N   UNL     1       7.239  -2.766  -9.313  0.00  0.00    -0.337 N 
ATOM      6  C   UNL     1       8.320  -3.349  -8.683  0.00  0.00    +0.050 A 
ATOM      7  C   UNL     1       8.075  -3.322  -7.301  0.00  0.00    +0.007 A 
ATOM      8  C   UNL     1       9.011  -3.844  -6.414  0.00  0.00    +0.010 A 
ATOM      9  C   UNL     1      10.182  -4.387  -6.899  0.00  0.00    +0.001 A 
ATOM     10  C   UNL     1      10.428  -4.412  -8.264  0.00  0.00    +0.002 A 
ATOM     11  C   UNL     1       9.506  -3.905  -9.153  0.00  0.00    +0.026 A 
BRANCH   5  12
ATOM     12  C   UNL     1       7.112  -2.597 -10.763  0.00  0.00    +0.217 C 
BRANCH  12  13
ATOM     13  C   UNL     1       6.549  -3.858 -11.367  0.00  0.00    +0.230 C 
ATOM     14  O   UNL     1       6.282  -4.804 -10.657  0.00  0.00    -0.274 OA
ATOM     15  N   UNL     1       6.344  -3.934 -12.697  0.00  0.00    -0.328 N 
ATOM     16  H   UNL     1       6.559  -3.177 -13.265  0.00  0.00    +0.145 HD
ATOM     17  H   UNL     1       5.982  -4.745 -13.086  0.00  0.00    +0.145 HD
ENDBRANCH  12  13
ENDBRANCH   5  12
ENDBRANCH   2   3
BRANCH   1  19
ATOM     18  N   UNL     1       2.725  -1.475  -4.705  0.00  0.00    -0.281 N 
ATOM     19  C   UNL     1       4.045  -1.747  -4.696  0.00  0.00    +0.259 C 
ATOM     20  O   UNL     1       4.678  -1.654  -3.660  0.00  0.00    -0.269 OA
ATOM     21  H   UNL     1       2.205  -1.625  -5.510  0.00  0.00    +0.155 HD
BRANCH  18  25
ATOM     22  C   UNL     1       0.880   0.009  -1.278  0.00  0.00    -0.048 A 
ATOM     23  C   UNL     1       0.181  -0.824  -2.132  0.00  0.00    +0.005 A 
ATOM     24  C   UNL     1       0.790  -1.318  -3.270  0.00  0.00    +0.023 A 
ATOM     25  C   UNL     1       2.106  -0.977  -3.555  0.00  0.00    +0.034 A 
ATOM     26  C   UNL     1       2.805  -0.140  -2.695  0.00  0.00    +0.023 A 
ATOM     27  C   UNL     1       2.188   0.354  -1.562  0.00  0.00    +0.005 A 
BRANCH  22  29
ATOM     28  C   UNL     1      -0.478   1.872  -0.364  0.00  0.00    +0.009 C 
ATOM     29  C   UNL     1       0.212   0.546  -0.038  0.00  0.00    +0.032 C 
ENDBRANCH  22  29
ENDBRANCH  18  25
ENDBRANCH   1  19
BRANCH   1  30
ATOM     30  C   UNL     1       3.975  -2.264  -7.152  0.00  0.00    +0.104 C 
ATOM     31  N   UNL     1       3.384  -2.350  -8.119  0.00  0.00    -0.191 NA
ENDBRANCH   1  30
TORSDOF 7
