REMARK  Name = ZINC47128972
REMARK  9 active torsions:
REMARK  status: ('A' for Active; 'I' for Inactive)
REMARK    1  A    between atoms: C_1  and  C_2
REMARK    2  A    between atoms: C_2  and  C_4
REMARK    3  A    between atoms: C_2  and  N_17
REMARK    4  A    between atoms: C_7  and  N_10
REMARK    5  A    between atoms: N_13  and  C_14
REMARK    6  A    between atoms: N_20  and  C_21
REMARK    7  A    between atoms: N_20  and  C_22
REMARK    8  A    between atoms: C_22  and  C_24
REMARK    9  A    between atoms: C_22  and  C_25
REMARK                            x       y       z     vdW  Elec       q    Type
REMARK                         _______ _______ _______ _____ _____    ______ ____
ROOT
ATOM      1  C   UNL     1      -0.647   0.584  -0.374  0.00  0.00    +0.033 C 
ATOM      2  C   UNL     1      -0.363  -0.919  -0.401  0.00  0.00    +0.102 C 
ENDROOT
BRANCH   2   3
ATOM      3  C   UNL     1      -1.666  -1.676  -0.438  0.00  0.00    -0.027 A 
ATOM      4  C   UNL     1      -2.388  -1.863   0.726  0.00  0.00    +0.007 A 
ATOM      5  C   UNL     1      -3.583  -2.556   0.696  0.00  0.00    +0.023 A 
ATOM      6  C   UNL     1      -4.057  -3.066  -0.506  0.00  0.00    +0.035 A 
ATOM      7  C   UNL     1      -3.329  -2.877  -1.673  0.00  0.00    +0.023 A 
ATOM      8  C   UNL     1      -2.139  -2.178  -1.637  0.00  0.00    +0.007 A 
BRANCH   6   9
ATOM      9  N   UNL     1      -5.267  -3.769  -0.540  0.00  0.00    -0.269 N 
ATOM     10  C   UNL     1      -6.269  -3.427   0.294  0.00  0.00    +0.304 C 
ATOM     11  O   UNL     1      -6.158  -2.450   1.009  0.00  0.00    -0.253 OA
ATOM     12  N   UNL     1      -7.394  -4.168   0.335  0.00  0.00    -0.296 N 
ATOM     13  H   UNL     1      -5.383  -4.503  -1.163  0.00  0.00    +0.156 HD
ATOM     14  H   UNL     1      -7.482  -4.947  -0.236  0.00  0.00    +0.151 HD
BRANCH  12  15
ATOM     15  C   UNL     1      -8.483  -3.796   1.241  0.00  0.00    +0.075 C 
ATOM     16  C   UNL     1      -9.158  -4.918   2.033  0.00  0.00    +0.024 C 
ATOM     17  C   UNL     1      -9.897  -4.251   0.870  0.00  0.00    +0.024 C 
ENDBRANCH  12  15
ENDBRANCH   6   9
ENDBRANCH   2   3
BRANCH   2  18
ATOM     18  N   UNL     1       0.387  -1.296   0.799  0.00  0.00    -0.293 N 
ATOM     19  C   UNL     1       1.729  -1.174   0.822  0.00  0.00    +0.303 C 
ATOM     20  O   UNL     1       2.317  -0.750  -0.155  0.00  0.00    -0.253 OA
ATOM     21  N   UNL     1       2.419  -1.520   1.926  0.00  0.00    -0.282 N 
ATOM     22  C   UNL     1       1.710  -2.030   3.103  0.00  0.00    +0.134 C 
ATOM     23  H   UNL     1      -0.082  -1.633   1.578  0.00  0.00    +0.151 HD
BRANCH  21  24
ATOM     24  C   UNL     1       3.878  -1.387   1.950  0.00  0.00    +0.104 C 
ATOM     25  C   UNL     1       4.508  -2.743   2.275  0.00  0.00    +0.033 C 
BRANCH  24  26
ATOM     26  C   UNL     1       4.273  -0.385   3.004  0.00  0.00    -0.027 A 
ATOM     27  C   UNL     1       5.457  -0.544   3.699  0.00  0.00    +0.008 A 
ATOM     28  C   UNL     1       5.822   0.375   4.665  0.00  0.00    +0.038 A 
ATOM     29  C   UNL     1       5.000   1.456   4.936  0.00  0.00    +0.123 A 
ATOM     30  C   UNL     1       3.814   1.615   4.239  0.00  0.00    +0.038 A 
ATOM     31  C   UNL     1       3.454   0.697   3.270  0.00  0.00    +0.008 A 
ATOM     32  F   UNL     1       5.354   2.355   5.880  0.00  0.00    -0.205 F 
ENDBRANCH  24  26
ENDBRANCH  21  24
ENDBRANCH   2  18
TORSDOF 6
