REMARK  Name = ZINC11027293
REMARK  7 active torsions:
REMARK  status: ('A' for Active; 'I' for Inactive)
REMARK    1  A    between atoms: C_1  and  C_2
REMARK    2  A    between atoms: C_3  and  C_28
REMARK    3  A    between atoms: C_5  and  N_12
REMARK    4  A    between atoms: C_7  and  C_9
REMARK    5  A    between atoms: C_13  and  C_15
REMARK    6  A    between atoms: C_20  and  O_21
REMARK    7  A    between atoms: O_21  and  C_22
REMARK                            x       y       z     vdW  Elec       q    Type
REMARK                         _______ _______ _______ _____ _____    ______ ____
ROOT
ATOM      1  N   UNL     1      -3.558  -0.704   0.134  0.00  0.00    -0.298 N 
ATOM      2  C   UNL     1      -2.411  -0.003   0.227  0.00  0.00    +0.248 C 
ATOM      3  O   UNL     1      -2.443   1.184   0.491  0.00  0.00    -0.270 OA
ATOM      4  H   UNL     1      -3.530  -1.663  -0.005  0.00  0.00    +0.150 HD
ENDROOT
BRANCH   1   9
ATOM      5  C   UNL     1      -8.376  -1.021   1.574  0.00  0.00    +0.041 C 
ATOM      6  C   UNL     1      -7.214  -0.730   0.660  0.00  0.00    -0.049 C 
ATOM      7  C   UNL     1      -7.426  -0.440  -0.609  0.00  0.00    -0.016 C 
ATOM      8  S   UNL     1      -5.817  -0.150  -1.320  0.00  0.00    -0.106 S 
ATOM      9  C   UNL     1      -4.847  -0.016   0.241  0.00  0.00    +0.152 C 
ATOM     10  C   UNL     1      -5.816  -0.769   1.190  0.00  0.00    +0.132 C 
ATOM     11  C   UNL     1      -8.757  -0.368  -1.313  0.00  0.00    +0.051 C 
BRANCH  10  12
ATOM     12  C   UNL     1      -5.783  -0.121   2.550  0.00  0.00    +0.220 C 
ATOM     13  O   UNL     1      -5.066   0.837   2.748  0.00  0.00    -0.275 OA
ATOM     14  N   UNL     1      -6.549  -0.607   3.547  0.00  0.00    -0.329 N 
ATOM     15  H   UNL     1      -7.122  -1.373   3.389  0.00  0.00    +0.145 HD
ATOM     16  H   UNL     1      -6.527  -0.190   4.423  0.00  0.00    +0.145 HD
ENDBRANCH  10  12
ENDBRANCH   1   9
BRANCH   2  17
ATOM     17  C   UNL     1      -1.116  -0.675   0.008  0.00  0.00    +0.079 A 
ATOM     18  C   UNL     1      -1.074  -2.038  -0.295  0.00  0.00    +0.017 A 
ATOM     19  C   UNL     1       0.139  -2.660  -0.498  0.00  0.00    +0.001 A 
ATOM     20  C   UNL     1       1.318  -1.940  -0.402  0.00  0.00    +0.004 A 
ATOM     21  C   UNL     1       1.292  -0.591  -0.109  0.00  0.00    +0.047 A 
ATOM     22  C   UNL     1       0.080   0.050   0.104  0.00  0.00    +0.141 A 
BRANCH  22  23
ATOM     23  O   UNL     1       0.052   1.374   0.398  0.00  0.00    -0.455 OA
BRANCH  23  24
ATOM     24  C   UNL     1       0.032   1.736   1.707  0.00  0.00    +0.128 A 
ATOM     25  C   UNL     1       0.149   0.771   2.697  0.00  0.00    +0.046 A 
ATOM     26  C   UNL     1       0.133   1.143   4.028  0.00  0.00    +0.004 A 
ATOM     27  C   UNL     1      -0.009   2.474   4.373  0.00  0.00    +0.000 A 
ATOM     28  C   UNL     1      -0.131   3.437   3.389  0.00  0.00    +0.004 A 
ATOM     29  C   UNL     1      -0.111   3.072   2.057  0.00  0.00    +0.046 A 
ENDBRANCH  23  24
ENDBRANCH  22  23
ENDBRANCH   2  17
TORSDOF 5
