REMARK  Name = ZINC36643667
REMARK  16 active torsions:
REMARK  status: ('A' for Active; 'I' for Inactive)
REMARK    1  A    between atoms: C_1  and  C_2
REMARK    2  A    between atoms: C_2  and  C_3
REMARK    3  A    between atoms: C_3  and  C_4
REMARK    4  A    between atoms: C_4  and  N_5
REMARK    5  A    between atoms: N_5  and  C_6
REMARK    6  A    between atoms: N_5  and  S_7
REMARK    7  A    between atoms: S_7  and  C_10
REMARK    8  A    between atoms: C_13  and  C_16
REMARK    9  A    between atoms: N_18  and  C_19
REMARK   10  A    between atoms: C_19  and  C_20
REMARK   11  A    between atoms: C_20  and  C_21
REMARK   12  A    between atoms: C_21  and  N_22
REMARK   13  A    between atoms: N_22  and  C_23
REMARK   14  A    between atoms: N_22  and  C_24
REMARK   15  A    between atoms: C_28  and  C_35
REMARK   16  A    between atoms: C_29  and  C_34
REMARK                            x       y       z     vdW  Elec       q    Type
REMARK                         _______ _______ _______ _____ _____    ______ ____
ROOT
ATOM      1  C   UNL     1       5.745   1.718   4.247  0.00  0.00    +0.252 C 
ATOM      2  O   UNL     1       6.031   2.177   3.158  0.00  0.00    -0.270 OA
ATOM      3  N   UNL     1       6.374   2.164   5.352  0.00  0.00    -0.246 N 
ATOM      4  C   UNL     1       7.249   3.233   5.267  0.00  0.00    +0.168 A 
ATOM      5  N   UNL     1       7.587   3.939   4.213  0.00  0.00    -0.224 NA
ATOM      6  C   UNL     1       8.461   4.966   4.277  0.00  0.00    +0.083 A 
ATOM      7  C   UNL     1       8.906   5.800   3.225  0.00  0.00    -0.021 A 
ATOM      8  C   UNL     1       9.805   6.807   3.462  0.00  0.00    -0.045 A 
ATOM      9  C   UNL     1      10.308   7.045   4.734  0.00  0.00    +0.005 A 
ATOM     10  C   UNL     1       9.894   6.249   5.786  0.00  0.00    +0.017 A 
ATOM     11  C   UNL     1       8.994   5.238   5.557  0.00  0.00    +0.041 A 
ATOM     12  S   UNL     1       8.200   4.010   6.566  0.00  0.00    -0.052 S 
ATOM     13  C   UNL     1      10.258   7.675   2.317  0.00  0.00    +0.044 C 
ATOM     14  C   UNL     1       8.388   5.579   1.827  0.00  0.00    +0.046 C 
ENDROOT
BRANCH   1  18
ATOM     15  C   UNL     1       2.762  -1.288   4.567  0.00  0.00    +0.106 A 
ATOM     16  C   UNL     1       2.530  -0.168   3.790  0.00  0.00    +0.029 A 
ATOM     17  C   UNL     1       3.494   0.813   3.682  0.00  0.00    +0.015 A 
ATOM     18  C   UNL     1       4.707   0.672   4.359  0.00  0.00    +0.037 A 
ATOM     19  C   UNL     1       4.935  -0.461   5.141  0.00  0.00    +0.015 A 
ATOM     20  C   UNL     1       3.960  -1.432   5.245  0.00  0.00    +0.029 A 
BRANCH  15  21
ATOM     21  S   UNL     1       1.525  -2.536   4.700  0.00  0.00    +0.061 S 
ATOM     22  O   UNL     1       2.196  -3.738   5.052  0.00  0.00    -0.153 OA
ATOM     23  O   UNL     1       0.714  -2.429   3.538  0.00  0.00    -0.153 OA
BRANCH  21  24
ATOM     24  N   UNL     1       0.563  -2.136   5.987  0.00  0.00    -0.180 NA
ATOM     25  C   UNL     1       0.892  -2.626   7.328  0.00  0.00    +0.131 C 
BRANCH  24  26
ATOM     26  C   UNL     1      -0.618  -1.293   5.785  0.00  0.00    +0.109 C 
BRANCH  26  27
ATOM     27  C   UNL     1      -0.257   0.166   6.069  0.00  0.00    +0.017 C 
BRANCH  27  29
ATOM     28  C   UNL     1      -1.129   2.507   6.143  0.00  0.00    +0.004 C 
ATOM     29  C   UNL     1      -1.490   1.047   5.858  0.00  0.00    -0.002 C 
ENDBRANCH  27  29
ENDBRANCH  26  27
ENDBRANCH  24  26
ENDBRANCH  21  24
ENDBRANCH  15  21
ENDBRANCH   1  18
BRANCH   3  30
ATOM     30  C   UNL     1       6.133   1.516   6.644  0.00  0.00    +0.114 C 
BRANCH  30  31
ATOM     31  C   UNL     1       7.266   0.531   6.940  0.00  0.00    +0.001 C 
BRANCH  31  32
ATOM     32  C   UNL     1       6.936  -0.259   8.208  0.00  0.00    -0.078 C 
BRANCH  32  33
ATOM     33  N   UNL     1       8.024  -1.204   8.493  0.00  0.00    +0.376 N 
ATOM     34  C   UNL     1       7.765  -1.878   9.772  0.00  0.00    -0.097 C 
ATOM     35  C   UNL     1       8.098  -2.204   7.419  0.00  0.00    -0.097 C 
ATOM     36  H   UNL     1       8.899  -0.704   8.547  0.00  0.00    -0.083 HD
ENDBRANCH  32  33
ENDBRANCH  31  32
ENDBRANCH  30  31
ENDBRANCH   3  30
TORSDOF 10
