REMARK  Name = ZINC15670983
REMARK  7 active torsions:
REMARK  status: ('A' for Active; 'I' for Inactive)
REMARK    1  A    between atoms: C_1  and  O_2
REMARK    2  A    between atoms: O_2  and  C_3
REMARK    3  A    between atoms: C_6  and  N_11
REMARK    4  A    between atoms: C_7  and  O_9
REMARK    5  A    between atoms: O_9  and  C_10
REMARK    6  A    between atoms: C_12  and  C_14
REMARK    7  A    between atoms: C_15  and  N_31
REMARK                            x       y       z     vdW  Elec       q    Type
REMARK                         _______ _______ _______ _____ _____    ______ ____
ROOT
ATOM      1  C   UNL     1      -6.208   0.086  -0.821  0.00  0.00    +0.097 A 
ATOM      2  C   UNL     1      -4.862   0.316  -1.014  0.00  0.00    +0.054 A 
ATOM      3  C   UNL     1      -4.047   0.655   0.141  0.00  0.00    +0.031 A 
ATOM      4  C   UNL     1      -2.651   0.931   0.184  0.00  0.00    -0.030 A 
ATOM      5  C   UNL     1      -2.070   1.235   1.369  0.00  0.00    -0.005 A 
ATOM      6  C   UNL     1      -2.845   1.267   2.540  0.00  0.00    +0.103 A 
ATOM      7  C   UNL     1      -4.741   0.714   1.368  0.00  0.00    +0.089 A 
ATOM      8  S   UNL     1      -6.417   0.322   0.933  0.00  0.00    -0.064 S 
ATOM      9  N   UNL     1      -2.243   1.574   3.751  0.00  0.00    -0.316 N 
ATOM     10  C   UNL     1      -1.683   2.950   3.734  0.00  0.00    +0.106 C 
ATOM     11  C   UNL     1      -1.551   3.298   5.238  0.00  0.00    +0.020 C 
ATOM     12  C   UNL     1      -2.809   2.646   5.855  0.00  0.00    +0.020 C 
ATOM     13  C   UNL     1      -3.230   1.555   4.853  0.00  0.00    +0.106 C 
ATOM     14  C   UNL     1      -0.601   1.555   1.495  0.00  0.00    +0.039 C 
ATOM     15  C   UNL     1       0.161   1.061   0.267  0.00  0.00    +0.005 C 
ATOM     16  C   UNL     1      -0.550   1.584  -0.988  0.00  0.00    +0.005 C 
ATOM     17  C   UNL     1      -1.892   0.864  -1.113  0.00  0.00    +0.036 C 
ATOM     18  N   UNL     1      -4.180   1.011   2.565  0.00  0.00    -0.337 N 
ATOM     19  H   UNL     1      -4.727   1.040   3.434  0.00  0.00    +0.168 HD
ENDROOT
BRANCH   1  21
ATOM     20  N   UNL     1      -8.467  -0.442  -1.405  0.00  0.00    -0.278 N 
ATOM     21  C   UNL     1      -7.188  -0.255  -1.784  0.00  0.00    +0.257 C 
ATOM     22  O   UNL     1      -6.874  -0.378  -2.954  0.00  0.00    -0.269 OA
ATOM     23  H   UNL     1      -8.734  -0.264  -0.490  0.00  0.00    +0.155 HD
BRANCH  20  27
ATOM     24  C   UNL     1     -11.285  -1.792  -4.174  0.00  0.00    +0.124 A 
ATOM     25  C   UNL     1      -9.970  -2.227  -4.251  0.00  0.00    +0.047 A 
ATOM     26  C   UNL     1      -9.037  -1.780  -3.335  0.00  0.00    +0.030 A 
ATOM     27  C   UNL     1      -9.414  -0.896  -2.335  0.00  0.00    +0.076 A 
ATOM     28  C   UNL     1     -10.736  -0.462  -2.253  0.00  0.00    +0.145 A 
ATOM     29  C   UNL     1     -11.667  -0.908  -3.176  0.00  0.00    +0.093 A 
BRANCH  24  31
ATOM     30  C   UNL     1     -11.738  -3.144  -6.077  0.00  0.00    +0.277 C 
ATOM     31  O   UNL     1     -12.200  -2.234  -5.077  0.00  0.00    -0.495 OA
ENDBRANCH  24  31
BRANCH  28  32
ATOM     32  O   UNL     1     -11.109   0.400  -1.270  0.00  0.00    -0.493 OA
ATOM     33  C   UNL     1     -12.480   0.802  -1.247  0.00  0.00    +0.277 C 
ENDBRANCH  28  32
ENDBRANCH  20  27
ENDBRANCH   1  21
BRANCH   2  34
ATOM     34  N   UNL     1      -4.300   0.225  -2.280  0.00  0.00    -0.356 N 
ATOM     35  H   UNL     1      -3.357   0.020  -2.378  0.00  0.00    +0.142 HD
ATOM     36  H   UNL     1      -4.849   0.366  -3.067  0.00  0.00    +0.142 HD
ENDBRANCH   2  34
TORSDOF 5
