REMARK  Name = ZINC39363049
REMARK  8 active torsions:
REMARK  status: ('A' for Active; 'I' for Inactive)
REMARK    1  A    between atoms: C_1  and  C_2
REMARK    2  A    between atoms: C_5  and  N_8
REMARK    3  A    between atoms: C_9  and  C_11
REMARK    4  A    between atoms: C_11  and  S_12
REMARK    5  A    between atoms: S_12  and  C_13
REMARK    6  A    between atoms: C_16  and  C_26
REMARK    7  A    between atoms: N_18  and  C_19
REMARK    8  A    between atoms: C_26  and  C_27
REMARK                            x       y       z     vdW  Elec       q    Type
REMARK                         _______ _______ _______ _____ _____    ______ ____
ROOT
ATOM      1  C   UNL     1       0.625  -8.706   2.635  0.00  0.00    +0.180 C 
ATOM      2  N   UNL     1       0.621  -9.315   1.497  0.00  0.00    -0.162 NA
ATOM      3  N   UNL     1       0.710 -10.703   1.657  0.00  0.00    -0.246 N 
ATOM      4  C   UNL     1       0.778 -10.945   3.108  0.00  0.00    +0.187 C 
ATOM      5  N   UNL     1       0.724  -9.596   3.695  0.00  0.00    -0.258 N 
ATOM      6  H   UNL     1       0.725 -11.370   0.953  0.00  0.00    +0.170 HD
ENDROOT
BRANCH   5   7
ATOM      7  C   UNL     1       0.761  -9.274   5.055  0.00  0.00    +0.038 A 
ATOM      8  C   UNL     1       1.915  -9.504   5.793  0.00  0.00    +0.025 A 
ATOM      9  C   UNL     1       1.949  -9.185   7.137  0.00  0.00    +0.022 A 
ATOM     10  C   UNL     1       0.834  -8.636   7.747  0.00  0.00    +0.041 A 
ATOM     11  C   UNL     1      -0.317  -8.406   7.014  0.00  0.00    +0.022 A 
ATOM     12  C   UNL     1      -0.354  -8.718   5.669  0.00  0.00    +0.025 A 
ATOM     13 CL   UNL     1       0.880  -8.237   9.436  0.00  0.00    -0.084 Cl
ENDBRANCH   5   7
BRANCH   1  14
ATOM     14  S   UNL     1       0.527  -6.957   2.819  0.00  0.00    -0.079 S 
BRANCH  14  15
ATOM     15  C   UNL     1       0.419  -6.341   1.116  0.00  0.00    +0.173 C 
BRANCH  15  17
ATOM     16  N   UNL     1       0.238  -4.156  -0.029  0.00  0.00    -0.285 N 
ATOM     17  C   UNL     1       0.328  -4.837   1.131  0.00  0.00    +0.227 C 
ATOM     18  O   UNL     1       0.336  -4.239   2.186  0.00  0.00    -0.275 OA
ATOM     19  H   UNL     1       0.157  -4.636  -0.868  0.00  0.00    +0.155 HD
BRANCH  16  24
ATOM     20  C   UNL     1       0.337   1.516  -0.004  0.00  0.00    +0.044 C 
ATOM     21  C   UNL     1       0.311   0.009  -0.011  0.00  0.00    -0.050 A 
ATOM     22  C   UNL     1       1.037  -0.698   0.930  0.00  0.00    +0.005 A 
ATOM     23  C   UNL     1       1.015  -2.079   0.927  0.00  0.00    +0.023 A 
ATOM     24  C   UNL     1       0.262  -2.757  -0.023  0.00  0.00    +0.033 A 
ATOM     25  C   UNL     1      -0.466  -2.044  -0.966  0.00  0.00    +0.023 A 
ATOM     26  C   UNL     1      -0.444  -0.663  -0.954  0.00  0.00    +0.005 A 
ENDBRANCH  16  24
ENDBRANCH  15  17
ENDBRANCH  14  15
ENDBRANCH   1  14
BRANCH   4  27
ATOM     27  C   UNL     1      -0.413 -11.788   3.568  0.00  0.00    +0.097 C 
BRANCH  27  28
ATOM     28  C   UNL     1      -0.312 -13.168   2.972  0.00  0.00    +0.029 A 
ATOM     29  N   UNL     1      -0.789 -13.410   1.713  0.00  0.00    -0.311 N 
ATOM     30  C   UNL     1      -0.704 -14.639   1.171  0.00  0.00    +0.327 A 
ATOM     31  O   UNL     1      -1.134 -14.832   0.051  0.00  0.00    -0.247 OA
ATOM     32  N   UNL     1      -0.147 -15.658   1.853  0.00  0.00    -0.275 N 
ATOM     33  C   UNL     1       0.335 -15.460   3.096  0.00  0.00    +0.254 A 
ATOM     34  O   UNL     1       0.839 -16.381   3.714  0.00  0.00    -0.268 OA
ATOM     35  C   UNL     1       0.255 -14.171   3.676  0.00  0.00    +0.091 A 
ATOM     36  H   UNL     1      -0.093 -16.537   1.448  0.00  0.00    +0.173 HD
ATOM     37  H   UNL     1      -1.194 -12.689   1.206  0.00  0.00    +0.170 HD
ENDBRANCH  27  28
ENDBRANCH   4  27
TORSDOF 7
