REMARK  Name = ZINC40552379
REMARK  7 active torsions:
REMARK  status: ('A' for Active; 'I' for Inactive)
REMARK    1  A    between atoms: C_1  and  C_2
REMARK    2  A    between atoms: C_5  and  C_22
REMARK    3  A    between atoms: N_12  and  CA_13
REMARK    4  A    between atoms: CA_13  and  CB_15
REMARK    5  A    between atoms: CA_13  and  C_19
REMARK    6  A    between atoms: CB_15  and  CG2_17
REMARK    7  A    between atoms: CB_15  and  OG1_18
REMARK                            x       y       z     vdW  Elec       q    Type
REMARK                         _______ _______ _______ _____ _____    ______ ____
ROOT
ATOM      1  C   UNK A   0      -0.026   1.522   0.018  0.00  0.00    +0.009 C 
ATOM      2  C   UNK A   0      -0.001  -0.008   0.006  0.00  0.00    +0.004 C 
ATOM      3  C   UNK A   0       0.716  -0.497  -1.254  0.00  0.00    +0.009 C 
ATOM      4  C   UNK A   0       2.139   0.064  -1.285  0.00  0.00    +0.004 C 
ATOM      5  C   UNK A   0       2.910  -0.443  -0.062  0.00  0.00    +0.112 C 
ATOM      6  N   UNK A   0       2.153  -0.102   1.150  0.00  0.00    -0.285 N 
ATOM      7  C   UNK A   0       0.746  -0.516   1.244  0.00  0.00    +0.112 C 
ATOM      8  C   UNK A   0       2.738   0.577   2.157  0.00  0.00    +0.303 C 
ATOM      9  O   UNK A   0       2.077   0.935   3.112  0.00  0.00    -0.253 OA
ATOM     10  N   THR A   1       4.055   0.857   2.104  0.00  0.00    -0.284 N 
ATOM     11  C   UNK A   0       2.843  -0.398  -2.562  0.00  0.00    +0.009 C 
ATOM     12  H   THR A   1       4.567   0.635   1.311  0.00  0.00    +0.151 HD
ENDROOT
BRANCH  10  13
ATOM     13  CA  THR A   1       4.713   1.498   3.246  0.00  0.00    +0.216 C 
BRANCH  13  14
ATOM     14  C   THR A   1       4.538   2.992   3.153  0.00  0.00    +0.378 C 
ATOM     15  O   THR A   1       4.493   3.665   4.169  0.00  0.00    -0.244 OA
ATOM     16  OXT THR A   1       4.441   3.528   2.062  0.00  0.00    -0.244 OA
ENDBRANCH  13  14
BRANCH  13  17
ATOM     17  CB  THR A   1       6.204   1.158   3.232  0.00  0.00    +0.143 C 
ATOM     18  CG2 THR A   1       6.380  -0.362   3.200  0.00  0.00    +0.040 C 
BRANCH  17  19
ATOM     19  OG1 THR A   1       6.813   1.732   2.073  0.00  0.00    -0.390 OA
ATOM     20  HG1 THR A   1       7.761   1.556   1.999  0.00  0.00    +0.210 HD
ENDBRANCH  17  19
ENDBRANCH  13  17
ENDBRANCH  10  13
TORSDOF 4
