REMARK  Name = ZINC02503908
REMARK  14 active torsions:
REMARK  status: ('A' for Active; 'I' for Inactive)
REMARK    1  A    between atoms: C_1  and  C_2
REMARK    2  A    between atoms: C_2  and  C_3
REMARK    3  A    between atoms: C_3  and  O_4
REMARK    4  A    between atoms: O_4  and  C_5
REMARK    5  A    between atoms: C_5  and  C_7
REMARK    6  A    between atoms: C_12  and  C_17
REMARK    7  A    between atoms: C_15  and  N_16
REMARK    8  A    between atoms: C_20  and  C_23
REMARK    9  A    between atoms: C_24  and  C_28
REMARK   10  A    between atoms: C_25  and  N_27
REMARK   11  A    between atoms: C_28  and  O_30
REMARK   12  A    between atoms: O_30  and  C_31
REMARK   13  A    between atoms: C_31  and  C_32
REMARK   14  A    between atoms: C_32  and  C_33
REMARK                            x       y       z     vdW  Elec       q    Type
REMARK                         _______ _______ _______ _____ _____    ______ ____
ROOT
ATOM      1  C   UNL     1      -1.056  -1.038   0.007  0.00  0.00    +0.127 A 
ATOM      2  C   UNL     1       0.002  -0.004   0.002  0.00  0.00    +0.040 A 
ATOM      3  C   UNL     1      -0.017   1.386   0.010  0.00  0.00    +0.059 A 
ATOM      4  C   UNL     1       1.173   2.097   0.002  0.00  0.00    +0.140 A 
ATOM      5  C   UNL     1       2.392   1.403  -0.014  0.00  0.00    +0.047 A 
ATOM      6  C   UNL     1       2.418   0.003  -0.022  0.00  0.00    +0.037 A 
ATOM      7  C   UNL     1       1.214  -0.708  -0.013  0.00  0.00    +0.147 A 
ATOM      8  O   UNL     1       0.935  -2.029  -0.018  0.00  0.00    -0.440 OA
ATOM      9  C   UNL     1      -0.386  -2.252  -0.006  0.00  0.00    +0.199 A 
ATOM     10  C   UNL     1       3.442   2.442  -0.019  0.00  0.00    +0.127 A 
ATOM     11  C   UNL     1       2.764   3.653  -0.006  0.00  0.00    +0.199 A 
ATOM     12  O   UNL     1       1.444   3.421   0.005  0.00  0.00    -0.441 OA
ENDROOT
BRANCH   6  13
ATOM     13  C   UNL     1       3.711  -0.719  -0.037  0.00  0.00    -0.014 A 
ATOM     14  C   UNL     1       4.584  -0.616   1.046  0.00  0.00    +0.009 A 
ATOM     15  C   UNL     1       5.785  -1.295   1.027  0.00  0.00    +0.004 A 
ATOM     16  C   UNL     1       6.128  -2.069  -0.067  0.00  0.00    -0.050 A 
ATOM     17  C   UNL     1       5.269  -2.171  -1.147  0.00  0.00    +0.004 A 
ATOM     18  C   UNL     1       4.063  -1.500  -1.138  0.00  0.00    +0.009 A 
ATOM     19  C   UNL     1       7.444  -2.803  -0.084  0.00  0.00    +0.044 C 
ENDBRANCH   6  13
BRANCH   9  20
ATOM     20  N   UNL     1      -0.982  -3.488  -0.008  0.00  0.00    -0.329 N 
ATOM     21  H   UNL     1      -1.950  -3.560   0.000  0.00  0.00    +0.145 HD
ATOM     22  H   UNL     1      -0.437  -4.290  -0.018  0.00  0.00    +0.145 HD
ENDBRANCH   9  20
BRANCH  11  23
ATOM     23  N   UNL     1       3.352   4.892  -0.006  0.00  0.00    -0.329 N 
ATOM     24  H   UNL     1       4.319   4.970  -0.015  0.00  0.00    +0.145 HD
ATOM     25  H   UNL     1       2.802   5.690   0.004  0.00  0.00    +0.145 HD
ENDBRANCH  11  23
BRANCH   1  26
ATOM     26  C   UNL     1      -2.458  -0.832   0.021  0.00  0.00    +0.345 C 
ATOM     27  O   UNL     1      -3.070  -0.737  -1.027  0.00  0.00    -0.245 OA
BRANCH  26  28
ATOM     28  O   UNL     1      -3.114  -0.739   1.196  0.00  0.00    -0.461 OA
BRANCH  28  29
ATOM     29  C   UNL     1      -4.527  -0.531   1.136  0.00  0.00    +0.232 C 
BRANCH  29  31
ATOM     30  C   UNL     1      -6.604  -0.230   2.491  0.00  0.00    +0.007 C 
ATOM     31  C   UNL     1      -5.092  -0.453   2.555  0.00  0.00    +0.038 C 
ENDBRANCH  29  31
ENDBRANCH  28  29
ENDBRANCH  26  28
ENDBRANCH   1  26
BRANCH  10  32
ATOM     32  C   UNL     1       4.845   2.244  -0.034  0.00  0.00    +0.345 C 
ATOM     33  O   UNL     1       5.437   2.165  -1.095  0.00  0.00    -0.245 OA
BRANCH  32  34
ATOM     34  O   UNL     1       5.525   2.143   1.127  0.00  0.00    -0.461 OA
BRANCH  34  35
ATOM     35  C   UNL     1       6.937   1.945   1.037  0.00  0.00    +0.232 C 
BRANCH  35  36
ATOM     36  C   UNL     1       7.531   1.856   2.445  0.00  0.00    +0.038 C 
ATOM     37  C   UNL     1       9.043   1.643   2.349  0.00  0.00    +0.007 C 
ENDBRANCH  35  36
ENDBRANCH  34  35
ENDBRANCH  32  34
ENDBRANCH  10  32
TORSDOF 11
