REMARK  Name = ZINC00377785
REMARK  6 active torsions:
REMARK  status: ('A' for Active; 'I' for Inactive)
REMARK    1  A    between atoms: C_1  and  C_2
REMARK    2  A    between atoms: C_5  and  C_9
REMARK    3  A    between atoms: C_7  and  C_8
REMARK    4  A    between atoms: C_16  and  N_27
REMARK    5  A    between atoms: C_17  and  C_25
REMARK    6  A    between atoms: C_18  and  C_20
REMARK                            x       y       z     vdW  Elec       q    Type
REMARK                         _______ _______ _______ _____ _____    ______ ____
ROOT
ATOM      1  C   UNL     1       0.187  -4.615  -0.122  0.00  0.00    +0.074 A 
ATOM      2  C   UNL     1      -0.776  -5.265  -0.818  0.00  0.00    +0.054 A 
ATOM      3  C   UNL     1      -0.588  -6.649  -0.637  0.00  0.00    +0.245 A 
ATOM      4  N   UNL     1       0.446  -6.824   0.136  0.00  0.00    -0.135 NA
ATOM      5  N   UNL     1       0.964  -5.566   0.477  0.00  0.00    -0.273 N 
ATOM      6  H   UNL     1       1.736  -5.400   1.040  0.00  0.00    +0.189 HD
ATOM      7  O   UNL     1      -1.407  -7.569  -1.215  0.00  0.00    -0.421 OA
ATOM      8  C   UNL     1      -2.564  -7.125  -1.744  0.00  0.00    +0.201 C 
ATOM      9  C   UNL     1      -2.852  -5.827  -1.975  0.00  0.00    +0.098 C 
ATOM     10  C   UNL     1      -1.891  -4.707  -1.665  0.00  0.00    +0.105 C 
ENDROOT
BRANCH   1  15
ATOM     11  C   UNL     1       0.889   1.087   0.230  0.00  0.00    +0.044 C 
ATOM     12  C   UNL     1       0.705  -0.406   0.138  0.00  0.00    -0.047 A 
ATOM     13  C   UNL     1      -0.550  -0.958   0.321  0.00  0.00    +0.004 A 
ATOM     14  C   UNL     1      -0.725  -2.324   0.238  0.00  0.00    +0.010 A 
ATOM     15  C   UNL     1       0.367  -3.149  -0.032  0.00  0.00    +0.000 A 
ATOM     16  C   UNL     1       1.630  -2.586  -0.216  0.00  0.00    +0.013 A 
ATOM     17  C   UNL     1       1.791  -1.218  -0.136  0.00  0.00    -0.047 A 
ATOM     18  C   UNL     1       3.154  -0.608  -0.341  0.00  0.00    +0.044 C 
ENDBRANCH   1  15
BRANCH  10  19
ATOM     19  C   UNL     1      -1.327  -4.151  -2.947  0.00  0.00    +0.003 A 
ATOM     20  C   UNL     1      -1.483  -2.833  -3.434  0.00  0.00    +0.045 A 
ATOM     21  C   UNL     1      -0.820  -2.768  -4.603  0.00  0.00    +0.195 A 
ATOM     22  O   UNL     1      -0.274  -3.971  -4.848  0.00  0.00    -0.471 OA
ATOM     23  C   UNL     1      -0.574  -4.811  -3.845  0.00  0.00    +0.199 A 
ENDBRANCH  10  19
BRANCH   8  24
ATOM     24  N   UNL     1      -3.517  -8.058  -2.071  0.00  0.00    -0.328 N 
ATOM     25  H   UNL     1      -3.345  -9.001  -1.920  0.00  0.00    +0.145 HD
ATOM     26  H   UNL     1      -4.362  -7.775  -2.455  0.00  0.00    +0.145 HD
ENDBRANCH   8  24
BRANCH   9  27
ATOM     27  C   UNL     1      -4.126  -5.499  -2.540  0.00  0.00    +0.101 C 
ATOM     28  N   UNL     1      -5.136  -5.238  -2.989  0.00  0.00    -0.191 NA
ENDBRANCH   9  27
TORSDOF 4
