REMARK  Name = ZINC04601227
REMARK  7 active torsions:
REMARK  status: ('A' for Active; 'I' for Inactive)
REMARK    1  A    between atoms: C_1  and  C_2
REMARK    2  A    between atoms: C_2  and  C_4
REMARK    3  A    between atoms: C_2  and  S_14
REMARK    4  A    between atoms: N_6  and  C_7
REMARK    5  A    between atoms: S_14  and  C_15
REMARK    6  A    between atoms: C_18  and  C_21
REMARK    7  A    between atoms: N_19  and  N_20
REMARK                            x       y       z     vdW  Elec       q    Type
REMARK                         _______ _______ _______ _____ _____    ______ ____
ROOT
ATOM      1  S   UNL     1       3.534   8.001  -0.400  0.00  0.00    -0.072 S 
ENDROOT
BRANCH   1   2
ATOM      2  C   UNL     1       2.175   6.905  -0.158  0.00  0.00    +0.209 A 
ATOM      3  N   UNL     1       0.954   7.243   0.185  0.00  0.00    -0.121 NA
ATOM      4  N   UNL     1       0.213   6.197   0.275  0.00  0.00    -0.126 NA
ATOM      5  C   UNL     1       0.918   5.123  -0.007  0.00  0.00    +0.188 A 
ATOM      6  N   UNL     1       2.199   5.544  -0.288  0.00  0.00    -0.223 N 
BRANCH   5   7
ATOM      7  C   UNL     1       0.431   3.734  -0.014  0.00  0.00    +0.058 A 
ATOM      8  C   UNL     1      -0.860   3.269  -0.014  0.00  0.00    +0.019 A 
ATOM      9  C   UNL     1      -1.073   1.909  -0.027  0.00  0.00    +0.008 A 
ATOM     10  C   UNL     1      -0.004   1.071  -0.029  0.00  0.00    +0.046 A 
ATOM     11  S   UNL     1       1.368   2.214  -0.025  0.00  0.00    -0.093 S 
ENDBRANCH   5   7
BRANCH   6  12
ATOM     12  N   UNL     1       3.268   4.765  -0.627  0.00  0.00    -0.295 N 
ATOM     13  H   UNL     1       3.324   4.643  -1.627  0.00  0.00    +0.163 HD
ATOM     14  H   UNL     1       4.126   5.149  -0.261  0.00  0.00    +0.163 HD
ENDBRANCH   6  12
ENDBRANCH   1   2
BRANCH   1  16
ATOM     15  C   UNL     1       2.298   9.617   1.423  0.00  0.00    +0.029 C 
ATOM     16  C   UNL     1       2.729   9.582  -0.045  0.00  0.00    +0.137 C 
BRANCH  16  17
ATOM     17  C   UNL     1       3.694  10.708  -0.312  0.00  0.00    +0.230 C 
ATOM     18  O   UNL     1       4.887  10.489  -0.347  0.00  0.00    -0.274 OA
ATOM     19  N   UNL     1       3.232  11.959  -0.512  0.00  0.00    -0.285 N 
ATOM     20  H   UNL     1       2.277  12.122  -0.551  0.00  0.00    +0.155 HD
BRANCH  19  21
ATOM     21  C   UNL     1       4.131  13.021  -0.663  0.00  0.00    +0.034 A 
ATOM     22  C   UNL     1       3.812  14.278  -0.168  0.00  0.00    +0.025 A 
ATOM     23  C   UNL     1       4.703  15.323  -0.315  0.00  0.00    +0.022 A 
ATOM     24  C   UNL     1       5.908  15.121  -0.964  0.00  0.00    +0.041 A 
ATOM     25  C   UNL     1       6.226  13.870  -1.463  0.00  0.00    +0.022 A 
ATOM     26  C   UNL     1       5.341  12.820  -1.314  0.00  0.00    +0.025 A 
ATOM     27 CL   UNL     1       7.023  16.438  -1.152  0.00  0.00    -0.084 Cl
ENDBRANCH  19  21
ENDBRANCH  16  17
ENDBRANCH   1  16
TORSDOF 6
