REMARK  Name = ZINC14457478
REMARK  9 active torsions:
REMARK  status: ('A' for Active; 'I' for Inactive)
REMARK    1  A    between atoms: C_1  and  C_2
REMARK    2  A    between atoms: C_2  and  C_3
REMARK    3  A    between atoms: C_2  and  C_4
REMARK    4  A    between atoms: C_4  and  C_5
REMARK    5  A    between atoms: N_7  and  C_8
REMARK    6  A    between atoms: C_21  and  C_24
REMARK    7  A    between atoms: C_27  and  O_31
REMARK    8  A    between atoms: C_28  and  O_30
REMARK    9  A    between atoms: O_31  and  C_32
REMARK                            x       y       z     vdW  Elec       q    Type
REMARK                         _______ _______ _______ _____ _____    ______ ____
ROOT
ATOM      1  C   UNL     1       4.136   0.313  -2.240  0.00  0.00    +0.034 A 
ATOM      2  C   UNL     1       3.418   0.083  -3.406  0.00  0.00    +0.025 A 
ATOM      3  C   UNL     1       2.069   0.363  -3.454  0.00  0.00    +0.025 A 
ATOM      4  C   UNL     1       1.417   0.878  -2.340  0.00  0.00    +0.031 A 
ATOM      5  C   UNL     1       2.147   1.122  -1.171  0.00  0.00    -0.018 A 
ATOM      6  C   UNL     1       3.494   0.834  -1.125  0.00  0.00    +0.029 A 
ATOM      7  C   UNL     1       1.418   1.693  -0.018  0.00  0.00    +0.049 C 
ATOM      8  C   UNL     1       1.874   1.486   1.380  0.00  0.00    -0.023 C 
ATOM      9  C   UNL     1       0.811   1.475   2.175  0.00  0.00    -0.030 C 
ATOM     10  C   UNL     1      -0.464   1.643   1.347  0.00  0.00    +0.033 C 
ATOM     11  C   UNL     1      -0.021   1.096  -0.017  0.00  0.00    +0.029 C 
ATOM     12  C   UNL     1      -0.691   1.655  -1.259  0.00  0.00    +0.105 C 
ATOM     13  N   UNL     1       0.037   1.119  -2.405  0.00  0.00    -0.336 N 
ATOM     14  H   UNL     1      -0.443   0.920  -3.223  0.00  0.00    +0.147 HD
ENDROOT
BRANCH  12  15
ATOM     15  C   UNL     1      -2.135   1.224  -1.310  0.00  0.00    -0.023 A 
ATOM     16  C   UNL     1      -2.462  -0.043  -1.755  0.00  0.00    +0.009 A 
ATOM     17  C   UNL     1      -3.785  -0.442  -1.803  0.00  0.00    +0.050 A 
ATOM     18  C   UNL     1      -4.786   0.428  -1.404  0.00  0.00    +0.161 A 
ATOM     19  C   UNL     1      -4.457   1.704  -0.954  0.00  0.00    +0.159 A 
ATOM     20  C   UNL     1      -3.129   2.096  -0.904  0.00  0.00    +0.054 A 
BRANCH  19  21
ATOM     21  O   UNL     1      -5.436   2.562  -0.561  0.00  0.00    -0.503 OA
ATOM     22  H   UNL     1      -5.656   2.502   0.379  0.00  0.00    +0.292 HD
ENDBRANCH  19  21
BRANCH  18  23
ATOM     23  O   UNL     1      -6.088   0.037  -1.450  0.00  0.00    -0.491 OA
ATOM     24  C   UNL     1      -6.351  -1.285  -1.923  0.00  0.00    +0.277 C 
ENDBRANCH  18  23
ENDBRANCH  12  15
BRANCH   1  27
ATOM     25  C   UNL     1       5.995  -1.039  -2.862  0.00  0.00    +0.217 C 
ATOM     26  O   UNL     1       5.266  -1.691  -3.579  0.00  0.00    -0.275 OA
ATOM     27  N   UNL     1       5.506   0.022  -2.189  0.00  0.00    -0.285 N 
ATOM     28  H   UNL     1       6.103   0.583  -1.670  0.00  0.00    +0.155 HD
BRANCH  25  29
ATOM     29  C   UNL     1       7.448  -1.414  -2.725  0.00  0.00    +0.099 C 
BRANCH  29  31
ATOM     30  C   UNL     1       9.239  -2.951  -3.545  0.00  0.00    +0.008 C 
ATOM     31  C   UNL     1       7.741  -2.644  -3.586  0.00  0.00    -0.008 C 
ATOM     32  C   UNL     1       6.960  -3.844  -3.045  0.00  0.00    +0.008 C 
ENDBRANCH  29  31
ENDBRANCH  25  29
ENDBRANCH   1  27
TORSDOF 6
