REMARK  Name = ZINC13807058
REMARK  7 active torsions:
REMARK  status: ('A' for Active; 'I' for Inactive)
REMARK    1  A    between atoms: C_1  and  C_2
REMARK    2  A    between atoms: C_5  and  C_8
REMARK    3  A    between atoms: N_12  and  C_15
REMARK    4  A    between atoms: C_15  and  C_16
REMARK    5  A    between atoms: N_18  and  C_19
REMARK    6  A    between atoms: C_22  and  S_25
REMARK    7  A    between atoms: S_25  and  N_28
REMARK                            x       y       z     vdW  Elec       q    Type
REMARK                         _______ _______ _______ _____ _____    ______ ____
ROOT
ATOM      1  C   UNL     1       2.841   0.762  -1.440  0.00  0.00    +0.237 C 
ATOM      2  O   UNL     1       2.148   1.156  -2.354  0.00  0.00    -0.274 OA
ATOM      3  N   UNL     1       3.985   0.097  -1.700  0.00  0.00    -0.284 N 
ATOM      4  H   UNL     1       4.573  -0.160  -0.973  0.00  0.00    +0.155 HD
ENDROOT
BRANCH   3   5
ATOM      5  C   UNL     1       4.323  -0.224  -3.020  0.00  0.00    +0.034 A 
ATOM      6  C   UNL     1       4.986  -1.411  -3.299  0.00  0.00    +0.025 A 
ATOM      7  C   UNL     1       5.314  -1.727  -4.603  0.00  0.00    +0.030 A 
ATOM      8  C   UNL     1       4.992  -0.857  -5.629  0.00  0.00    +0.105 A 
ATOM      9  C   UNL     1       4.337   0.329  -5.353  0.00  0.00    +0.030 A 
ATOM     10  C   UNL     1       4.001   0.648  -4.052  0.00  0.00    +0.025 A 
BRANCH   8  11
ATOM     11  S   UNL     1       5.418  -1.261  -7.290  0.00  0.00    +0.056 S 
ATOM     12  O   UNL     1       5.539  -2.676  -7.346  0.00  0.00    -0.153 OA
ATOM     13  O   UNL     1       4.523  -0.539  -8.126  0.00  0.00    -0.153 OA
BRANCH  11  14
ATOM     14  N   UNL     1       6.929  -0.645  -7.572  0.00  0.00    -0.204 NA
ATOM     15  H   UNL     1       7.396  -0.167  -6.870  0.00  0.00    +0.144 HD
ATOM     16  H   UNL     1       7.347  -0.763  -8.440  0.00  0.00    +0.144 HD
ENDBRANCH  11  14
ENDBRANCH   8  11
ENDBRANCH   3   5
BRANCH   1  17
ATOM     17  C   UNL     1       2.425   1.015  -0.015  0.00  0.00    +0.222 C 
BRANCH  17  22
ATOM     18  C   UNL     1      -1.232   3.033   0.030  0.00  0.00    +0.078 A 
ATOM     19  C   UNL     1      -0.067   3.781   0.015  0.00  0.00    +0.098 A 
ATOM     20  C   UNL     1       1.164   3.100  -0.001  0.00  0.00    +0.255 A 
ATOM     21  O   UNL     1       2.216   3.717  -0.015  0.00  0.00    -0.268 OA
ATOM     22  N   UNL     1       1.158   1.750   0.001  0.00  0.00    -0.290 N 
ATOM     23  C   UNL     1      -0.009   1.075   0.017  0.00  0.00    +0.203 A 
ATOM     24  N   UNL     1      -1.159   1.691   0.026  0.00  0.00    -0.237 NA
BRANCH  18  29
ATOM     25  C   UNL     1      -6.358   5.655   0.096  0.00  0.00    +0.044 C 
ATOM     26  C   UNL     1      -5.016   4.969   0.078  0.00  0.00    -0.050 A 
ATOM     27  C   UNL     1      -4.949   3.587   0.079  0.00  0.00    +0.004 A 
ATOM     28  C   UNL     1      -3.724   2.953   0.063  0.00  0.00    +0.010 A 
ATOM     29  C   UNL     1      -2.551   3.708   0.047  0.00  0.00    +0.001 A 
ATOM     30  C   UNL     1      -2.625   5.101   0.052  0.00  0.00    +0.010 A 
ATOM     31  C   UNL     1      -3.857   5.723   0.063  0.00  0.00    +0.004 A 
ENDBRANCH  18  29
ENDBRANCH  17  22
ENDBRANCH   1  17
TORSDOF 6
