REMARK  Name = ZINC42440723
REMARK  3 active torsions:
REMARK  status: ('A' for Active; 'I' for Inactive)
REMARK    1  A    between atoms: C_1  and  C_2
REMARK    2  A    between atoms: C_6  and  C_14
REMARK    3  A    between atoms: N_12  and  N_13
REMARK                            x       y       z     vdW  Elec       q    Type
REMARK                         _______ _______ _______ _____ _____    ______ ____
ROOT
ATOM      1  C   UNL     1       0.067   1.473  -0.076  0.00  0.00    +0.028 C 
ATOM      2  C   UNL     1      -0.065  -0.045   0.066  0.00  0.00    +0.075 C 
ATOM      3  C   UNL     1      -1.541  -0.418   0.239  0.00  0.00    +0.023 C 
ATOM      4  C   UNL     1      -1.654  -1.918   0.520  0.00  0.00    +0.016 C 
ATOM      5  C   UNL     1      -0.916  -2.253   1.818  0.00  0.00    +0.092 C 
ATOM      6  C   UNL     1       0.567  -1.900   1.663  0.00  0.00    +0.122 C 
ATOM      7  N   UNL     1       0.681  -0.495   1.249  0.00  0.00    -0.281 N 
ATOM      8  C   UNL     1       1.452   0.365   1.943  0.00  0.00    +0.316 C 
ATOM      9  O   UNL     1       1.370   1.560   1.734  0.00  0.00    -0.251 OA
ATOM     10  N   UNL     1       2.316  -0.099   2.868  0.00  0.00    -0.237 N 
ATOM     11  H   UNL     1       2.794   0.521   3.440  0.00  0.00    +0.170 HD
ENDROOT
BRANCH   5  12
ATOM     12  C   UNL     1      -1.056  -3.724   2.111  0.00  0.00    +0.215 C 
ATOM     13  O   UNL     1      -1.685  -4.436   1.356  0.00  0.00    -0.276 OA
ATOM     14  N   UNL     1      -0.484  -4.250   3.212  0.00  0.00    -0.329 N 
ATOM     15  H   UNL     1       0.019  -3.680   3.816  0.00  0.00    +0.145 HD
ATOM     16  H   UNL     1      -0.574  -5.197   3.401  0.00  0.00    +0.145 HD
ENDBRANCH   5  12
BRANCH  10  17
ATOM     17  N   UNL     1       2.517  -1.444   3.000  0.00  0.00    -0.253 NA
ATOM     18  H   UNL     1       2.776  -1.859   2.118  0.00  0.00    +0.141 HD
ATOM     19  H   UNL     1       3.208  -1.638   3.709  0.00  0.00    +0.141 HD
ENDBRANCH  10  17
TORSDOF 2
