REMARK  Name = ZINC13567755
REMARK  7 active torsions:
REMARK  status: ('A' for Active; 'I' for Inactive)
REMARK    1  A    between atoms: C_1  and  C_2
REMARK    2  A    between atoms: C_4  and  C_34
REMARK    3  A    between atoms: C_6  and  N_8
REMARK    4  A    between atoms: N_23  and  C_26
REMARK    5  A    between atoms: C_26  and  C_27
REMARK    6  A    between atoms: C_29  and  C_32
REMARK    7  A    between atoms: C_30  and  N_31
REMARK                            x       y       z     vdW  Elec       q    Type
REMARK                         _______ _______ _______ _____ _____    ______ ____
ROOT
ATOM      1  N   UNL     1       2.029   6.810  -0.127  0.00  0.00    -0.260 N 
ATOM      2  C   UNL     1       1.175   7.181  -1.132  0.00  0.00    +0.025 C 
ATOM      3  C   UNL     1      -0.050   6.622  -1.235  0.00  0.00    +0.037 C 
ATOM      4  C   UNL     1      -0.937   7.004  -2.256  0.00  0.00    +0.162 C 
ATOM      5  O   UNL     1      -2.028   6.473  -2.328  0.00  0.00    -0.292 OA
ATOM      6  C   UNL     1      -0.561   8.056  -3.263  0.00  0.00    +0.080 C 
ATOM      7  C   UNL     1       0.436   9.026  -2.621  0.00  0.00    +0.014 C 
ATOM      8  C   UNL     1       1.638   8.224  -2.119  0.00  0.00    +0.052 C 
ATOM      9  C   UNL     1      -0.502   5.571  -0.255  0.00  0.00    +0.141 C 
ATOM     10  C   UNL     1      -0.499   4.218  -0.897  0.00  0.00    -0.001 A 
ATOM     11  C   UNL     1       0.525   3.465  -1.431  0.00  0.00    +0.007 A 
ATOM     12  C   UNL     1       0.185   2.223  -1.958  0.00  0.00    +0.000 A 
ATOM     13  C   UNL     1      -1.118   1.769  -1.945  0.00  0.00    +0.002 A 
ATOM     14  C   UNL     1      -2.153   2.523  -1.416  0.00  0.00    +0.024 A 
ATOM     15  C   UNL     1      -1.825   3.769  -0.879  0.00  0.00    +0.042 A 
ATOM     16  N   UNL     1      -2.644   4.716  -0.290  0.00  0.00    -0.258 N 
ATOM     17  C   UNL     1      -1.956   5.806   0.106  0.00  0.00    +0.241 C 
ATOM     18  O   UNL     1      -2.413   6.790   0.649  0.00  0.00    -0.273 OA
ATOM     19  C   UNL     1       0.339   5.576   0.986  0.00  0.00    +0.089 C 
ATOM     20  C   UNL     1       1.555   6.182   1.003  0.00  0.00    +0.108 C 
ENDROOT
BRANCH   1  26
ATOM     21  C   UNL     1       6.478   5.425  -1.698  0.00  0.00    +0.044 C 
ATOM     22  C   UNL     1       5.578   6.417  -1.007  0.00  0.00    -0.048 A 
ATOM     23  C   UNL     1       6.106   7.588  -0.494  0.00  0.00    +0.006 A 
ATOM     24  C   UNL     1       5.284   8.501   0.140  0.00  0.00    -0.048 A 
ATOM     25  C   UNL     1       3.932   8.246   0.263  0.00  0.00    +0.027 A 
ATOM     26  C   UNL     1       3.398   7.071  -0.251  0.00  0.00    +0.040 A 
ATOM     27  C   UNL     1       4.228   6.154  -0.883  0.00  0.00    +0.027 A 
ATOM     28  C   UNL     1       5.863   9.775   0.697  0.00  0.00    +0.044 C 
ENDBRANCH   1  26
BRANCH  20  29
ATOM     29  N   UNL     1       2.313   6.169   2.149  0.00  0.00    -0.345 N 
ATOM     30  H   UNL     1       2.024   5.649   2.915  0.00  0.00    +0.144 HD
ATOM     31  H   UNL     1       3.136   6.680   2.192  0.00  0.00    +0.144 HD
ENDBRANCH  20  29
BRANCH  19  32
ATOM     32  C   UNL     1      -0.146   4.934   2.170  0.00  0.00    +0.100 C 
ATOM     33  N   UNL     1      -0.531   4.424   3.110  0.00  0.00    -0.191 NA
ENDBRANCH  19  32
BRANCH  16  34
ATOM     34  C   UNL     1      -4.090   4.554  -0.117  0.00  0.00    +0.202 C 
BRANCH  34  35
ATOM     35  C   UNL     1      -4.360   3.914   1.181  0.00  0.00    -0.086 C 
ATOM     36  C   UNL     1      -4.575   3.404   2.216  0.00  0.00    +0.005 C 
ENDBRANCH  34  35
ENDBRANCH  16  34
TORSDOF 5
