REMARK  Name = ZINC56157229
REMARK  8 active torsions:
REMARK  status: ('A' for Active; 'I' for Inactive)
REMARK    1  A    between atoms: C_1  and  C_2
REMARK    2  A    between atoms: C_5  and  N_9
REMARK    3  A    between atoms: C_6  and  C_8
REMARK    4  A    between atoms: C_13  and  C_15
REMARK    5  A    between atoms: C_15  and  C_17
REMARK    6  A    between atoms: C_15  and  N_18
REMARK    7  A    between atoms: N_18  and  C_19
REMARK    8  A    between atoms: C_23  and  N_25
REMARK                            x       y       z     vdW  Elec       q    Type
REMARK                         _______ _______ _______ _____ _____    ______ ____
ROOT
ATOM      1  C   UNL     1      -0.339  -8.345  -2.356  0.00  0.00    +0.154 C 
ATOM      2  C   UNL     1       0.918  -8.922  -1.702  0.00  0.00    +0.038 C 
ENDROOT
BRANCH   1   7
ATOM      3  N   UNL     1       0.003  -4.156  -0.022  0.00  0.00    -0.269 N 
ATOM      4  C   UNL     1      -0.094  -4.825  -1.188  0.00  0.00    +0.310 C 
ATOM      5  O   UNL     1      -0.117  -4.215  -2.239  0.00  0.00    -0.252 OA
ATOM      6  N   UNL     1      -0.164  -6.171  -1.189  0.00  0.00    -0.238 N 
ATOM      7  C   UNL     1      -0.261  -6.840  -2.355  0.00  0.00    +0.240 C 
ATOM      8  O   UNL     1      -0.284  -6.231  -3.403  0.00  0.00    -0.273 OA
ATOM      9  H   UNL     1       0.085  -4.645   0.812  0.00  0.00    +0.156 HD
ATOM     10  H   UNL     1      -0.145  -6.659  -0.350  0.00  0.00    +0.159 HD
BRANCH   3  15
ATOM     11  C   UNL     1      -0.076   1.516   0.008  0.00  0.00    +0.044 C 
ATOM     12  C   UNL     1      -0.055   0.009  -0.000  0.00  0.00    -0.050 A 
ATOM     13  C   UNL     1       0.544  -0.667  -1.047  0.00  0.00    +0.005 A 
ATOM     14  C   UNL     1       0.565  -2.048  -1.057  0.00  0.00    +0.024 A 
ATOM     15  C   UNL     1      -0.016  -2.757  -0.014  0.00  0.00    +0.038 A 
ATOM     16  C   UNL     1      -0.617  -2.075   1.035  0.00  0.00    -0.029 A 
ATOM     17  C   UNL     1      -0.630  -0.694   1.042  0.00  0.00    +0.008 A 
ATOM     18  C   UNL     1      -1.249  -2.841   2.169  0.00  0.00    +0.045 C 
ENDBRANCH   3  15
ENDBRANCH   1   7
BRANCH   1  19
ATOM     19  N   UNL     1      -0.437  -8.828  -3.735  0.00  0.00    -0.333 N 
ATOM     20  H   UNL     1      -0.091  -8.289  -4.464  0.00  0.00    +0.147 HD
BRANCH  19  21
ATOM     21  C   UNL     1      -1.028 -10.065  -4.002  0.00  0.00    +0.029 A 
ATOM     22  C   UNL     1      -1.529 -10.836  -2.959  0.00  0.00    +0.023 A 
ATOM     23  C   UNL     1      -2.115 -12.059  -3.222  0.00  0.00    +0.004 A 
ATOM     24  C   UNL     1      -2.204 -12.521  -4.522  0.00  0.00    +0.024 A 
ATOM     25  C   UNL     1      -1.705 -11.756  -5.568  0.00  0.00    +0.040 A 
ATOM     26  C   UNL     1      -1.122 -10.524  -5.308  0.00  0.00    +0.046 A 
BRANCH  25  27
ATOM     27  N   UNL     1      -1.795 -12.224  -6.884  0.00  0.00    -0.254 N 
ATOM     28  C   UNL     1      -2.499 -13.444  -7.307  0.00  0.00    +0.134 C 
ATOM     29  C   UNL     1      -2.285 -13.482  -8.833  0.00  0.00    +0.125 C 
ATOM     30  N   UNL     1      -1.483 -12.280  -9.107  0.00  0.00    -0.297 N 
ATOM     31  C   UNL     1      -1.259 -11.630  -7.958  0.00  0.00    +0.307 C 
ATOM     32  O   UNL     1      -0.623 -10.596  -7.895  0.00  0.00    -0.252 OA
ATOM     33  H   UNL     1      -1.170 -12.001  -9.982  0.00  0.00    +0.150 HD
ENDBRANCH  25  27
ENDBRANCH  19  21
ENDBRANCH   1  19
TORSDOF 5
