REMARK  Name = ZINC06563480
REMARK  9 active torsions:
REMARK  status: ('A' for Active; 'I' for Inactive)
REMARK    1  A    between atoms: C_1  and  C_2
REMARK    2  A    between atoms: C_2  and  C_3
REMARK    3  A    between atoms: C_2  and  C_4
REMARK    4  A    between atoms: C_2  and  C_5
REMARK    5  A    between atoms: C_8  and  C_11
REMARK    6  A    between atoms: N_13  and  C_14
REMARK    7  A    between atoms: C_14  and  N_16
REMARK    8  A    between atoms: N_16  and  N_17
REMARK    9  A    between atoms: C_18  and  C_20
REMARK                            x       y       z     vdW  Elec       q    Type
REMARK                         _______ _______ _______ _____ _____    ______ ____
ROOT
ATOM      1  C   UNL     1       3.524   1.907  -0.021  0.00  0.00    +0.153 C 
ATOM      2  S   UNL     1       5.018   1.071  -0.040  0.00  0.00    -0.017 S 
ENDROOT
BRANCH   1   5
ATOM      3  C   UNL     1       4.664   3.944  -0.021  0.00  0.00    +0.250 C 
ATOM      4  O   UNL     1       5.724   3.351  -0.035  0.00  0.00    -0.270 OA
ATOM      5  N   UNL     1       3.506   3.255  -0.014  0.00  0.00    -0.263 N 
ATOM      6  H   UNL     1       2.659   3.728  -0.003  0.00  0.00    +0.157 HD
BRANCH   3  10
ATOM      7  C   UNL     1       4.606   8.191   0.002  0.00  0.00    -0.042 A 
ATOM      8  C   UNL     1       5.815   7.519  -0.013  0.00  0.00    +0.005 A 
ATOM      9  C   UNL     1       5.841   6.139  -0.021  0.00  0.00    +0.013 A 
ATOM     10  C   UNL     1       4.644   5.422  -0.013  0.00  0.00    +0.037 A 
ATOM     11  C   UNL     1       3.427   6.106  -0.004  0.00  0.00    +0.013 A 
ATOM     12  C   UNL     1       3.416   7.486   0.010  0.00  0.00    +0.005 A 
BRANCH   7  14
ATOM     13  C   UNL     1       5.288  10.225  -1.242  0.00  0.00    +0.015 C 
ATOM     14  C   UNL     1       4.586   9.698   0.011  0.00  0.00    -0.013 C 
ATOM     15  C   UNL     1       3.136  10.188   0.027  0.00  0.00    +0.015 C 
ATOM     16  C   UNL     1       5.312  10.210   1.256  0.00  0.00    +0.015 C 
ENDBRANCH   7  14
ENDBRANCH   3  10
ENDBRANCH   1   5
BRANCH   1  17
ATOM     17  N   UNL     1       2.366   1.217  -0.014  0.00  0.00    -0.245 N 
ATOM     18  H   UNL     1       2.379   0.247  -0.019  0.00  0.00    +0.172 HD
BRANCH  17  19
ATOM     19  N   UNL     1       1.143   1.901   0.001  0.00  0.00    -0.231 N 
ATOM     20  C   UNL     1      -0.014   1.211   0.009  0.00  0.00    +0.260 C 
ATOM     21  O   UNL     1       0.002  -0.004   0.002  0.00  0.00    -0.269 OA
ATOM     22  H   UNL     1       1.130   2.871   0.007  0.00  0.00    +0.173 HD
BRANCH  20  23
ATOM     23  C   UNL     1      -1.304   1.933   0.019  0.00  0.00    +0.038 A 
ATOM     24  C   UNL     1      -1.326   3.329   0.032  0.00  0.00    +0.014 A 
ATOM     25  C   UNL     1      -2.533   3.996   0.035  0.00  0.00    +0.021 A 
ATOM     26  C   UNL     1      -3.721   3.285   0.037  0.00  0.00    +0.041 A 
ATOM     27  C   UNL     1      -3.706   1.900   0.030  0.00  0.00    +0.021 A 
ATOM     28  C   UNL     1      -2.505   1.221   0.021  0.00  0.00    +0.014 A 
ATOM     29 CL   UNL     1      -5.236   4.132   0.048  0.00  0.00    -0.084 Cl
ENDBRANCH  20  23
ENDBRANCH  17  19
ENDBRANCH   1  17
TORSDOF 6
