REMARK  Name = ZINC22621259
REMARK  5 active torsions:
REMARK  status: ('A' for Active; 'I' for Inactive)
REMARK    1  A    between atoms: C_1  and  C_2
REMARK    2  A    between atoms: C_4  and  C_24
REMARK    3  A    between atoms: C_5  and  N_9
REMARK    4  A    between atoms: C_10  and  C_12
REMARK    5  A    between atoms: C_12  and  N_13
REMARK                            x       y       z     vdW  Elec       q    Type
REMARK                         _______ _______ _______ _____ _____    ______ ____
ROOT
ATOM      1  N   UNL     1      -2.818   1.560   0.054  0.00  0.00    -0.283 N 
ATOM      2  C   UNL     1      -4.152   1.375   0.115  0.00  0.00    +0.235 C 
ATOM      3  O   UNL     1      -4.733   1.498   1.173  0.00  0.00    -0.274 OA
ATOM      4  H   UNL     1      -2.303   1.531  -0.917  0.00  0.00    +0.155 HD
ENDROOT
BRANCH   1   9
ATOM      5  C   UNL     1       0.126   2.493   4.815  0.00  0.00    +0.044 C 
ATOM      6  C   UNL     1      -0.653   2.244   3.549  0.00  0.00    -0.049 A 
ATOM      7  C   UNL     1      -1.114   3.313   2.801  0.00  0.00    +0.008 A 
ATOM      8  C   UNL     1      -1.828   3.089   1.641  0.00  0.00    -0.028 A 
ATOM      9  C   UNL     1      -2.089   1.790   1.227  0.00  0.00    +0.055 A 
ATOM     10  C   UNL     1      -1.620   0.718   1.976  0.00  0.00    +0.063 A 
ATOM     11  C   UNL     1      -0.906   0.949   3.137  0.00  0.00    +0.025 A 
ATOM     12 CL   UNL     1      -1.936  -0.909   1.459  0.00  0.00    -0.082 Cl
ATOM     13  C   UNL     1      -2.329   4.255   0.827  0.00  0.00    +0.046 C 
ENDBRANCH   1   9
BRANCH   2  14
ATOM     14  C   UNL     1      -4.920   1.016  -1.130  0.00  0.00    +0.214 C 
BRANCH  14  15
ATOM     15  N   UNL     1      -6.341   0.871  -0.803  0.00  0.00    -0.215 N 
ATOM     16  C   UNL     1      -7.235   1.879  -0.847  0.00  0.00    +0.248 C 
ATOM     17  O   UNL     1      -7.024   3.033  -1.153  0.00  0.00    -0.273 OA
ATOM     18  C   UNL     1      -8.559   1.269  -0.433  0.00  0.00    +0.122 C 
ATOM     19  C   UNL     1      -9.063   1.930   0.848  0.00  0.00    +0.047 C 
ATOM     20  C   UNL     1      -9.995   3.126   0.506  0.00  0.00    +0.072 C 
ATOM     21  S   UNL     1     -10.909   2.403  -0.927  0.00  0.00    -0.158 S 
ATOM     22  C   UNL     1      -9.552   1.361  -1.607  0.00  0.00    +0.104 C 
ATOM     23  N   UNL     1      -8.228  -0.142  -0.180  0.00  0.00    -0.284 N 
ATOM     24  C   UNL     1      -6.912  -0.279  -0.428  0.00  0.00    +0.310 C 
ATOM     25  O   UNL     1      -6.310  -1.329  -0.320  0.00  0.00    -0.252 OA
ATOM     26  H   UNL     1      -9.013  -0.841   0.146  0.00  0.00    +0.151 HD
ENDBRANCH  14  15
ENDBRANCH   2  14
TORSDOF 3
