REMARK  Name = ZINC58990091
REMARK  12 active torsions:
REMARK  status: ('A' for Active; 'I' for Inactive)
REMARK    1  A    between atoms: C_1  and  O_2
REMARK    2  A    between atoms: O_2  and  C_3
REMARK    3  A    between atoms: C_7  and  C_10
REMARK    4  A    between atoms: C_8  and  O_9
REMARK    5  A    between atoms: N_11  and  N_12
REMARK    6  A    between atoms: C_13  and  C_15
REMARK    7  A    between atoms: C_15  and  C_16
REMARK    8  A    between atoms: C_16  and  C_17
REMARK    9  A    between atoms: C_17  and  S_18
REMARK   10  A    between atoms: S_18  and  C_19
REMARK   11  A    between atoms: C_22  and  C_25
REMARK   12  A    between atoms: N_23  and  N_24
REMARK                            x       y       z     vdW  Elec       q    Type
REMARK                         _______ _______ _______ _____ _____    ______ ____
ROOT
ATOM      1  C   UNL     1      -0.175  -9.081   0.698  0.00  0.00    +0.020 C 
ENDROOT
BRANCH   1   2
ATOM      2  C   UNL     1       0.396  -8.468  -0.582  0.00  0.00    +0.098 C 
BRANCH   2   4
ATOM      3  N   UNL     1       0.887  -6.211  -1.466  0.00  0.00    -0.207 N 
ATOM      4  C   UNL     1       0.421  -6.967  -0.453  0.00  0.00    +0.232 C 
ATOM      5  O   UNL     1       0.022  -6.439   0.564  0.00  0.00    -0.274 OA
ATOM      6  H   UNL     1       1.206  -6.633  -2.279  0.00  0.00    +0.177 HD
BRANCH   3   8
ATOM      7  C   UNL     1       1.359  -4.087  -2.322  0.00  0.00    +0.142 C 
ATOM      8  N   UNL     1       0.910  -4.815  -1.345  0.00  0.00    -0.188 NA
BRANCH   7  13
ATOM      9  C   UNL     1       0.951  -0.621  -0.914  0.00  0.00    +0.162 A 
ATOM     10  C   UNL     1       1.432   0.147  -1.963  0.00  0.00    +0.049 A 
ATOM     11  C   UNL     1       1.888  -0.458  -3.121  0.00  0.00    +0.004 A 
ATOM     12  C   UNL     1       1.867  -1.831  -3.244  0.00  0.00    +0.013 A 
ATOM     13  C   UNL     1       1.384  -2.619  -2.195  0.00  0.00    +0.040 A 
ATOM     14  C   UNL     1       0.929  -2.006  -1.021  0.00  0.00    +0.167 A 
BRANCH   9  16
ATOM     15  C   UNL     1       0.556   1.408   0.262  0.00  0.00    +0.277 C 
ATOM     16  O   UNL     1       0.504  -0.019   0.221  0.00  0.00    -0.491 OA
ENDBRANCH   9  16
BRANCH  14  17
ATOM     17  O   UNL     1       0.462  -2.763   0.007  0.00  0.00    -0.503 OA
ATOM     18  H   UNL     1      -0.487  -2.943  -0.036  0.00  0.00    +0.292 HD
ENDBRANCH  14  17
ENDBRANCH   7  13
ENDBRANCH   3   8
ENDBRANCH   2   4
ENDBRANCH   1   2
BRANCH   1  19
ATOM     19  C   UNL     1      -0.200 -10.605   0.567  0.00  0.00    +0.078 C 
BRANCH  19  20
ATOM     20  S   UNL     1      -0.877 -11.332   2.085  0.00  0.00    -0.084 S 
BRANCH  20  21
ATOM     21  C   UNL     1      -0.841 -13.067   1.780  0.00  0.00    +0.209 A 
ATOM     22  N   UNL     1      -0.407 -13.658   0.688  0.00  0.00    -0.121 NA
ATOM     23  N   UNL     1      -0.524 -14.933   0.801  0.00  0.00    -0.127 NA
ATOM     24  C   UNL     1      -1.039 -15.235   1.970  0.00  0.00    +0.183 A 
ATOM     25  N   UNL     1      -1.252 -14.049   2.635  0.00  0.00    -0.224 N 
BRANCH  24  26
ATOM     26  C   UNL     1      -1.330 -16.592   2.478  0.00  0.00    +0.035 A 
ATOM     27  C   UNL     1      -2.566 -16.871   3.064  0.00  0.00    +0.013 A 
ATOM     28  C   UNL     1      -2.831 -18.140   3.536  0.00  0.00    +0.001 A 
ATOM     29  C   UNL     1      -1.875 -19.135   3.430  0.00  0.00    +0.001 A 
ATOM     30  C   UNL     1      -0.649 -18.866   2.850  0.00  0.00    +0.016 A 
ATOM     31  C   UNL     1      -0.372 -17.602   2.369  0.00  0.00    +0.029 A 
ATOM     32 BR   UNL     1       1.303 -17.237   1.570  0.00  0.00    -0.050 Br
ENDBRANCH  24  26
BRANCH  25  33
ATOM     33  N   UNL     1      -1.771 -13.888   3.889  0.00  0.00    -0.295 N 
ATOM     34  H   UNL     1      -2.779 -13.884   3.865  0.00  0.00    +0.163 HD
ATOM     35  H   UNL     1      -1.426 -14.598   4.516  0.00  0.00    +0.163 HD
ENDBRANCH  25  33
ENDBRANCH  20  21
ENDBRANCH  19  20
ENDBRANCH   1  19
TORSDOF 11
