REMARK  Name = ZINC25049045
REMARK  8 active torsions:
REMARK  status: ('A' for Active; 'I' for Inactive)
REMARK    1  A    between atoms: C_1  and  C_2
REMARK    2  A    between atoms: C_5  and  C_8
REMARK    3  A    between atoms: C_8  and  C_10
REMARK    4  A    between atoms: C_8  and  N_15
REMARK    5  A    between atoms: N_15  and  C_16
REMARK    6  A    between atoms: C_16  and  C_18
REMARK    7  A    between atoms: C_16  and  C_19
REMARK    8  A    between atoms: N_21  and  C_22
REMARK                            x       y       z     vdW  Elec       q    Type
REMARK                         _______ _______ _______ _____ _____    ______ ____
ROOT
ATOM      1  C   UNL     1       1.471  -6.101   0.717  0.00  0.00    +0.138 C 
ATOM      2  C   UNL     1       0.469  -7.154   1.196  0.00  0.00    +0.034 C 
ENDROOT
BRANCH   1   3
ATOM      3  C   UNL     1       2.792  -6.312   1.411  0.00  0.00    +0.234 C 
ATOM      4  O   UNL     1       3.262  -5.433   2.101  0.00  0.00    -0.274 OA
ATOM      5  N   UNL     1       3.451  -7.479   1.265  0.00  0.00    -0.284 N 
ATOM      6  H   UNL     1       3.045  -8.206   0.768  0.00  0.00    +0.155 HD
BRANCH   5   7
ATOM      7  C   UNL     1       4.722  -7.641   1.830  0.00  0.00    +0.036 A 
ATOM      8  C   UNL     1       5.683  -8.399   1.171  0.00  0.00    +0.025 A 
ATOM      9  C   UNL     1       6.938  -8.562   1.722  0.00  0.00    +0.029 A 
ATOM     10  C   UNL     1       7.242  -7.968   2.938  0.00  0.00    +0.067 A 
ATOM     11  C   UNL     1       6.279  -7.206   3.603  0.00  0.00    +0.069 A 
ATOM     12  C   UNL     1       5.022  -7.039   3.043  0.00  0.00    +0.051 A 
ATOM     13  N   UNL     1       6.870  -6.746   4.778  0.00  0.00    -0.306 N 
ATOM     14  H   UNL     1       6.443  -6.189   5.447  0.00  0.00    +0.170 HD
ATOM     15  C   UNL     1       8.134  -7.207   4.826  0.00  0.00    +0.325 A 
ATOM     16  O   UNL     1       8.925  -6.988   5.724  0.00  0.00    -0.247 OA
ATOM     17  N   UNL     1       8.389  -7.947   3.731  0.00  0.00    -0.306 N 
ATOM     18  H   UNL     1       9.228  -8.391   3.529  0.00  0.00    +0.170 HD
ENDBRANCH   5   7
ENDBRANCH   1   3
BRANCH   1  19
ATOM     19  N   UNL     1       0.960  -4.760   1.034  0.00  0.00    -0.295 NA
ATOM     20  H   UNL     1       1.718  -4.110   1.180  0.00  0.00    +0.124 HD
BRANCH  19  21
ATOM     21  C   UNL     1       0.051  -4.282  -0.017  0.00  0.00    +0.122 C 
BRANCH  21  26
ATOM     22  C   UNL     1      -0.026   1.496  -0.013  0.00  0.00    +0.044 C 
ATOM     23  C   UNL     1      -0.006  -0.011  -0.014  0.00  0.00    -0.050 A 
ATOM     24  C   UNL     1      -0.010  -0.701  -1.212  0.00  0.00    +0.004 A 
ATOM     25  C   UNL     1       0.009  -2.083  -1.212  0.00  0.00    +0.006 A 
ATOM     26  C   UNL     1       0.032  -2.775  -0.016  0.00  0.00    -0.026 A 
ATOM     27  C   UNL     1       0.037  -2.084   1.182  0.00  0.00    +0.006 A 
ATOM     28  C   UNL     1       0.022  -0.702   1.182  0.00  0.00    +0.004 A 
ENDBRANCH  21  26
BRANCH  21  29
ATOM     29  C   UNL     1      -1.338  -4.802   0.246  0.00  0.00    +0.011 A 
ATOM     30  C   UNL     1      -2.253  -5.276  -0.634  0.00  0.00    +0.013 A 
ATOM     31  C   UNL     1      -3.479  -5.706  -0.162  0.00  0.00    +0.008 A 
ATOM     32  C   UNL     1      -3.730  -5.641   1.169  0.00  0.00    +0.045 A 
ATOM     33  S   UNL     1      -2.204  -4.963   1.800  0.00  0.00    -0.100 S 
ENDBRANCH  21  29
ENDBRANCH  19  21
ENDBRANCH   1  19
TORSDOF 6
