REMARK  Name = ZINC43760821
REMARK  9 active torsions:
REMARK  status: ('A' for Active; 'I' for Inactive)
REMARK    1  A    between atoms: C_1  and  C_2
REMARK    2  A    between atoms: C_7  and  C_8
REMARK    3  A    between atoms: C_7  and  C_9
REMARK    4  A    between atoms: C_11  and  O_13
REMARK    5  A    between atoms: O_13  and  C_14
REMARK    6  A    between atoms: C_16  and  O_30
REMARK    7  A    between atoms: C_18  and  O_29
REMARK    8  A    between atoms: C_20  and  O_28
REMARK    9  A    between atoms: C_22  and  C_25
REMARK                            x       y       z     vdW  Elec       q    Type
REMARK                         _______ _______ _______ _____ _____    ______ ____
ROOT
ATOM      1  C   UNL     1       0.602  -0.642  -3.590  0.00  0.00    +0.283 C 
ATOM      2  C   UNL     1      -0.387  -0.815  -4.746  0.00  0.00    +0.201 C 
ATOM      3  C   UNL     1      -1.395   0.338  -4.722  0.00  0.00    +0.179 C 
ATOM      4  C   UNL     1      -0.637   1.667  -4.799  0.00  0.00    +0.185 C 
ATOM      5  C   UNL     1       0.360   1.744  -3.640  0.00  0.00    +0.265 C 
ATOM      6  O   UNL     1       1.250   0.627  -3.704  0.00  0.00    -0.331 OA
ENDROOT
BRANCH   5   7
ATOM      7  C   UNL     1       1.151   3.022  -3.743  0.00  0.00    +0.387 C 
ATOM      8  O   UNL     1       0.590   4.098  -3.618  0.00  0.00    -0.243 OA
ATOM      9  O   UNL     1       2.352   2.982  -3.949  0.00  0.00    -0.243 OA
ENDBRANCH   5   7
BRANCH   4  10
ATOM     10  O   UNL     1      -1.564   2.751  -4.706  0.00  0.00    -0.386 OA
ATOM     11  H   UNL     1      -1.152   3.625  -4.747  0.00  0.00    +0.210 HD
ENDBRANCH   4  10
BRANCH   3  12
ATOM     12  O   UNL     1      -2.278   0.224  -5.840  0.00  0.00    -0.386 OA
ATOM     13  H   UNL     1      -2.945   0.923  -5.888  0.00  0.00    +0.210 HD
ENDBRANCH   3  12
BRANCH   2  14
ATOM     14  O   UNL     1      -1.077  -2.058  -4.603  0.00  0.00    -0.384 OA
ATOM     15  H   UNL     1      -1.720  -2.233  -5.303  0.00  0.00    +0.210 HD
ENDBRANCH   2  14
BRANCH   1  16
ATOM     16  O   UNL     1      -0.102  -0.707  -2.348  0.00  0.00    -0.345 OA
BRANCH  16  26
ATOM     17  C   UNL     1      -0.019   1.526   0.010  0.00  0.00    +0.014 C 
ATOM     18  C   UNL     1       0.002  -0.004   0.002  0.00  0.00    -0.000 C 
ATOM     19  C   UNL     1      -1.389  -0.705   0.062  0.00  0.00    +0.010 C 
ATOM     20  C   UNL     1      -1.084  -2.139   0.552  0.00  0.00    +0.005 C 
ATOM     21  C   UNL     1       0.463  -2.169   0.743  0.00  0.00    -0.002 C 
ATOM     22  C   UNL     1       0.727  -0.695   1.211  0.00  0.00    -0.024 C 
ATOM     23  C   UNL     1       2.220  -0.363   1.250  0.00  0.00    +0.012 C 
ATOM     24  C   UNL     1       0.042  -0.385   2.543  0.00  0.00    +0.012 C 
ATOM     25  C   UNL     1       1.035  -2.139  -0.708  0.00  0.00    +0.036 C 
ATOM     26  C   UNL     1       0.744  -0.669  -1.197  0.00  0.00    +0.128 C 
ENDBRANCH  16  26
ENDBRANCH   1  16
TORSDOF 6
