REMARK  Name = ZINC03302136
REMARK  14 active torsions:
REMARK  status: ('A' for Active; 'I' for Inactive)
REMARK    1  A    between atoms: C_1  and  C_2
REMARK    2  A    between atoms: C_4  and  C_35
REMARK    3  A    between atoms: C_5  and  C_34
REMARK    4  A    between atoms: C_6  and  S_9
REMARK    5  A    between atoms: C_7  and  C_8
REMARK    6  A    between atoms: S_9  and  N_12
REMARK    7  A    between atoms: N_12  and  C_13
REMARK    8  A    between atoms: C_13  and  C_15
REMARK    9  A    between atoms: C_13  and  C_16
REMARK   10  A    between atoms: C_16  and  O_18
REMARK   11  A    between atoms: O_18  and  C_19
REMARK   12  A    between atoms: C_19  and  C_20
REMARK   13  A    between atoms: N_22  and  C_23
REMARK   14  A    between atoms: C_24  and  C_31
REMARK                            x       y       z     vdW  Elec       q    Type
REMARK                         _______ _______ _______ _____ _____    ______ ____
ROOT
ATOM      1  C   UNL     1       1.445   1.365   0.311  0.00  0.00    +0.326 C 
ATOM      2  O   UNL     1       2.553   1.699   0.658  0.00  0.00    -0.249 OA
ENDROOT
BRANCH   1   3
ATOM      3  C   UNL     1       1.094  -0.097   0.213  0.00  0.00    +0.182 C 
ATOM      4  C   UNL     1       0.684  -0.428  -1.223  0.00  0.00    +0.037 C 
BRANCH   3   5
ATOM      5  N   UNL     1       2.257  -0.905   0.588  0.00  0.00    -0.176 NA
ATOM      6  H   UNL     1       3.149  -0.618   0.334  0.00  0.00    +0.149 HD
BRANCH   5   7
ATOM      7  S   UNL     1       2.051  -2.307   1.445  0.00  0.00    +0.060 S 
ATOM      8  O   UNL     1       3.347  -2.853   1.648  0.00  0.00    -0.153 OA
ATOM      9  O   UNL     1       1.177  -1.999   2.522  0.00  0.00    -0.153 OA
BRANCH   7  15
ATOM     10  C   UNL     1      -2.318  -4.763  -0.036  0.00  0.00    +0.044 C 
ATOM     11  C   UNL     1      -0.843  -4.531  -0.235  0.00  0.00    -0.045 A 
ATOM     12  C   UNL     1      -0.167  -5.201  -1.237  0.00  0.00    +0.007 A 
ATOM     13  C   UNL     1       1.187  -4.987  -1.421  0.00  0.00    -0.045 A 
ATOM     14  C   UNL     1       1.864  -4.103  -0.602  0.00  0.00    -0.021 A 
ATOM     15  C   UNL     1       1.188  -3.433   0.401  0.00  0.00    +0.112 A 
ATOM     16  C   UNL     1      -0.165  -3.651   0.587  0.00  0.00    -0.021 A 
ATOM     17  C   UNL     1      -0.900  -2.925   1.684  0.00  0.00    +0.046 C 
ATOM     18  C   UNL     1       3.339  -3.871  -0.801  0.00  0.00    +0.046 C 
ATOM     19  C   UNL     1       1.924  -5.719  -2.513  0.00  0.00    +0.044 C 
ENDBRANCH   7  15
ENDBRANCH   5   7
ENDBRANCH   3   5
ENDBRANCH   1   3
BRANCH   1  20
ATOM     20  O   UNL     1       0.528   2.297   0.007  0.00  0.00    -0.454 OA
BRANCH  20  21
ATOM     21  C   UNL     1       0.936   3.686   0.124  0.00  0.00    +0.328 C 
BRANCH  21  22
ATOM     22  C   UNL     1      -0.215   4.581  -0.254  0.00  0.00    +0.255 C 
ATOM     23  O   UNL     1      -1.276   4.097  -0.589  0.00  0.00    -0.272 OA
ATOM     24  N   UNL     1      -0.067   5.920  -0.220  0.00  0.00    -0.277 N 
ATOM     25  H   UNL     1       0.781   6.308   0.048  0.00  0.00    +0.155 HD
BRANCH  24  26
ATOM     26  C   UNL     1      -1.127   6.744  -0.569  0.00  0.00    +0.084 A 
ATOM     27  C   UNL     1      -1.170   8.128  -0.591  0.00  0.00    +0.068 A 
ATOM     28  C   UNL     1      -2.422   8.760  -1.004  0.00  0.00    -0.023 A 
ATOM     29  C   UNL     1      -3.416   7.909  -1.315  0.00  0.00    -0.004 A 
ATOM     30  S   UNL     1      -2.719   6.293  -1.074  0.00  0.00    -0.077 S 
ATOM     31  C   UNL     1      -4.670   8.632  -1.727  0.00  0.00    +0.043 C 
ATOM     32  C   UNL     1      -4.202  10.068  -2.052  0.00  0.00    +0.010 C 
ATOM     33  C   UNL     1      -2.935  10.190  -1.182  0.00  0.00    +0.037 C 
BRANCH  27  34
ATOM     34  C   UNL     1      -0.001   8.930  -0.216  0.00  0.00    +0.244 C 
ATOM     35  O   UNL     1       0.809   9.258  -1.064  0.00  0.00    -0.270 OA
ATOM     36  N   UNL     1       0.176   9.305   1.066  0.00  0.00    -0.325 N 
ATOM     37  H   UNL     1      -0.469   9.044   1.742  0.00  0.00    +0.145 HD
ATOM     38  H   UNL     1       0.950   9.836   1.314  0.00  0.00    +0.145 HD
ENDBRANCH  27  34
ENDBRANCH  24  26
ENDBRANCH  21  22
ENDBRANCH  20  21
ENDBRANCH   1  20
TORSDOF 9
