REMARK  Name = ZINC12139955
REMARK  6 active torsions:
REMARK  status: ('A' for Active; 'I' for Inactive)
REMARK    1  A    between atoms: C_1  and  N_2
REMARK    2  A    between atoms: C_6  and  C_23
REMARK    3  A    between atoms: C_8  and  C_16
REMARK    4  A    between atoms: C_10  and  C_11
REMARK    5  A    between atoms: C_10  and  O_15
REMARK    6  A    between atoms: C_16  and  C_18
REMARK                            x       y       z     vdW  Elec       q    Type
REMARK                         _______ _______ _______ _____ _____    ______ ____
ROOT
ATOM      1  C   UNL     1       0.354   4.084   1.891  0.00  0.00    +0.137 C 
ATOM      2  N   UNL     1      -0.756   3.352   1.276  0.00  0.00    -0.253 N 
ATOM      3  C   UNL     1      -1.776   4.035   0.731  0.00  0.00    +0.305 C 
ATOM      4  O   UNL     1      -1.742   5.250   0.754  0.00  0.00    -0.253 OA
ATOM      5  N   UNL     1      -2.829   3.431   0.162  0.00  0.00    -0.291 N 
ATOM      6  C   UNL     1      -2.924   1.972   0.092  0.00  0.00    +0.121 C 
ATOM      7  C   UNL     1      -2.172   1.361   1.279  0.00  0.00    +0.145 C 
ATOM      8  C   UNL     1      -0.733   1.888   1.268  0.00  0.00    +0.245 C 
ATOM      9  H   UNL     1      -3.543   3.972  -0.210  0.00  0.00    +0.151 HD
ENDROOT
BRANCH   6  10
ATOM     10  C   UNL     1      -4.372   1.558   0.145  0.00  0.00    -0.008 A 
ATOM     11  C   UNL     1      -5.321   2.427   0.649  0.00  0.00    +0.007 A 
ATOM     12  C   UNL     1      -6.650   2.048   0.695  0.00  0.00    +0.000 A 
ATOM     13  C   UNL     1      -7.029   0.797   0.245  0.00  0.00    +0.001 A 
ATOM     14  C   UNL     1      -6.080  -0.075  -0.254  0.00  0.00    +0.020 A 
ATOM     15  C   UNL     1      -4.750   0.305  -0.304  0.00  0.00    +0.046 A 
ATOM     16 CL   UNL     1      -3.557  -0.789  -0.931  0.00  0.00    -0.083 Cl
ENDBRANCH   6  10
BRANCH   8  17
ATOM     17  C   UNL     1      -0.017   1.395   0.010  0.00  0.00    +0.436 C 
ATOM     18  F   UNL     1       0.002  -0.004   0.002  0.00  0.00    -0.166 F 
ATOM     19  F   UNL     1       1.296   1.879  -0.000  0.00  0.00    -0.166 F 
ATOM     20  F   UNL     1      -0.694   1.858  -1.124  0.00  0.00    -0.166 F 
ENDBRANCH   8  17
BRANCH   8  21
ATOM     21  O   UNL     1      -0.043   1.415   2.427  0.00  0.00    -0.364 OA
ATOM     22  H   UNL     1       0.875   1.713   2.486  0.00  0.00    +0.212 HD
ENDBRANCH   8  21
BRANCH   7  23
ATOM     23  C   UNL     1      -2.848   1.760   2.565  0.00  0.00    +0.180 C 
ATOM     24  O   UNL     1      -2.523   2.786   3.129  0.00  0.00    -0.291 OA
BRANCH  23  25
ATOM     25  C   UNL     1      -3.859   0.942   3.115  0.00  0.00    +0.055 A 
ATOM     26  C   UNL     1      -4.600   1.126   4.279  0.00  0.00    +0.019 A 
ATOM     27  C   UNL     1      -5.530   0.167   4.582  0.00  0.00    +0.008 A 
ATOM     28  C   UNL     1      -5.683  -0.899   3.749  0.00  0.00    +0.046 A 
ATOM     29  S   UNL     1      -4.526  -0.592   2.495  0.00  0.00    -0.094 S 
ENDBRANCH  23  25
ENDBRANCH   7  23
TORSDOF 5
