REMARK  Name = ZINC12575054
REMARK  9 active torsions:
REMARK  status: ('A' for Active; 'I' for Inactive)
REMARK    1  A    between atoms: C_1  and  C_2
REMARK    2  A    between atoms: C_7  and  C_8
REMARK    3  A    between atoms: N_9  and  N_10
REMARK    4  A    between atoms: C_11  and  C_13
REMARK    5  A    between atoms: C_13  and  C_14
REMARK    6  A    between atoms: C_14  and  C_15
REMARK    7  A    between atoms: N_17  and  N_18
REMARK    8  A    between atoms: C_19  and  C_20
REMARK    9  A    between atoms: C_25  and  C_26
REMARK                            x       y       z     vdW  Elec       q    Type
REMARK                         _______ _______ _______ _____ _____    ______ ____
ROOT
ATOM      1  C   UNL     1       0.012   3.135   5.837  0.00  0.00    +0.107 C 
ENDROOT
BRANCH   1   3
ATOM      2  N   UNL     1       0.021   1.356   4.119  0.00  0.00    -0.207 N 
ATOM      3  C   UNL     1       0.005   2.674   4.403  0.00  0.00    +0.233 C 
ATOM      4  O   UNL     1      -0.015   3.488   3.504  0.00  0.00    -0.274 OA
ATOM      5  H   UNL     1       0.037   0.705   4.838  0.00  0.00    +0.177 HD
BRANCH   2   7
ATOM      6  C   UNL     1       0.030  -0.342   2.511  0.00  0.00    +0.140 C 
ATOM      7  N   UNL     1       0.015   0.927   2.785  0.00  0.00    -0.188 NA
BRANCH   6  14
ATOM      8  C   UNL     1      -0.018   1.503   0.010  0.00  0.00    +0.064 C 
ATOM      9  C   UNL     1       0.002  -0.004   0.002  0.00  0.00    +0.023 A 
ATOM     10  N   UNL     1       0.008  -0.782  -1.117  0.00  0.00    -0.358 N 
ATOM     11  H   UNL     1      -0.000  -0.446  -2.026  0.00  0.00    +0.166 HD
ATOM     12  C   UNL     1       0.028  -2.117  -0.770  0.00  0.00    +0.047 A 
ATOM     13  C   UNL     1       0.036  -2.187   0.633  0.00  0.00    +0.009 A 
ATOM     14  C   UNL     1       0.023  -0.793   1.110  0.00  0.00    +0.023 A 
ATOM     15  C   UNL     1       0.056  -3.427   1.269  0.00  0.00    +0.010 A 
ATOM     16  C   UNL     1       0.069  -4.580   0.516  0.00  0.00    +0.001 A 
ATOM     17  C   UNL     1       0.062  -4.512  -0.870  0.00  0.00    +0.002 A 
ATOM     18  C   UNL     1       0.042  -3.293  -1.512  0.00  0.00    +0.026 A 
ENDBRANCH   6  14
ENDBRANCH   2   7
ENDBRANCH   1   3
BRANCH   1  19
ATOM     19  C   UNL     1      -0.010   4.664   5.881  0.00  0.00    +0.107 C 
BRANCH  19  20
ATOM     20  C   UNL     1      -0.003   5.126   7.316  0.00  0.00    +0.233 C 
ATOM     21  O   UNL     1       0.017   4.311   8.215  0.00  0.00    -0.274 OA
ATOM     22  N   UNL     1      -0.019   6.443   7.600  0.00  0.00    -0.207 N 
ATOM     23  H   UNL     1      -0.035   7.094   6.881  0.00  0.00    +0.177 HD
BRANCH  22  24
ATOM     24  N   UNL     1      -0.012   6.872   8.934  0.00  0.00    -0.188 NA
ATOM     25  C   UNL     1      -0.028   8.142   9.208  0.00  0.00    +0.140 C 
BRANCH  25  26
ATOM     26  C   UNL     1      -0.021   8.593  10.609  0.00  0.00    +0.023 A 
ATOM     27  C   UNL     1      -0.043   9.987  11.086  0.00  0.00    +0.009 A 
ATOM     28  C   UNL     1      -0.027   9.916  12.489  0.00  0.00    +0.047 A 
ATOM     29  N   UNL     1       0.002   8.582  12.835  0.00  0.00    -0.358 N 
ATOM     30  H   UNL     1       0.017   8.246  13.745  0.00  0.00    +0.166 HD
ATOM     31  C   UNL     1       0.000   7.804  11.717  0.00  0.00    +0.023 A 
ATOM     32  C   UNL     1       0.021   6.297  11.708  0.00  0.00    +0.064 C 
ATOM     33  C   UNL     1      -0.042  11.093  13.231  0.00  0.00    +0.026 A 
ATOM     34  C   UNL     1      -0.072  12.311  12.588  0.00  0.00    +0.002 A 
ATOM     35  C   UNL     1      -0.088  12.379  11.203  0.00  0.00    +0.001 A 
ATOM     36  C   UNL     1      -0.073  11.226  10.450  0.00  0.00    +0.010 A 
ENDBRANCH  25  26
ENDBRANCH  22  24
ENDBRANCH  19  20
ENDBRANCH   1  19
TORSDOF 7
