REMARK  Name = ZINC45621943
REMARK  9 active torsions:
REMARK  status: ('A' for Active; 'I' for Inactive)
REMARK    1  A    between atoms: C_1  and  C_2
REMARK    2  A    between atoms: C_3  and  C_30
REMARK    3  A    between atoms: C_11  and  C_13
REMARK    4  A    between atoms: C_13  and  S_14
REMARK    5  A    between atoms: S_14  and  C_15
REMARK    6  A    between atoms: C_15  and  C_17
REMARK    7  A    between atoms: C_15  and  C_18
REMARK    8  A    between atoms: N_20  and  C_21
REMARK    9  A    between atoms: C_24  and  N_28
REMARK                            x       y       z     vdW  Elec       q    Type
REMARK                         _______ _______ _______ _____ _____    ______ ____
ROOT
ATOM      1  C   UNL     1       0.141  -6.145   5.441  0.00  0.00    +0.130 C 
ATOM      2  C   UNL     1      -1.157  -5.932   6.223  0.00  0.00    +0.029 C 
ENDROOT
BRANCH   1   3
ATOM      3  C   UNL     1       0.273  -7.601   5.074  0.00  0.00    +0.230 C 
ATOM      4  O   UNL     1      -0.019  -7.974   3.958  0.00  0.00    -0.274 OA
ATOM      5  N   UNL     1       0.716  -8.489   5.987  0.00  0.00    -0.285 N 
ATOM      6  H   UNL     1       1.014  -8.181   6.857  0.00  0.00    +0.155 HD
BRANCH   5   7
ATOM      7  C   UNL     1       0.748  -9.855   5.677  0.00  0.00    +0.036 A 
ATOM      8  C   UNL     1       0.475 -10.796   6.662  0.00  0.00    +0.045 A 
ATOM      9  C   UNL     1       0.506 -12.143   6.357  0.00  0.00    +0.065 A 
ATOM     10  C   UNL     1       0.810 -12.557   5.066  0.00  0.00    +0.062 A 
ATOM     11  C   UNL     1       1.082 -11.615   4.081  0.00  0.00    +0.065 A 
ATOM     12  C   UNL     1       1.045 -10.268   4.385  0.00  0.00    +0.045 A 
ATOM     13 CL   UNL     1       1.462 -12.131   2.468  0.00  0.00    -0.082 Cl
ATOM     14 CL   UNL     1       0.166 -13.319   7.588  0.00  0.00    -0.082 Cl
BRANCH  10  15
ATOM     15  N   UNL     1       0.841 -13.922   4.757  0.00  0.00    -0.356 N 
ATOM     16  H   UNL     1       0.651 -14.580   5.444  0.00  0.00    +0.142 HD
ATOM     17  H   UNL     1       1.053 -14.211   3.855  0.00  0.00    +0.142 HD
ENDBRANCH  10  15
ENDBRANCH   5   7
ENDBRANCH   1   3
BRANCH   1  18
ATOM     18  S   UNL     1       0.109  -5.141   3.931  0.00  0.00    -0.141 S 
BRANCH  18  19
ATOM     19  C   UNL     1       0.102  -3.433   4.540  0.00  0.00    +0.144 C 
BRANCH  19  30
ATOM     20  C   UNL     1      -0.013   1.493  -0.007  0.00  0.00    +0.045 C 
ATOM     21  C   UNL     1       0.002  -0.014  -0.013  0.00  0.00    -0.026 A 
ATOM     22  C   UNL     1      -0.004  -0.690  -1.173  0.00  0.00    -0.008 A 
ATOM     23  S   UNL     1       0.018  -2.396  -0.657  0.00  0.00    -0.073 S 
ATOM     24  C   UNL     1       0.035  -2.152   1.100  0.00  0.00    +0.116 A 
ATOM     25  C   UNL     1       0.028  -0.752   1.236  0.00  0.00    +0.075 A 
ATOM     26  C   UNL     1       0.043  -0.261   2.583  0.00  0.00    +0.260 A 
ATOM     27  O   UNL     1       0.034   0.937   2.804  0.00  0.00    -0.267 OA
ATOM     28  N   UNL     1       0.067  -1.144   3.598  0.00  0.00    -0.310 N 
ATOM     29  H   UNL     1       0.077  -0.818   4.512  0.00  0.00    +0.170 HD
ATOM     30  C   UNL     1       0.076  -2.483   3.370  0.00  0.00    +0.121 A 
ATOM     31  N   UNL     1       0.053  -2.962   2.155  0.00  0.00    -0.226 NA
ATOM     32  C   UNL     1      -0.025  -0.138  -2.575  0.00  0.00    +0.052 C 
ENDBRANCH  19  30
ENDBRANCH  18  19
ENDBRANCH   1  18
TORSDOF 6
