REMARK  Name = ZINC05952915
REMARK  7 active torsions:
REMARK  status: ('A' for Active; 'I' for Inactive)
REMARK    1  A    between atoms: C_1  and  C_2
REMARK    2  A    between atoms: C_2  and  O_3
REMARK    3  A    between atoms: O_3  and  C_4
REMARK    4  A    between atoms: C_4  and  C_6
REMARK    5  A    between atoms: C_8  and  C_20
REMARK    6  A    between atoms: C_14  and  C_15
REMARK    7  A    between atoms: C_14  and  O_19
REMARK                            x       y       z     vdW  Elec       q    Type
REMARK                         _______ _______ _______ _____ _____    ______ ____
ROOT
ATOM      1  C   UNL     1      -3.062  -2.546   0.194  0.00  0.00    +0.181 C 
ATOM      2  C   UNL     1      -2.829  -4.024  -0.135  0.00  0.00    +0.123 C 
ATOM      3  N   UNL     1      -2.136  -4.127  -1.420  0.00  0.00    -0.292 N 
ATOM      4  C   UNL     1      -2.291  -3.196  -2.373  0.00  0.00    +0.302 C 
ATOM      5  O   UNL     1      -1.700  -3.335  -3.427  0.00  0.00    -0.253 OA
ATOM      6  N   UNL     1      -3.073  -2.118  -2.211  0.00  0.00    -0.264 N 
ATOM      7  C   UNL     1      -3.822  -1.897  -0.968  0.00  0.00    +0.246 C 
ATOM      8  H   UNL     1      -1.552  -4.884  -1.586  0.00  0.00    +0.151 HD
ATOM      9  H   UNL     1      -3.144  -1.470  -2.929  0.00  0.00    +0.153 HD
ENDROOT
BRANCH   2  10
ATOM     10  C   UNL     1      -1.988  -4.654   0.944  0.00  0.00    -0.026 A 
ATOM     11  C   UNL     1      -0.611  -4.547   0.898  0.00  0.00    +0.006 A 
ATOM     12  C   UNL     1       0.161  -5.125   1.889  0.00  0.00    +0.015 A 
ATOM     13  C   UNL     1      -0.445  -5.810   2.926  0.00  0.00    +0.018 A 
ATOM     14  C   UNL     1      -1.823  -5.917   2.972  0.00  0.00    +0.015 A 
ATOM     15  C   UNL     1      -2.594  -5.335   1.984  0.00  0.00    +0.006 A 
ATOM     16 BR   UNL     1       0.611  -6.601   4.281  0.00  0.00    -0.050 Br
ENDBRANCH   2  10
BRANCH   7  17
ATOM     17  C   UNL     1      -3.966  -0.396  -0.710  0.00  0.00    +0.436 C 
ATOM     18  F   UNL     1      -2.701   0.203  -0.724  0.00  0.00    -0.166 F 
ATOM     19  F   UNL     1      -4.762   0.175  -1.709  0.00  0.00    -0.166 F 
ATOM     20  F   UNL     1      -4.565  -0.192   0.537  0.00  0.00    -0.166 F 
ENDBRANCH   7  17
BRANCH   1  21
ATOM     21  C   UNL     1      -1.736  -1.854   0.379  0.00  0.00    +0.317 C 
ATOM     22  O   UNL     1      -0.940  -1.820  -0.529  0.00  0.00    -0.250 OA
BRANCH  21  23
ATOM     23  O   UNL     1      -1.439  -1.276   1.554  0.00  0.00    -0.465 OA
BRANCH  23  25
ATOM     24  C   UNL     1      -0.007  -0.042   3.059  0.00  0.00    +0.048 C 
ATOM     25  C   UNL     1      -0.165  -0.639   1.660  0.00  0.00    +0.229 C 
ENDBRANCH  23  25
ENDBRANCH  21  23
ENDBRANCH   1  21
BRANCH   7  26
ATOM     26  O   UNL     1      -5.118  -2.489  -1.081  0.00  0.00    -0.364 OA
ATOM     27  H   UNL     1      -5.655  -2.126  -1.798  0.00  0.00    +0.212 HD
ENDBRANCH   7  26
TORSDOF 6
