REMARK  Name = ZINC39210693
REMARK  4 active torsions:
REMARK  status: ('A' for Active; 'I' for Inactive)
REMARK    1  A    between atoms: C_1  and  C_2
REMARK    2  A    between atoms: C_2  and  N_3
REMARK    3  A    between atoms: C_23  and  N_27
REMARK    4  A    between atoms: C_24  and  C_25
REMARK                            x       y       z     vdW  Elec       q    Type
REMARK                         _______ _______ _______ _____ _____    ______ ____
ROOT
ATOM      1  N   UNL     1       0.711  -0.489   1.189  0.00  0.00    -0.270 N 
ATOM      2  C   UNL     1       2.074  -0.723   1.234  0.00  0.00    +0.041 A 
ATOM      3  C   UNL     1       3.033  -0.568   0.233  0.00  0.00    +0.024 A 
ATOM      4  C   UNL     1       4.344  -0.880   0.557  0.00  0.00    +0.002 A 
ATOM      5  C   UNL     1       4.700  -1.326   1.813  0.00  0.00    +0.000 A 
ATOM      6  C   UNL     1       3.753  -1.486   2.820  0.00  0.00    +0.007 A 
ATOM      7  C   UNL     1       2.448  -1.178   2.505  0.00  0.00    -0.005 A 
ATOM      8  C   UNL     1       1.192  -1.231   3.317  0.00  0.00    +0.133 C 
ATOM      9  C   UNL     1       0.112  -0.755   2.369  0.00  0.00    +0.237 C 
ATOM     10  O   UNL     1      -1.069  -0.638   2.621  0.00  0.00    -0.274 OA
ATOM     11  C   UNL     1       1.278  -0.287   4.517  0.00  0.00    +0.183 C 
ATOM     12  C   UNL     1       1.134   1.137   4.064  0.00  0.00    +0.234 C 
ATOM     13  O   UNL     1       1.919   1.582   3.254  0.00  0.00    -0.274 OA
ATOM     14  N   UNL     1       0.158   1.928   4.535  0.00  0.00    -0.238 N 
ATOM     15  C   UNL     1      -0.741   1.475   5.424  0.00  0.00    +0.332 C 
ATOM     16  O   UNL     1      -1.591   2.235   5.848  0.00  0.00    -0.250 OA
ATOM     17  N   UNL     1      -0.725   0.205   5.855  0.00  0.00    -0.131 NA
ATOM     18  C   UNL     1       0.166  -0.655   5.471  0.00  0.00    +0.205 C 
ATOM     19  O   UNL     1       0.126  -1.934   5.906  0.00  0.00    -0.428 OA
ATOM     20  C   UNL     1       0.394  -2.901   5.001  0.00  0.00    +0.200 C 
ATOM     21  C   UNL     1       0.904  -2.630   3.779  0.00  0.00    +0.107 C 
ATOM     22  H   UNL     1       0.100   2.846   4.228  0.00  0.00    +0.159 HD
ENDROOT
BRANCH  20  23
ATOM     23  N   UNL     1       0.139  -4.207   5.335  0.00  0.00    -0.328 N 
ATOM     24  H   UNL     1      -0.227  -4.422   6.207  0.00  0.00    +0.145 HD
ATOM     25  H   UNL     1       0.324  -4.916   4.699  0.00  0.00    +0.145 HD
ENDBRANCH  20  23
BRANCH   1  27
ATOM     26  C   UNL     1      -0.019   1.526   0.010  0.00  0.00    +0.025 C 
ATOM     27  C   UNL     1       0.002  -0.004   0.002  0.00  0.00    +0.110 C 
ENDBRANCH   1  27
BRANCH  21  28
ATOM     28  C   UNL     1       1.180  -3.720   2.891  0.00  0.00    +0.101 C 
ATOM     29  N   UNL     1       1.399  -4.584   2.187  0.00  0.00    -0.191 NA
ENDBRANCH  21  28
TORSDOF 3
