REMARK  Name = ZINC63686337
REMARK  9 active torsions:
REMARK  status: ('A' for Active; 'I' for Inactive)
REMARK    1  A    between atoms: C_1  and  C_2
REMARK    2  A    between atoms: C_9  and  C_13
REMARK    3  A    between atoms: C_13  and  S_14
REMARK    4  A    between atoms: S_14  and  C_15
REMARK    5  A    between atoms: C_19  and  C_28
REMARK    6  A    between atoms: N_21  and  C_22
REMARK    7  A    between atoms: C_28  and  C_29
REMARK    8  A    between atoms: C_29  and  C_30
REMARK    9  A    between atoms: C_29  and  C_31
REMARK                            x       y       z     vdW  Elec       q    Type
REMARK                         _______ _______ _______ _____ _____    ______ ____
ROOT
ATOM      1  C   UNL     1       1.530   1.628   6.674  0.00  0.00    +0.217 C 
ATOM      2  N   UNL     1       0.484   2.675   6.627  0.00  0.00    -0.226 NA
ATOM      3  N   UNL     1      -0.120   2.649   7.969  0.00  0.00    -0.234 NA
ATOM      4  C   UNL     1      -0.129   1.201   8.303  0.00  0.00    +0.158 C 
ATOM      5  N   UNL     1       1.140   0.690   7.741  0.00  0.00    -0.288 N 
ATOM      6  H   UNL     1       0.886   3.579   6.429  0.00  0.00    +0.143 HD
ATOM      7  H   UNL     1       0.440   3.169   8.628  0.00  0.00    +0.143 HD
ENDROOT
BRANCH   5   8
ATOM      8  C   UNL     1       1.832  -0.455   8.142  0.00  0.00    +0.033 A 
ATOM      9  C   UNL     1       1.269  -1.711   7.952  0.00  0.00    +0.023 A 
ATOM     10  C   UNL     1       1.956  -2.841   8.348  0.00  0.00    +0.002 A 
ATOM     11  C   UNL     1       3.202  -2.724   8.935  0.00  0.00    +0.000 A 
ATOM     12  C   UNL     1       3.766  -1.476   9.127  0.00  0.00    +0.002 A 
ATOM     13  C   UNL     1       3.087  -0.342   8.727  0.00  0.00    +0.023 A 
ENDBRANCH   5   8
BRANCH   1  14
ATOM     14  S   UNL     1       1.613   0.760   5.083  0.00  0.00    -0.116 S 
BRANCH  14  15
ATOM     15  C   UNL     1      -0.064   0.105   4.853  0.00  0.00    +0.125 C 
BRANCH  15  24
ATOM     16  C   UNL     1      -0.240   1.663   0.025  0.00  0.00    +0.046 C 
ATOM     17  C   UNL     1      -0.270   0.157  -0.015  0.00  0.00    -0.026 A 
ATOM     18  C   UNL     1      -0.327  -0.503  -1.223  0.00  0.00    +0.005 A 
ATOM     19  C   UNL     1      -0.355  -1.889  -1.273  0.00  0.00    +0.001 A 
ATOM     20  C   UNL     1      -0.326  -2.627  -0.122  0.00  0.00    +0.014 A 
ATOM     21  C   UNL     1      -0.268  -1.979   1.111  0.00  0.00    +0.045 A 
ATOM     22  C   UNL     1      -0.234  -0.574   1.169  0.00  0.00    +0.053 A 
ATOM     23  N   UNL     1      -0.170   0.054   2.392  0.00  0.00    -0.357 N 
ATOM     24  C   UNL     1      -0.134  -0.648   3.550  0.00  0.00    +0.030 A 
ATOM     25  C   UNL     1      -0.157  -1.997   3.582  0.00  0.00    +0.073 A 
ATOM     26  C   UNL     1      -0.235  -2.734   2.376  0.00  0.00    +0.190 A 
ATOM     27  O   UNL     1      -0.257  -3.954   2.383  0.00  0.00    -0.287 OA
ATOM     28  H   UNL     1      -0.151   1.023   2.426  0.00  0.00    +0.166 HD
ENDBRANCH  15  24
ENDBRANCH  14  15
ENDBRANCH   1  14
BRANCH   4  29
ATOM     29  C   UNL     1      -0.163   1.002   9.820  0.00  0.00    +0.042 C 
BRANCH  29  30
ATOM     30  C   UNL     1      -1.466   1.577  10.380  0.00  0.00    -0.014 C 
ATOM     31  C   UNL     1      -2.651   0.776   9.839  0.00  0.00    +0.007 C 
ATOM     32  C   UNL     1      -1.446   1.491  11.907  0.00  0.00    +0.007 C 
ENDBRANCH  29  30
ENDBRANCH   4  29
TORSDOF 6
