REMARK  Name = ZINC34929924
REMARK  6 active torsions:
REMARK  status: ('A' for Active; 'I' for Inactive)
REMARK    1  A    between atoms: C_4  and  C_7
REMARK    2  A    between atoms: C_7  and  C_8
REMARK    3  A    between atoms: C_8  and  C_10
REMARK    4  A    between atoms: C_8  and  N_22
REMARK    5  A    between atoms: N_12  and  C_13
REMARK    6  A    between atoms: N_25  and  C_26
REMARK                            x       y       z     vdW  Elec       q    Type
REMARK                         _______ _______ _______ _____ _____    ______ ____
ROOT
ATOM      1  C   UNL     1       4.154  -0.989   1.453  0.00  0.00    +0.165 C 
ENDROOT
BRANCH   1   2
ATOM      2  N   UNL     1       4.414   0.258   2.176  0.00  0.00    -0.288 N 
ATOM      3  C   UNL     1       3.397   0.925   2.756  0.00  0.00    +0.301 C 
ATOM      4  O   UNL     1       2.264   0.491   2.681  0.00  0.00    -0.253 OA
ATOM      5  N   UNL     1       3.636   2.073   3.421  0.00  0.00    -0.294 N 
ATOM      6  H   UNL     1       5.318   0.605   2.236  0.00  0.00    +0.151 HD
ATOM      7  H   UNL     1       4.540   2.419   3.482  0.00  0.00    +0.151 HD
BRANCH   5   8
ATOM      8  C   UNL     1       2.531   2.797   4.053  0.00  0.00    +0.037 C 
ATOM      9  C   UNL     1       1.506   3.194   2.988  0.00  0.00    +0.029 C 
ATOM     10  C   UNL     1       0.352   3.950   3.647  0.00  0.00    -0.008 C 
ATOM     11  C   UNL     1       0.891   5.209   4.329  0.00  0.00    +0.007 C 
ATOM     12  C   UNL     1       1.915   4.813   5.394  0.00  0.00    -0.008 C 
ATOM     13  C   UNL     1       3.070   4.056   4.735  0.00  0.00    +0.029 C 
ATOM     14  C   UNL     1       1.246   3.915   6.437  0.00  0.00    +0.007 C 
ATOM     15  C   UNL     1       0.707   2.656   5.754  0.00  0.00    -0.008 C 
ATOM     16  C   UNL     1      -0.318   3.052   4.689  0.00  0.00    +0.007 C 
ATOM     17  C   UNL     1       1.861   1.899   5.095  0.00  0.00    +0.029 C 
ENDBRANCH   5   8
ENDBRANCH   1   2
BRANCH   1  18
ATOM     18  C   UNL     1       5.405  -1.831   1.438  0.00  0.00    +0.234 C 
ATOM     19  O   UNL     1       6.413  -1.428   1.977  0.00  0.00    -0.274 OA
ATOM     20  N   UNL     1       5.402  -3.031   0.824  0.00  0.00    -0.302 N 
ATOM     21  H   UNL     1       4.595  -3.353   0.393  0.00  0.00    +0.150 HD
BRANCH  20  22
ATOM     22  C   UNL     1       6.617  -3.849   0.809  0.00  0.00    +0.159 C 
ATOM     23  C   UNL     1       6.491  -4.938  -0.258  0.00  0.00    +0.032 C 
ATOM     24  C   UNL     1       5.056  -5.425  -0.362  0.00  0.00    +0.004 C 
ATOM     25  C   UNL     1       4.568  -6.162   0.871  0.00  0.00    +0.019 C 
ATOM     26  C   UNL     1       4.468  -5.215   2.069  0.00  0.00    +0.104 C 
ATOM     27  N   UNL     1       5.780  -5.154   2.732  0.00  0.00    -0.314 N 
ATOM     28  C   UNL     1       6.802  -4.511   2.159  0.00  0.00    +0.233 C 
ATOM     29  O   UNL     1       7.879  -4.460   2.714  0.00  0.00    -0.274 OA
ATOM     30  H   UNL     1       5.905  -5.582   3.594  0.00  0.00    +0.149 HD
ENDBRANCH  20  22
ENDBRANCH   1  18
BRANCH   1  31
ATOM     31  C   UNL     1       3.737  -0.669   0.016  0.00  0.00    +0.067 C 
BRANCH  31  35
ATOM     32  C   UNL     1       0.010   1.417   0.045  0.00  0.00    +0.000 A 
ATOM     33  C   UNL     1       1.197   2.122   0.104  0.00  0.00    +0.000 A 
ATOM     34  C   UNL     1       2.403   1.447   0.095  0.00  0.00    +0.004 A 
ATOM     35  C   UNL     1       2.422   0.067   0.027  0.00  0.00    -0.045 A 
ATOM     36  C   UNL     1       1.235  -0.639  -0.031  0.00  0.00    +0.004 A 
ATOM     37  C   UNL     1       0.029   0.036  -0.024  0.00  0.00    +0.000 A 
ENDBRANCH  31  35
ENDBRANCH   1  31
TORSDOF 6
