REMARK  Name = ZINC13585871
REMARK  5 active torsions:
REMARK  status: ('A' for Active; 'I' for Inactive)
REMARK    1  A    between atoms: C_3  and  C_6
REMARK    2  A    between atoms: C_21  and  C_28
REMARK    3  A    between atoms: C_28  and  N_29
REMARK    4  A    between atoms: N_29  and  C_30
REMARK    5  A    between atoms: C_30  and  C_31
REMARK                            x       y       z     vdW  Elec       q    Type
REMARK                         _______ _______ _______ _____ _____    ______ ____
ROOT
ATOM      1  C   UNL     1       3.574   0.619  -0.029  0.00  0.00    +0.219 A 
ATOM      2  N   UNL     1       4.378   1.698  -0.026  0.00  0.00    -0.186 NA
ATOM      3  C   UNL     1       5.628   1.313  -0.044  0.00  0.00    +0.259 A 
ATOM      4  N   UNL     1       6.783   2.014  -0.043  0.00  0.00    -0.179 NA
ATOM      5  C   UNL     1       7.915   1.354  -0.225  0.00  0.00    +0.201 A 
ATOM      6  N   UNL     1       7.925   0.003  -0.474  0.00  0.00    -0.297 N 
ATOM      7  C   UNL     1       6.833  -0.761  -0.061  0.00  0.00    +0.227 A 
ATOM      8  N   UNL     1       5.635  -0.067  -0.053  0.00  0.00    -0.162 N 
ATOM      9  N   UNL     1       4.312  -0.478  -0.042  0.00  0.00    -0.137 NA
ATOM     10  N   UNL     1       6.932  -2.013   0.284  0.00  0.00    -0.266 NA
ATOM     11  N   UNL     1       9.103   2.034  -0.164  0.00  0.00    -0.304 N 
ATOM     12  C   UNL     1      10.387   1.342  -0.366  0.00  0.00    +0.089 C 
ATOM     13  C   UNL     1      11.300   1.689   0.811  0.00  0.00    -0.059 C 
ATOM     14  N   UNL     1      11.431   3.150   0.933  0.00  0.00    +0.384 N 
ATOM     15  C   UNL     1      12.392   3.426   2.012  0.00  0.00    -0.074 C 
ATOM     16  C   UNL     1      12.615   4.931   2.150  0.00  0.00    -0.014 C 
ATOM     17  C   UNL     1      11.279   5.599   2.491  0.00  0.00    +0.001 C 
ATOM     18  C   UNL     1      10.273   5.271   1.386  0.00  0.00    -0.014 C 
ATOM     19  C   UNL     1      10.130   3.752   1.245  0.00  0.00    -0.051 C 
ATOM     20  C   UNL     1       9.140   3.478   0.099  0.00  0.00    +0.092 C 
ATOM     21  H   UNL     1       6.143  -2.503   0.564  0.00  0.00    +0.190 HD
ATOM     22  H   UNL     1       8.676  -0.411  -0.927  0.00  0.00    +0.171 HD
ATOM     23  H   UNL     1      11.779   3.531   0.066  0.00  0.00    -0.081 HD
ENDROOT
BRANCH   1  26
ATOM     24  C   UNL     1      -0.016   1.343   0.009  0.00  0.00    +0.042 A 
ATOM     25  C   UNL     1       1.325   1.774  -0.001  0.00  0.00    +0.053 A 
ATOM     26  C   UNL     1       2.096   0.655  -0.014  0.00  0.00    +0.173 A 
ATOM     27  O   UNL     1       1.280  -0.417  -0.012  0.00  0.00    -0.460 OA
ATOM     28  C   UNL     1       0.002  -0.004   0.002  0.00  0.00    +0.196 A 
ENDBRANCH   1  26
BRANCH  16  29
ATOM     29  C   UNL     1      13.150   5.493   0.831  0.00  0.00    +0.083 C 
BRANCH  29  30
ATOM     30  N   UNL     1      13.477   6.915   1.001  0.00  0.00    -0.312 NA
ATOM     31  H   UNL     1      12.677   7.433   1.332  0.00  0.00    +0.122 HD
BRANCH  30  32
ATOM     32  C   UNL     1      13.995   7.489  -0.248  0.00  0.00    +0.116 C 
BRANCH  32  33
ATOM     33  C   UNL     1      14.319   8.945  -0.035  0.00  0.00    -0.031 A 
ATOM     34  C   UNL     1      13.362   9.924  -0.254  0.00  0.00    +0.024 A 
ATOM     35  C   UNL     1      13.695  11.250  -0.049  0.00  0.00    +0.111 A 
ATOM     36  N   UNL     1      14.906  11.587   0.350  0.00  0.00    -0.263 NA
ATOM     37  C   UNL     1      15.841  10.683   0.568  0.00  0.00    +0.111 A 
ATOM     38  C   UNL     1      15.579   9.338   0.390  0.00  0.00    +0.024 A 
ENDBRANCH  32  33
ENDBRANCH  30  32
ENDBRANCH  29  30
ENDBRANCH  16  29
TORSDOF 5
