REMARK  Name = ZINC40330498
REMARK  7 active torsions:
REMARK  status: ('A' for Active; 'I' for Inactive)
REMARK    1  A    between atoms: C_1  and  C_2
REMARK    2  A    between atoms: C_6  and  C_21
REMARK    3  A    between atoms: C_10  and  C_12
REMARK    4  A    between atoms: C_14  and  N_20
REMARK    5  A    between atoms: N_16  and  C_17
REMARK    6  A    between atoms: C_17  and  C_18
REMARK    7  A    between atoms: C_17  and  C_19
REMARK                            x       y       z     vdW  Elec       q    Type
REMARK                         _______ _______ _______ _____ _____    ______ ____
ROOT
ATOM      1  C   UNL     1      -0.116   1.192   1.375  0.00  0.00    +0.028 C 
ATOM      2  C   UNL     1       0.330  -0.092   0.671  0.00  0.00    +0.073 C 
ATOM      3  C   UNL     1       0.816   0.241  -0.743  0.00  0.00    +0.023 C 
ATOM      4  C   UNL     1       1.389  -1.022  -1.391  0.00  0.00    +0.016 C 
ATOM      5  C   UNL     1       2.584  -1.520  -0.574  0.00  0.00    +0.092 C 
ATOM      6  C   UNL     1       2.117  -1.872   0.842  0.00  0.00    +0.121 C 
ATOM      7  N   UNL     1       1.433  -0.707   1.421  0.00  0.00    -0.293 N 
ATOM      8  C   UNL     1       1.812  -0.211   2.615  0.00  0.00    +0.263 C 
ATOM      9  O   UNL     1       1.244   0.761   3.079  0.00  0.00    -0.268 OA
ENDROOT
BRANCH   8  10
ATOM     10  C   UNL     1       2.909  -0.842   3.357  0.00  0.00    +0.107 A 
ATOM     11  C   UNL     1       3.303  -2.160   3.263  0.00  0.00    +0.055 A 
ATOM     12  C   UNL     1       4.383  -2.333   4.139  0.00  0.00    +0.043 A 
ATOM     13  C   UNL     1       4.623  -1.138   4.740  0.00  0.00    +0.109 A 
ATOM     14  N   UNL     1       3.735  -0.223   4.267  0.00  0.00    -0.339 N 
BRANCH  14  15
ATOM     15  C   UNL     1       3.667   1.186   4.662  0.00  0.00    +0.081 C 
ATOM     16  C   UNL     1       3.505   1.282   6.181  0.00  0.00    +0.030 C 
ATOM     17  C   UNL     1       4.955   1.896   4.241  0.00  0.00    +0.030 C 
ENDBRANCH  14  15
BRANCH  12  18
ATOM     18  N   UNL     1       5.092  -3.529   4.358  0.00  0.00    -0.357 N 
ATOM     19  H   UNL     1       4.843  -4.334   3.878  0.00  0.00    +0.142 HD
ATOM     20  H   UNL     1       5.828  -3.547   4.989  0.00  0.00    +0.142 HD
ENDBRANCH  12  18
ENDBRANCH   8  10
BRANCH   5  21
ATOM     21  C   UNL     1       3.631  -0.439  -0.505  0.00  0.00    +0.215 C 
ATOM     22  O   UNL     1       3.526   0.553  -1.196  0.00  0.00    -0.276 OA
ATOM     23  N   UNL     1       4.685  -0.574   0.324  0.00  0.00    -0.329 N 
ATOM     24  H   UNL     1       4.808  -1.397   0.822  0.00  0.00    +0.145 HD
ATOM     25  H   UNL     1       5.320   0.153   0.424  0.00  0.00    +0.145 HD
ENDBRANCH   5  21
TORSDOF 4
