REMARK  Name = ZINC48928003
REMARK  4 active torsions:
REMARK  status: ('A' for Active; 'I' for Inactive)
REMARK    1  A    between atoms: C_1  and  C_2
REMARK    2  A    between atoms: C_2  and  C_4
REMARK    3  A    between atoms: C_2  and  N_17
REMARK    4  A    between atoms: N_6  and  C_7
REMARK                            x       y       z     vdW  Elec       q    Type
REMARK                         _______ _______ _______ _____ _____    ______ ____
ROOT
ATOM      1  C   UNL     1       0.707  -0.490  -1.238  0.00  0.00    +0.234 C 
ATOM      2  O   UNL     1       1.704  -1.174  -1.140  0.00  0.00    -0.274 OA
ATOM      3  N   UNL     1       0.231  -0.164  -2.456  0.00  0.00    -0.308 N 
ATOM      4  H   UNL     1      -0.566   0.383  -2.534  0.00  0.00    +0.149 HD
ENDROOT
BRANCH   3   5
ATOM      5  C   UNL     1       0.917  -0.637  -3.661  0.00  0.00    +0.035 C 
ATOM      6  C   UNL     1       0.937  -2.167  -3.670  0.00  0.00    +0.029 C 
ATOM      7  C   UNL     1       1.653  -2.660  -4.928  0.00  0.00    -0.008 C 
ATOM      8  C   UNL     1       0.914  -2.153  -6.168  0.00  0.00    +0.007 C 
ATOM      9  C   UNL     1       0.893  -0.623  -6.159  0.00  0.00    -0.008 C 
ATOM     10  C   UNL     1       0.177  -0.130  -4.901  0.00  0.00    +0.029 C 
ATOM     11  C   UNL     1       2.328  -0.094  -6.170  0.00  0.00    +0.007 C 
ATOM     12  C   UNL     1       3.068  -0.601  -4.931  0.00  0.00    -0.008 C 
ATOM     13  C   UNL     1       3.089  -2.130  -4.939  0.00  0.00    +0.007 C 
ATOM     14  C   UNL     1       2.352  -0.107  -3.672  0.00  0.00    +0.029 C 
ENDBRANCH   3   5
BRANCH   1  16
ATOM     15  C   UNL     1      -0.019   1.526   0.010  0.00  0.00    +0.038 C 
ATOM     16  C   UNL     1       0.002  -0.004   0.002  0.00  0.00    +0.157 C 
BRANCH  16  17
ATOM     17  N   UNL     1       0.711  -0.489   1.189  0.00  0.00    -0.289 N 
ATOM     18  C   UNL     1       0.051  -0.633   2.355  0.00  0.00    +0.298 C 
ATOM     19  O   UNL     1      -1.132  -0.361   2.423  0.00  0.00    -0.253 OA
ATOM     20  N   UNL     1       0.703  -1.080   3.447  0.00  0.00    -0.313 N 
ATOM     21  H   UNL     1       1.654  -0.707   1.135  0.00  0.00    +0.151 HD
ATOM     22  H   UNL     1       1.647  -1.298   3.394  0.00  0.00    +0.146 HD
ATOM     23  H   UNL     1       0.229  -1.184   4.287  0.00  0.00    +0.146 HD
ENDBRANCH  16  17
ENDBRANCH   1  16
TORSDOF 3
