REMARK  Name = ZINC14984553
REMARK  14 active torsions:
REMARK  status: ('A' for Active; 'I' for Inactive)
REMARK    1  A    between atoms: C_1  and  C_2
REMARK    2  A    between atoms: C_2  and  C_3
REMARK    3  A    between atoms: C_3  and  N_4
REMARK    4  A    between atoms: C_5  and  C_7
REMARK    5  A    between atoms: C_7  and  C_8
REMARK    6  A    between atoms: C_8  and  C_9
REMARK    7  A    between atoms: C_9  and  C_10
REMARK    8  A    between atoms: C_14  and  C_39
REMARK    9  A    between atoms: C_15  and  C_38
REMARK   10  A    between atoms: C_16  and  O_37
REMARK   11  A    between atoms: C_23  and  O_36
REMARK   12  A    between atoms: C_26  and  C_35
REMARK   13  A    between atoms: C_27  and  C_34
REMARK   14  A    between atoms: C_30  and  O_33
REMARK                            x       y       z     vdW  Elec       q    Type
REMARK                         _______ _______ _______ _____ _____    ______ ____
ROOT
ATOM      1  C   UNL     1      -0.989   1.093   9.982  0.00  0.00    -0.002 C 
ATOM      2  C   UNL     1       0.193   2.078  10.024  0.00  0.00    +0.005 C 
ATOM      3  C   UNL     1       0.119   2.821  11.368  0.00  0.00    +0.008 C 
ATOM      4  C   UNL     1      -0.806   1.970  12.279  0.00  0.00    -0.019 C 
ATOM      5  C   UNL     1      -1.753   1.274  11.296  0.00  0.00    +0.002 C 
ATOM      6  C   UNL     1      -2.385   0.009  11.815  0.00  0.00    +0.122 C 
ATOM      7  C   UNL     1      -1.414  -0.922  12.535  0.00  0.00    +0.036 C 
ATOM      8  C   UNL     1      -0.729  -0.152  13.655  0.00  0.00    +0.004 C 
ATOM      9  C   UNL     1       0.058   1.021  13.097  0.00  0.00    +0.028 C 
ATOM     10  C   UNL     1       1.318   0.560  12.389  0.00  0.00    +0.119 C 
ATOM     11  C   UNL     1       2.200  -0.198  13.382  0.00  0.00    +0.039 C 
ATOM     12  C   UNL     1       1.480  -1.399  13.995  0.00  0.00    -0.022 C 
ATOM     13  C   UNL     1       0.116  -1.044  14.553  0.00  0.00    -0.023 C 
ATOM     14  C   UNL     1      -0.684  -2.274  14.978  0.00  0.00    +0.010 C 
ATOM     15  C   UNL     1      -0.652  -3.424  13.990  0.00  0.00    +0.032 C 
ATOM     16  C   UNL     1       0.783  -3.776  13.598  0.00  0.00    +0.115 C 
ATOM     17  C   UNL     1       1.432  -2.537  12.982  0.00  0.00    +0.038 C 
ATOM     18  C   UNL     1       0.366  -0.246  15.866  0.00  0.00    +0.012 C 
ATOM     19  C   UNL     1       2.364  -1.861  15.182  0.00  0.00    +0.012 C 
ATOM     20  C   UNL     1      -2.910   2.260  11.008  0.00  0.00    +0.014 C 
ATOM     21  C   UNL     1      -1.611   2.897  13.224  0.00  0.00    +0.012 C 
ENDROOT
BRANCH  16  22
ATOM     22  O   UNL     1       0.756  -4.824  12.621  0.00  0.00    -0.392 OA
ATOM     23  H   UNL     1       0.332  -5.637  12.928  0.00  0.00    +0.210 HD
ENDBRANCH  16  22
BRANCH  10  24
ATOM     24  O   UNL     1       1.045  -0.263  11.263  0.00  0.00    -0.391 OA
ATOM     25  H   UNL     1       1.837  -0.568  10.797  0.00  0.00    +0.210 HD
ENDBRANCH  10  24
BRANCH   6  26
ATOM     26  O   UNL     1      -2.989  -0.705  10.731  0.00  0.00    -0.391 OA
ATOM     27  H   UNL     1      -3.416  -1.532  10.995  0.00  0.00    +0.210 HD
ENDBRANCH   6  26
BRANCH   1  28
ATOM     28  C   UNL     1      -1.899   1.448   8.797  0.00  0.00    +0.004 C 
BRANCH  28  29
ATOM     29  C   UNL     1      -1.170   1.145   7.486  0.00  0.00    +0.009 C 
BRANCH  29  30
ATOM     30  C   UNL     1      -2.077   1.498   6.305  0.00  0.00    +0.096 C 
BRANCH  30  32
ATOM     31  N   UNL     1      -1.968   1.435   3.835  0.00  0.00    -0.315 N 
ATOM     32  C   UNL     1      -1.359   1.200   5.014  0.00  0.00    +0.213 C 
ATOM     33  O   UNL     1      -0.233   0.750   5.036  0.00  0.00    -0.276 OA
ATOM     34  H   UNL     1      -2.868   1.795   3.817  0.00  0.00    +0.149 HD
BRANCH  31  35
ATOM     35  C   UNL     1      -1.270   1.145   2.580  0.00  0.00    +0.104 C 
BRANCH  35  37
ATOM     36  C   UNL     1      -1.448   1.196   0.088  0.00  0.00    +0.005 C 
ATOM     37  C   UNL     1      -2.177   1.498   1.399  0.00  0.00    +0.015 C 
ENDBRANCH  35  37
ENDBRANCH  31  35
ENDBRANCH  30  32
ENDBRANCH  29  30
ENDBRANCH  28  29
ENDBRANCH   1  28
TORSDOF 9
