REMARK  Name = ZINC40313457
REMARK  3 active torsions:
REMARK  status: ('A' for Active; 'I' for Inactive)
REMARK    1  A    between atoms: C_9  and  C_12
REMARK    2  A    between atoms: C_15  and  C_17
REMARK    3  A    between atoms: C_18  and  N_22
REMARK                            x       y       z     vdW  Elec       q    Type
REMARK                         _______ _______ _______ _____ _____    ______ ____
ROOT
ATOM      1  C   UNL     1      -0.038   1.382  -0.064  0.00  0.00    +0.002 A 
ATOM      2  C   UNL     1       1.049   2.117  -0.500  0.00  0.00    +0.004 A 
ATOM      3  C   UNL     1       2.201   1.477  -0.916  0.00  0.00    +0.047 A 
ATOM      4  C   UNL     1       2.271   0.092  -0.898  0.00  0.00    +0.143 A 
ATOM      5  C   UNL     1       1.175  -0.645  -0.461  0.00  0.00    +0.079 A 
ATOM      6  C   UNL     1       0.022   0.001  -0.043  0.00  0.00    +0.027 A 
ATOM      7  N   UNL     1       1.238  -2.049  -0.449  0.00  0.00    -0.260 N 
ATOM      8  C   UNL     1       2.563  -2.675  -0.602  0.00  0.00    +0.168 C 
ATOM      9  C   UNL     1       3.317  -1.901  -1.693  0.00  0.00    +0.276 C 
ATOM     10  O   UNL     1       3.410  -0.529  -1.305  0.00  0.00    -0.476 OA
ATOM     11  C   UNL     1       0.127  -2.796  -0.301  0.00  0.00    +0.259 C 
ATOM     12  O   UNL     1      -0.942  -2.259  -0.070  0.00  0.00    -0.269 OA
ENDROOT
BRANCH   9  13
ATOM     13  C   UNL     1       4.701  -2.477  -1.856  0.00  0.00    +0.253 C 
ATOM     14  O   UNL     1       5.673  -1.806  -1.582  0.00  0.00    -0.272 OA
ATOM     15  N   UNL     1       4.857  -3.738  -2.305  0.00  0.00    -0.326 N 
ATOM     16  H   UNL     1       4.080  -4.275  -2.524  0.00  0.00    +0.145 HD
ATOM     17  H   UNL     1       5.747  -4.109  -2.409  0.00  0.00    +0.145 HD
ENDBRANCH   9  13
BRANCH  11  18
ATOM     18  C   UNL     1       0.201  -4.205  -0.414  0.00  0.00    +0.095 A 
ATOM     19  C   UNL     1      -0.793  -5.111  -0.784  0.00  0.00    +0.044 A 
ATOM     20  C   UNL     1      -0.408  -6.438  -0.800  0.00  0.00    +0.031 A 
ATOM     21  C   UNL     1       0.864  -6.758  -0.468  0.00  0.00    +0.048 A 
ATOM     22  S   UNL     1       1.591  -5.283  -0.129  0.00  0.00    -0.090 S 
BRANCH  19  23
ATOM     23  N   UNL     1      -2.084  -4.706  -1.113  0.00  0.00    -0.357 N 
ATOM     24  H   UNL     1      -2.318  -3.765  -1.089  0.00  0.00    +0.142 HD
ATOM     25  H   UNL     1      -2.749  -5.365  -1.365  0.00  0.00    +0.142 HD
ENDBRANCH  19  23
ENDBRANCH  11  18
TORSDOF 3
