REMARK  Name = ZINC22048742
REMARK  7 active torsions:
REMARK  status: ('A' for Active; 'I' for Inactive)
REMARK    1  A    between atoms: C_3  and  O_8
REMARK    2  A    between atoms: C_6  and  N_7
REMARK    3  A    between atoms: O_8  and  C_9
REMARK    4  A    between atoms: C_11  and  O_25
REMARK    5  A    between atoms: C_13  and  O_24
REMARK    6  A    between atoms: C_15  and  O_23
REMARK    7  A    between atoms: C_17  and  C_20
REMARK                            x       y       z     vdW  Elec       q    Type
REMARK                         _______ _______ _______ _____ _____    ______ ____
ROOT
ATOM      1  C   UNL     1      -2.183  -2.997  -0.146  0.00  0.00    +0.340 C 
ATOM      2  C   UNL     1      -2.956  -2.831   1.164  0.00  0.00    +0.214 C 
ATOM      3  C   UNL     1      -3.315  -1.354   1.353  0.00  0.00    +0.180 C 
ATOM      4  C   UNL     1      -2.030  -0.521   1.327  0.00  0.00    +0.186 C 
ATOM      5  C   UNL     1      -1.293  -0.775   0.010  0.00  0.00    +0.266 C 
ATOM      6  O   UNL     1      -1.016  -2.171  -0.117  0.00  0.00    -0.322 OA
ENDROOT
BRANCH   5   7
ATOM      7  C   UNL     1       0.002  -0.004   0.002  0.00  0.00    +0.387 C 
ATOM      8  O   UNL     1       1.056  -0.594  -0.011  0.00  0.00    -0.243 OA
ATOM      9  O   UNL     1      -0.016   1.338   0.009  0.00  0.00    -0.243 OA
ENDBRANCH   5   7
BRANCH   4  10
ATOM     10  O   UNL     1      -2.359   0.866   1.430  0.00  0.00    -0.386 OA
ATOM     11  H   UNL     1      -1.560   1.622   1.429  0.00  0.00    +0.210 HD
ENDBRANCH   4  10
BRANCH   3  12
ATOM     12  O   UNL     1      -4.180  -0.933   0.296  0.00  0.00    -0.386 OA
ATOM     13  H   UNL     1      -4.545   0.104   0.265  0.00  0.00    +0.210 HD
ENDBRANCH   3  12
BRANCH   2  14
ATOM     14  O   UNL     1      -2.145  -3.271   2.256  0.00  0.00    -0.383 OA
ATOM     15  H   UNL     1      -2.535  -3.227   3.283  0.00  0.00    +0.210 HD
ENDBRANCH   2  14
BRANCH   1  16
ATOM     16  O   UNL     1      -3.014  -2.609  -1.242  0.00  0.00    -0.461 OA
BRANCH  16  19
ATOM     17  C   UNL     1      -2.852  -2.823  -4.871  0.00  0.00    +0.026 A 
ATOM     18  C   UNL     1      -3.315  -2.539  -3.601  0.00  0.00    +0.047 A 
ATOM     19  C   UNL     1      -2.558  -2.889  -2.493  0.00  0.00    +0.124 A 
ATOM     20  C   UNL     1      -1.333  -3.519  -2.659  0.00  0.00    +0.047 A 
ATOM     21  C   UNL     1      -0.872  -3.808  -3.928  0.00  0.00    +0.026 A 
ATOM     22  C   UNL     1      -1.629  -3.458  -5.038  0.00  0.00    +0.025 A 
BRANCH  22  23
ATOM     23  N   UNL     1      -1.160  -3.747  -6.325  0.00  0.00    -0.358 N 
ATOM     24  H   UNL     1      -0.191  -4.250  -6.457  0.00  0.00    +0.142 HD
ATOM     25  H   UNL     1      -1.760  -3.470  -7.204  0.00  0.00    +0.142 HD
ENDBRANCH  22  23
ENDBRANCH  16  19
ENDBRANCH   1  16
TORSDOF 7
