REMARK  Name = ZINC17375751
REMARK  7 active torsions:
REMARK  status: ('A' for Active; 'I' for Inactive)
REMARK    1  A    between atoms: C_4  and  O_8
REMARK    2  A    between atoms: C_5  and  N_7
REMARK    3  A    between atoms: O_8  and  C_9
REMARK    4  A    between atoms: C_11  and  O_24
REMARK    5  A    between atoms: C_13  and  O_23
REMARK    6  A    between atoms: C_15  and  O_22
REMARK    7  A    between atoms: C_17  and  C_20
REMARK                            x       y       z     vdW  Elec       q    Type
REMARK                         _______ _______ _______ _____ _____    ______ ____
ROOT
ATOM      1  C   UNL     1       2.312  -0.306  -0.021  0.00  0.00    +0.340 C 
ATOM      2  C   UNL     1       3.728  -0.870  -0.163  0.00  0.00    +0.214 C 
ATOM      3  C   UNL     1       3.668  -2.399  -0.108  0.00  0.00    +0.180 C 
ATOM      4  C   UNL     1       3.001  -2.827   1.202  0.00  0.00    +0.186 C 
ATOM      5  C   UNL     1       1.613  -2.188   1.291  0.00  0.00    +0.266 C 
ATOM      6  O   UNL     1       1.737  -0.767   1.204  0.00  0.00    -0.322 OA
ENDROOT
BRANCH   5   7
ATOM      7  C   UNL     1       0.973  -2.557   2.605  0.00  0.00    +0.387 C 
ATOM      8  O   UNL     1       0.738  -1.700   3.424  0.00  0.00    -0.243 OA
ATOM      9  O   UNL     1       0.665  -3.837   2.866  0.00  0.00    -0.243 OA
ENDBRANCH   5   7
BRANCH   4  10
ATOM     10  O   UNL     1       2.874  -4.250   1.231  0.00  0.00    -0.386 OA
ATOM     11  H   UNL     1       2.459  -4.592   2.035  0.00  0.00    +0.210 HD
ENDBRANCH   4  10
BRANCH   3  12
ATOM     12  O   UNL     1       2.906  -2.887  -1.214  0.00  0.00    -0.386 OA
ATOM     13  H   UNL     1       3.268  -2.647  -2.078  0.00  0.00    +0.210 HD
ENDBRANCH   3  12
BRANCH   2  14
ATOM     14  O   UNL     1       4.544  -0.384   0.905  0.00  0.00    -0.383 OA
ATOM     15  H   UNL     1       4.622   0.579   0.934  0.00  0.00    +0.210 HD
ENDBRANCH   2  14
BRANCH   1  16
ATOM     16  O   UNL     1       2.365   1.122  -0.014  0.00  0.00    -0.459 OA
BRANCH  16  20
ATOM     17  C   UNL     1      -1.243   3.133   0.031  0.00  0.00    +0.002 A 
ATOM     18  C   UNL     1      -1.220   1.751   0.017  0.00  0.00    +0.004 A 
ATOM     19  C   UNL     1      -0.013   1.076   0.008  0.00  0.00    +0.047 A 
ATOM     20  C   UNL     1       1.177   1.784   0.000  0.00  0.00    +0.145 A 
ATOM     21  C   UNL     1       1.155   3.177   0.008  0.00  0.00    +0.067 A 
ATOM     22  C   UNL     1      -0.060   3.848   0.023  0.00  0.00    +0.026 A 
BRANCH  21  23
ATOM     23  N   UNL     1       2.354   3.899   0.000  0.00  0.00    -0.355 N 
ATOM     24  H   UNL     1       3.203   3.429  -0.011  0.00  0.00    +0.142 HD
ATOM     25  H   UNL     1       2.337   4.869   0.005  0.00  0.00    +0.142 HD
ENDBRANCH  21  23
ENDBRANCH  16  20
ENDBRANCH   1  16
TORSDOF 7
