REMARK  Name = ZINC36637708
REMARK  11 active torsions:
REMARK  status: ('A' for Active; 'I' for Inactive)
REMARK    1  A    between atoms: C_1  and  C_2
REMARK    2  A    between atoms: C_2  and  N_3
REMARK    3  A    between atoms: N_3  and  C_4
REMARK    4  A    between atoms: N_3  and  C_6
REMARK    5  A    between atoms: C_4  and  C_5
REMARK    6  A    between atoms: C_6  and  C_7
REMARK    7  A    between atoms: C_7  and  N_8
REMARK    8  A    between atoms: C_14  and  C_18
REMARK    9  A    between atoms: C_19  and  C_21
REMARK   10  A    between atoms: C_24  and  S_27
REMARK   11  A    between atoms: S_27  and  N_30
REMARK                            x       y       z     vdW  Elec       q    Type
REMARK                         _______ _______ _______ _____ _____    ______ ____
ROOT
ATOM      1  N   UNL     1       2.155  -4.220   2.488  0.00  0.00    -0.248 N 
ATOM      2  C   UNL     1       3.398  -4.790   2.273  0.00  0.00    +0.168 A 
ATOM      3  N   UNL     1       4.587  -4.259   2.439  0.00  0.00    -0.224 NA
ATOM      4  C   UNL     1       5.727  -4.938   2.188  0.00  0.00    +0.080 A 
ATOM      5  C   UNL     1       7.060  -4.487   2.324  0.00  0.00    +0.029 A 
ATOM      6  C   UNL     1       8.112  -5.311   2.023  0.00  0.00    +0.005 A 
ATOM      7  C   UNL     1       7.911  -6.610   1.577  0.00  0.00    -0.049 A 
ATOM      8  C   UNL     1       6.621  -7.084   1.432  0.00  0.00    +0.020 A 
ATOM      9  C   UNL     1       5.560  -6.265   1.731  0.00  0.00    +0.041 A 
ATOM     10  S   UNL     1       3.792  -6.438   1.706  0.00  0.00    -0.052 S 
ATOM     11  C   UNL     1       9.088  -7.494   1.253  0.00  0.00    +0.044 C 
ATOM     12  C   UNL     1       1.036  -4.938   2.263  0.00  0.00    +0.252 C 
ATOM     13  O   UNL     1       1.119  -6.102   1.924  0.00  0.00    -0.270 OA
ENDROOT
BRANCH  12  14
ATOM     14  C   UNL     1      -0.291  -4.309   2.429  0.00  0.00    +0.037 A 
ATOM     15  C   UNL     1      -0.453  -2.941   2.202  0.00  0.00    +0.015 A 
ATOM     16  C   UNL     1      -1.694  -2.361   2.358  0.00  0.00    +0.029 A 
ATOM     17  C   UNL     1      -2.778  -3.132   2.741  0.00  0.00    +0.106 A 
ATOM     18  C   UNL     1      -2.625  -4.488   2.968  0.00  0.00    +0.029 A 
ATOM     19  C   UNL     1      -1.390  -5.082   2.809  0.00  0.00    +0.015 A 
BRANCH  17  20
ATOM     20  S   UNL     1      -4.360  -2.382   2.940  0.00  0.00    +0.061 S 
ATOM     21  O   UNL     1      -5.093  -3.211   3.831  0.00  0.00    -0.153 OA
ATOM     22  O   UNL     1      -4.127  -1.004   3.199  0.00  0.00    -0.153 OA
BRANCH  20  23
ATOM     23  N   UNL     1      -5.129  -2.465   1.476  0.00  0.00    -0.172 NA
ATOM     24  C   UNL     1      -4.987  -1.388   0.483  0.00  0.00    +0.137 C 
ATOM     25  C   UNL     1      -4.602  -2.017  -0.861  0.00  0.00    +0.177 C 
ATOM     26  O   UNL     1      -5.532  -3.054  -1.179  0.00  0.00    -0.377 OA
ATOM     27  C   UNL     1      -5.542  -4.138  -0.247  0.00  0.00    +0.177 C 
ATOM     28  C   UNL     1      -5.970  -3.621   1.126  0.00  0.00    +0.137 C 
ENDBRANCH  20  23
ENDBRANCH  17  20
ENDBRANCH  12  14
BRANCH   1  29
ATOM     29  C   UNL     1       2.054  -2.837   2.961  0.00  0.00    +0.097 C 
BRANCH  29  30
ATOM     30  C   UNL     1       2.306  -1.880   1.793  0.00  0.00    -0.059 C 
BRANCH  30  31
ATOM     31  N   UNL     1       2.083  -0.497   2.237  0.00  0.00    +0.380 N 
ATOM     32  H   UNL     1       1.154  -0.412   2.620  0.00  0.00    -0.082 HD
BRANCH  31  34
ATOM     33  C   UNL     1       2.763   1.245   3.818  0.00  0.00    -0.017 C 
ATOM     34  C   UNL     1       3.071  -0.149   3.267  0.00  0.00    -0.082 C 
ENDBRANCH  31  34
BRANCH  31  35
ATOM     35  C   UNL     1       2.227   0.413   1.093  0.00  0.00    -0.082 C 
ATOM     36  C   UNL     1       1.093   0.164   0.097  0.00  0.00    -0.017 C 
ENDBRANCH  31  35
ENDBRANCH  30  31
ENDBRANCH  29  30
ENDBRANCH   1  29
TORSDOF 8
