REMARK  Name = ZINC46587989
REMARK  5 active torsions:
REMARK  status: ('A' for Active; 'I' for Inactive)
REMARK    1  A    between atoms: C_1  and  C_2
REMARK    2  A    between atoms: C_9  and  C_12
REMARK    3  A    between atoms: N_14  and  C_15
REMARK    4  A    between atoms: C_18  and  N_22
REMARK    5  A    between atoms: C_20  and  C_21
REMARK                            x       y       z     vdW  Elec       q    Type
REMARK                         _______ _______ _______ _____ _____    ______ ____
ROOT
ATOM      1  C   UNL     1      -1.753  -5.622   1.264  0.00  0.00    +0.231 C 
ATOM      2  O   UNL     1      -2.370  -5.620   0.219  0.00  0.00    -0.274 OA
ATOM      3  N   UNL     1      -2.391  -5.886   2.422  0.00  0.00    -0.284 N 
ATOM      4  H   UNL     1      -1.885  -5.967   3.246  0.00  0.00    +0.155 HD
ENDROOT
BRANCH   1  13
ATOM      5  C   UNL     1       0.348  -0.574  -3.085  0.00  0.00    +0.044 C 
ATOM      6  C   UNL     1       0.341  -1.887  -2.346  0.00  0.00    -0.049 A 
ATOM      7  C   UNL     1       0.450  -3.081  -3.036  0.00  0.00    +0.004 A 
ATOM      8  C   UNL     1       0.453  -4.285  -2.368  0.00  0.00    +0.005 A 
ATOM      9  C   UNL     1       0.343  -4.339  -0.976  0.00  0.00    -0.032 A 
ATOM     10  C   UNL     1       0.218  -3.127  -0.302  0.00  0.00    +0.012 A 
ATOM     11  C   UNL     1       0.230  -1.916  -0.968  0.00  0.00    +0.018 A 
ATOM     12  S   UNL     1       0.050  -3.523   1.424  0.00  0.00    -0.112 S 
ATOM     13  C   UNL     1      -0.275  -5.327   1.267  0.00  0.00    +0.142 C 
ATOM     14  C   UNL     1       0.354  -5.582  -0.121  0.00  0.00    +0.060 C 
ENDBRANCH   1  13
BRANCH   3  15
ATOM     15  C   UNL     1      -3.783  -6.044   2.435  0.00  0.00    +0.036 A 
ATOM     16  C   UNL     1      -4.559  -5.451   1.447  0.00  0.00    +0.025 A 
ATOM     17  C   UNL     1      -5.930  -5.607   1.460  0.00  0.00    +0.025 A 
ATOM     18  C   UNL     1      -6.535  -6.357   2.461  0.00  0.00    +0.030 A 
ATOM     19  C   UNL     1      -5.759  -6.951   3.448  0.00  0.00    +0.028 A 
ATOM     20  C   UNL     1      -4.386  -6.799   3.432  0.00  0.00    -0.028 A 
ATOM     21  C   UNL     1      -3.544  -7.447   4.500  0.00  0.00    +0.046 C 
BRANCH  18  22
ATOM     22  N   UNL     1      -7.925  -6.515   2.474  0.00  0.00    -0.326 N 
ATOM     23  C   UNL     1      -8.598  -7.203   3.587  0.00  0.00    +0.133 C 
ATOM     24  C   UNL     1      -9.742  -6.312   4.084  0.00  0.00    +0.178 C 
ATOM     25  O   UNL     1     -10.566  -5.941   2.976  0.00  0.00    -0.377 OA
ATOM     26  C   UNL     1      -9.893  -5.165   1.982  0.00  0.00    +0.178 C 
ATOM     27  C   UNL     1      -8.757  -5.992   1.379  0.00  0.00    +0.133 C 
ENDBRANCH  18  22
ENDBRANCH   3  15
TORSDOF 3
