REMARK  Name = ZINC41006673
REMARK  8 active torsions:
REMARK  status: ('A' for Active; 'I' for Inactive)
REMARK    1  A    between atoms: C_1  and  C_2
REMARK    2  A    between atoms: C_2  and  O_37
REMARK    3  A    between atoms: C_6  and  C_28
REMARK    4  A    between atoms: C_8  and  C_21
REMARK    5  A    between atoms: C_10  and  C_12
REMARK    6  A    between atoms: N_14  and  C_15
REMARK    7  A    between atoms: C_24  and  O_27
REMARK    8  A    between atoms: N_30  and  C_31
REMARK                            x       y       z     vdW  Elec       q    Type
REMARK                         _______ _______ _______ _____ _____    ______ ____
ROOT
ATOM      1  C   UNL     1       1.066   1.937  -0.451  0.00  0.00    +0.042 C 
ATOM      2  C   UNL     1       0.586   0.484  -0.429  0.00  0.00    +0.082 C 
ATOM      3  C   UNL     1      -0.944   0.453  -0.347  0.00  0.00    +0.110 C 
ATOM      4  C   UNL     1      -1.388  -0.985  -0.192  0.00  0.00    +0.148 C 
ATOM      5  O   UNL     1      -2.229  -1.456  -0.920  0.00  0.00    -0.296 OA
ATOM      6  C   UNL     1      -0.751  -1.818   0.898  0.00  0.00    +0.149 C 
ATOM      7  C   UNL     1       0.772  -1.705   0.771  0.00  0.00    +0.053 C 
ATOM      8  C   UNL     1       1.175  -0.229   0.790  0.00  0.00    +0.115 C 
ENDROOT
BRANCH   7   9
ATOM      9  C   UNL     1       1.427  -2.419   1.925  0.00  0.00    -0.042 A 
ATOM     10  C   UNL     1       0.867  -2.350   3.188  0.00  0.00    +0.007 A 
ATOM     11  C   UNL     1       1.466  -3.003   4.247  0.00  0.00    +0.045 A 
ATOM     12  C   UNL     1       2.630  -3.730   4.044  0.00  0.00    +0.117 A 
ATOM     13  C   UNL     1       3.190  -3.798   2.776  0.00  0.00    +0.045 A 
ATOM     14  C   UNL     1       2.584  -3.147   1.719  0.00  0.00    +0.007 A 
BRANCH  12  15
ATOM     15  O   UNL     1       3.221  -4.374   5.085  0.00  0.00    -0.507 OA
ATOM     16  H   UNL     1       2.912  -5.281   5.213  0.00  0.00    +0.292 HD
ENDBRANCH  12  15
ENDBRANCH   7   9
BRANCH   8  17
ATOM     17  C   UNL     1       0.654   0.416   2.048  0.00  0.00    +0.224 C 
ATOM     18  O   UNL     1      -0.541   0.513   2.230  0.00  0.00    -0.275 OA
ATOM     19  N   UNL     1       1.517   0.887   2.971  0.00  0.00    -0.285 N 
ATOM     20  H   UNL     1       2.467   0.717   2.877  0.00  0.00    +0.155 HD
BRANCH  19  21
ATOM     21  C   UNL     1       1.041   1.619   4.064  0.00  0.00    +0.033 A 
ATOM     22  C   UNL     1      -0.246   1.405   4.539  0.00  0.00    +0.023 A 
ATOM     23  C   UNL     1      -0.712   2.130   5.618  0.00  0.00    +0.002 A 
ATOM     24  C   UNL     1       0.101   3.069   6.225  0.00  0.00    +0.000 A 
ATOM     25  C   UNL     1       1.383   3.285   5.754  0.00  0.00    +0.002 A 
ATOM     26  C   UNL     1       1.857   2.559   4.679  0.00  0.00    +0.023 A 
ENDBRANCH  19  21
ENDBRANCH   8  17
BRANCH   6  27
ATOM     27  C   UNL     1      -1.169  -3.258   0.744  0.00  0.00    +0.228 C 
ATOM     28  O   UNL     1      -0.332  -4.117   0.567  0.00  0.00    -0.275 OA
ATOM     29  N   UNL     1      -2.474  -3.591   0.804  0.00  0.00    -0.285 N 
ATOM     30  H   UNL     1      -3.151  -2.896   0.831  0.00  0.00    +0.155 HD
BRANCH  29  31
ATOM     31  C   UNL     1      -2.853  -4.937   0.825  0.00  0.00    +0.033 A 
ATOM     32  C   UNL     1      -4.057  -5.331   0.257  0.00  0.00    +0.023 A 
ATOM     33  C   UNL     1      -4.428  -6.661   0.280  0.00  0.00    +0.002 A 
ATOM     34  C   UNL     1      -3.601  -7.601   0.868  0.00  0.00    +0.000 A 
ATOM     35  C   UNL     1      -2.401  -7.212   1.435  0.00  0.00    +0.002 A 
ATOM     36  C   UNL     1      -2.022  -5.884   1.410  0.00  0.00    +0.023 A 
ENDBRANCH  29  31
ENDBRANCH   6  27
BRANCH   2  37
ATOM     37  O   UNL     1       1.014  -0.177  -1.621  0.00  0.00    -0.388 OA
ATOM     38  H   UNL     1       0.677   0.222  -2.435  0.00  0.00    +0.210 HD
ENDBRANCH   2  37
TORSDOF 7
