REMARK  Name = ZINC21612873
REMARK  9 active torsions:
REMARK  status: ('A' for Active; 'I' for Inactive)
REMARK    1  A    between atoms: C_1  and  C_2
REMARK    2  A    between atoms: C_4  and  C_31
REMARK    3  A    between atoms: C_5  and  C_9
REMARK    4  A    between atoms: C_7  and  C_8
REMARK    5  A    between atoms: C_11  and  N_20
REMARK    6  A    between atoms: N_12  and  C_14
REMARK    7  A    between atoms: C_21  and  C_23
REMARK    8  A    between atoms: C_23  and  S_24
REMARK    9  A    between atoms: S_24  and  C_25
REMARK                            x       y       z     vdW  Elec       q    Type
REMARK                         _______ _______ _______ _____ _____    ______ ____
ROOT
ATOM      1  C   UNL     1       2.104   0.758  -0.014  0.00  0.00    +0.095 A 
ATOM      2  C   UNL     1       1.302  -0.399  -0.013  0.00  0.00    +0.074 A 
ATOM      3  C   UNL     1       0.002  -0.004   0.002  0.00  0.00    +0.129 A 
ATOM      4  N   UNL     1      -0.016   1.358   0.009  0.00  0.00    -0.218 N 
ATOM      5  N   UNL     1       1.310   1.808  -0.001  0.00  0.00    -0.165 NA
ENDROOT
BRANCH   1  10
ATOM      6  C   UNL     1       7.862   0.878  -0.068  0.00  0.00    +0.044 C 
ATOM      7  C   UNL     1       6.355   0.847  -0.054  0.00  0.00    -0.047 A 
ATOM      8  C   UNL     1       5.641   2.032  -0.041  0.00  0.00    +0.007 A 
ATOM      9  C   UNL     1       4.261   2.009  -0.028  0.00  0.00    -0.041 A 
ATOM     10  C   UNL     1       3.587   0.789  -0.028  0.00  0.00    +0.005 A 
ATOM     11  C   UNL     1       4.311  -0.401  -0.035  0.00  0.00    +0.014 A 
ATOM     12  C   UNL     1       5.691  -0.367  -0.054  0.00  0.00    -0.047 A 
ATOM     13  C   UNL     1       6.476  -1.653  -0.069  0.00  0.00    +0.044 C 
ATOM     14  C   UNL     1       3.485   3.300  -0.013  0.00  0.00    +0.044 C 
ENDBRANCH   1  10
BRANCH   4  15
ATOM     15  C   UNL     1      -1.161   2.166   0.019  0.00  0.00    +0.067 A 
ATOM     16  C   UNL     1      -2.298   1.769  -0.671  0.00  0.00    +0.028 A 
ATOM     17  C   UNL     1      -3.427   2.565  -0.654  0.00  0.00    +0.002 A 
ATOM     18  C   UNL     1      -3.421   3.761   0.039  0.00  0.00    +0.000 A 
ATOM     19  C   UNL     1      -2.288   4.162   0.723  0.00  0.00    +0.002 A 
ATOM     20  C   UNL     1      -1.158   3.367   0.715  0.00  0.00    +0.028 A 
ENDBRANCH   4  15
BRANCH   3  21
ATOM     21  N   UNL     1      -1.113  -0.842   0.007  0.00  0.00    -0.270 N 
ATOM     22  C   UNL     1      -0.950  -2.180  -0.001  0.00  0.00    +0.229 C 
ATOM     23  O   UNL     1       0.166  -2.655  -0.014  0.00  0.00    -0.275 OA
ATOM     24  H   UNL     1      -2.124  -0.411   0.019  0.00  0.00    +0.156 HD
BRANCH  22  25
ATOM     25  C   UNL     1      -2.154  -3.086   0.005  0.00  0.00    +0.172 C 
BRANCH  25  26
ATOM     26  S   UNL     1      -1.610  -4.816  -0.009  0.00  0.00    -0.088 S 
BRANCH  26  27
ATOM     27  C   UNL     1      -3.112  -5.736  -0.001  0.00  0.00    +0.160 A 
ATOM     28  N   UNL     1      -4.358  -5.302   0.012  0.00  0.00    -0.133 NA
ATOM     29  N   UNL     1      -5.397  -6.204   0.016  0.00  0.00    -0.125 NA
ATOM     30  C   UNL     1      -5.143  -7.498   0.006  0.00  0.00    +0.180 A 
ATOM     31  S   UNL     1      -3.357  -7.505  -0.016  0.00  0.00    -0.025 S 
ATOM     32  N   UNL     1      -6.028  -8.569   0.008  0.00  0.00    -0.336 N 
ATOM     33  H   UNL     1      -5.644  -9.600  -0.001  0.00  0.00    +0.144 HD
ATOM     34  H   UNL     1      -7.113  -8.386   0.018  0.00  0.00    +0.144 HD
ENDBRANCH  26  27
ENDBRANCH  25  26
ENDBRANCH  22  25
ENDBRANCH   3  21
TORSDOF 6
