REMARK  Name = ZINC40684012
REMARK  10 active torsions:
REMARK  status: ('A' for Active; 'I' for Inactive)
REMARK    1  A    between atoms: C_1  and  O_2
REMARK    2  A    between atoms: O_2  and  C_3
REMARK    3  A    between atoms: C_6  and  C_11
REMARK    4  A    between atoms: C_8  and  O_9
REMARK    5  A    between atoms: O_9  and  C_10
REMARK    6  A    between atoms: C_11  and  C_12
REMARK    7  A    between atoms: C_12  and  N_13
REMARK    8  A    between atoms: C_15  and  N_29
REMARK    9  A    between atoms: C_16  and  N_20
REMARK   10  A    between atoms: N_20  and  C_21
REMARK                            x       y       z     vdW  Elec       q    Type
REMARK                         _______ _______ _______ _____ _____    ______ ____
ROOT
ATOM      1  N   UNL     1      -6.364  -4.519  -1.438  0.00  0.00    -0.327 N 
ATOM      2  C   UNL     1      -7.079  -4.602  -2.626  0.00  0.00    +0.145 A 
ATOM      3  C   UNL     1      -8.420  -4.993  -2.620  0.00  0.00    +0.105 A 
ATOM      4  C   UNL     1      -9.092  -5.059  -3.842  0.00  0.00    +0.149 A 
ATOM      5  N   UNL     1      -8.434  -4.750  -4.957  0.00  0.00    -0.219 NA
ATOM      6  C   UNL     1      -7.169  -4.387  -4.918  0.00  0.00    +0.225 A 
ATOM      7  N   UNL     1      -6.499  -4.306  -3.786  0.00  0.00    -0.219 NA
ATOM      8  H   UNL     1      -6.794  -4.737  -0.596  0.00  0.00    +0.148 HD
ENDROOT
BRANCH   3   9
ATOM      9  N   UNL     1      -9.074  -5.310  -1.419  0.00  0.00    -0.353 N 
ATOM     10  H   UNL     1      -8.594  -5.260  -0.577  0.00  0.00    +0.143 HD
ATOM     11  H   UNL     1     -10.006  -5.580  -1.430  0.00  0.00    +0.143 HD
ENDBRANCH   3   9
BRANCH   4  12
ATOM     12  N   UNL     1     -10.428  -5.443  -3.893  0.00  0.00    -0.296 N 
ATOM     13  H   UNL     1     -10.927  -5.571  -3.071  0.00  0.00    +0.154 HD
BRANCH  12  14
ATOM     14  C   UNL     1     -11.051  -5.644  -5.129  0.00  0.00    +0.071 A 
ATOM     15  C   UNL     1     -10.288  -5.911  -6.257  0.00  0.00    +0.064 A 
ATOM     16  C   UNL     1     -10.907  -6.109  -7.478  0.00  0.00    +0.125 A 
ATOM     17  C   UNL     1     -12.287  -6.042  -7.575  0.00  0.00    +0.041 A 
ATOM     18  C   UNL     1     -13.050  -5.776  -6.453  0.00  0.00    +0.043 A 
ATOM     19  C   UNL     1     -12.437  -5.582  -5.229  0.00  0.00    +0.145 A 
ATOM     20  F   UNL     1     -13.183  -5.328  -4.131  0.00  0.00    -0.204 F 
ATOM     21  F   UNL     1     -10.165  -6.369  -8.577  0.00  0.00    -0.205 F 
ENDBRANCH  12  14
ENDBRANCH   4  12
BRANCH   1  22
ATOM     22  C   UNL     1      -4.959  -4.102  -1.456  0.00  0.00    +0.107 C 
BRANCH  22  23
ATOM     23  C   UNL     1      -4.411  -4.094  -0.027  0.00  0.00    +0.054 C 
BRANCH  23  27
ATOM     24  C   UNL     1      -0.313  -2.872  -0.080  0.00  0.00    +0.161 A 
ATOM     25  C   UNL     1      -1.319  -1.928   0.052  0.00  0.00    +0.049 A 
ATOM     26  C   UNL     1      -2.643  -2.326   0.068  0.00  0.00    +0.007 A 
ATOM     27  C   UNL     1      -2.966  -3.665  -0.046  0.00  0.00    -0.042 A 
ATOM     28  C   UNL     1      -1.968  -4.612  -0.178  0.00  0.00    +0.053 A 
ATOM     29  C   UNL     1      -0.639  -4.219  -0.201  0.00  0.00    +0.162 A 
BRANCH  24  31
ATOM     30  C   UNL     1       1.249  -1.082   0.033  0.00  0.00    +0.277 C 
ATOM     31  O   UNL     1       0.989  -2.481  -0.097  0.00  0.00    -0.491 OA
ENDBRANCH  24  31
BRANCH  29  32
ATOM     32  O   UNL     1       0.344  -5.149  -0.336  0.00  0.00    -0.491 OA
ATOM     33  C   UNL     1      -0.064  -6.513  -0.455  0.00  0.00    +0.277 C 
ENDBRANCH  29  32
ENDBRANCH  23  27
ENDBRANCH  22  23
ENDBRANCH   1  22
TORSDOF 8
