REMARK  Name = ZINC42062749
REMARK  2 active torsions:
REMARK  status: ('A' for Active; 'I' for Inactive)
REMARK    1  A    between atoms: C_1  and  N_2
REMARK    2  A    between atoms: N_2  and  C_3
REMARK                            x       y       z     vdW  Elec       q    Type
REMARK                         _______ _______ _______ _____ _____    ______ ____
ROOT
ATOM      1  C   UNL     1       0.683  -0.515  -1.195  0.00  0.00    +0.174 C 
ATOM      2  C   UNL     1       0.233  -1.925  -1.500  0.00  0.00    +0.021 A 
ATOM      3  C   UNL     1      -0.995  -2.469  -1.812  0.00  0.00    +0.048 A 
ATOM      4  C   UNL     1      -1.108  -3.829  -2.046  0.00  0.00    +0.023 A 
ATOM      5  C   UNL     1       0.012  -4.637  -1.966  0.00  0.00    +0.042 A 
ATOM      6  C   UNL     1       1.243  -4.094  -1.655  0.00  0.00    +0.145 A 
ATOM      7  C   UNL     1       1.364  -2.724  -1.417  0.00  0.00    +0.076 A 
ATOM      8  N   UNL     1       2.479  -1.949  -1.089  0.00  0.00    -0.281 N 
ATOM      9  C   UNL     1       2.171  -0.647  -0.943  0.00  0.00    +0.239 C 
ATOM     10  O   UNL     1       2.936   0.251  -0.663  0.00  0.00    -0.273 OA
ATOM     11  F   UNL     1       2.332  -4.890  -1.580  0.00  0.00    -0.204 F 
ATOM     12 CL   UNL     1      -2.397  -1.451  -1.910  0.00  0.00    -0.083 Cl
ATOM     13  H   UNL     1       3.374  -2.308  -0.980  0.00  0.00    +0.155 HD
ENDROOT
BRANCH   1  15
ATOM     14  C   UNL     1      -0.018   1.465   0.010  0.00  0.00    +0.102 C 
ATOM     15  N   UNL     1       0.002  -0.004   0.002  0.00  0.00    -0.305 NA
ATOM     16  H   UNL     1       0.429  -0.364   0.842  0.00  0.00    +0.123 HD
ENDBRANCH   1  15
TORSDOF 1
