REMARK  Name = ZINC46729284
REMARK  3 active torsions:
REMARK  status: ('A' for Active; 'I' for Inactive)
REMARK    1  A    between atoms: C_6  and  N_7
REMARK    2  A    between atoms: C_8  and  C_10
REMARK    3  A    between atoms: C_10  and  C_11
REMARK                            x       y       z     vdW  Elec       q    Type
REMARK                         _______ _______ _______ _____ _____    ______ ____
ROOT
ATOM      1  N   UNL     1      -1.199  -0.722   0.010  0.00  0.00    -0.285 N 
ATOM      2  C   UNL     1      -1.183  -2.065  -0.100  0.00  0.00    +0.219 C 
ATOM      3  O   UNL     1      -0.126  -2.659  -0.113  0.00  0.00    -0.275 OA
ATOM      4  H   UNL     1      -2.044  -0.253   0.097  0.00  0.00    +0.155 HD
ENDROOT
BRANCH   1  10
ATOM      5  C   UNL     1       1.072  -0.453  -0.766  0.00  0.00    +0.024 A 
ATOM      6  C   UNL     1       2.256   0.258  -0.777  0.00  0.00    +0.016 A 
ATOM      7  C   UNL     1       2.377   1.416  -0.030  0.00  0.00    +0.013 A 
ATOM      8  C   UNL     1       1.312   1.866   0.730  0.00  0.00    +0.016 A 
ATOM      9  C   UNL     1       0.126   1.159   0.745  0.00  0.00    +0.024 A 
ATOM     10  C   UNL     1       0.002  -0.004  -0.004  0.00  0.00    +0.033 A 
ATOM     11  I   UNL     1       4.175   2.490  -0.050  0.00  0.00    -0.044 I 
ENDBRANCH   1  10
BRANCH   2  12
ATOM     12  C   UNL     1      -2.478  -2.828  -0.205  0.00  0.00    +0.128 C 
BRANCH  12  13
ATOM     13  C   UNL     1      -2.180  -4.325  -0.317  0.00  0.00    +0.169 C 
ATOM     14  C   UNL     1      -3.466  -5.115  -0.461  0.00  0.00    +0.241 C 
ATOM     15  O   UNL     1      -4.280  -5.032  -1.355  0.00  0.00    -0.273 OA
ATOM     16  N   UNL     1      -3.514  -5.929   0.612  0.00  0.00    -0.239 N 
ATOM     17  C   UNL     1      -2.450  -5.765   1.405  0.00  0.00    +0.307 C 
ATOM     18  O   UNL     1      -2.271  -6.388   2.433  0.00  0.00    -0.252 OA
ATOM     19  N   UNL     1      -1.596  -4.832   0.936  0.00  0.00    -0.287 N 
ATOM     20  H   UNL     1      -4.233  -6.557   0.788  0.00  0.00    +0.159 HD
ATOM     21  H   UNL     1      -0.761  -4.550   1.343  0.00  0.00    +0.151 HD
ENDBRANCH  12  13
ENDBRANCH   2  12
TORSDOF 3
