REMARK  Name = ZINC48227750
REMARK  8 active torsions:
REMARK  status: ('A' for Active; 'I' for Inactive)
REMARK    1  A    between atoms: C_1  and  C_2
REMARK    2  A    between atoms: C_2  and  C_4
REMARK    3  A    between atoms: C_2  and  S_16
REMARK    4  A    between atoms: N_6  and  C_7
REMARK    5  A    between atoms: C_10  and  N_14
REMARK    6  A    between atoms: S_16  and  C_17
REMARK    7  A    between atoms: C_20  and  N_23
REMARK    8  A    between atoms: C_24  and  C_26
REMARK                            x       y       z     vdW  Elec       q    Type
REMARK                         _______ _______ _______ _____ _____    ______ ____
ROOT
ATOM      1  C   UNL     1       0.718  -0.839   0.985  0.00  0.00    +0.230 C 
ATOM      2  O   UNL     1       1.838  -1.247   0.758  0.00  0.00    -0.274 OA
ATOM      3  N   UNL     1       0.234  -0.863   2.243  0.00  0.00    -0.285 N 
ATOM      4  H   UNL     1      -0.686  -0.607   2.413  0.00  0.00    +0.155 HD
ENDROOT
BRANCH   3   5
ATOM      5  C   UNL     1       1.060  -1.259   3.304  0.00  0.00    +0.036 A 
ATOM      6  C   UNL     1       0.521  -1.945   4.384  0.00  0.00    +0.045 A 
ATOM      7  C   UNL     1       1.334  -2.335   5.430  0.00  0.00    +0.065 A 
ATOM      8  C   UNL     1       2.692  -2.042   5.401  0.00  0.00    +0.062 A 
ATOM      9  C   UNL     1       3.231  -1.356   4.320  0.00  0.00    +0.065 A 
ATOM     10  C   UNL     1       2.417  -0.971   3.271  0.00  0.00    +0.045 A 
ATOM     11 CL   UNL     1       4.927  -0.989   4.283  0.00  0.00    -0.082 Cl
ATOM     12 CL   UNL     1       0.660  -3.192   6.781  0.00  0.00    -0.082 Cl
BRANCH   8  13
ATOM     13  N   UNL     1       3.517  -2.437   6.462  0.00  0.00    -0.356 N 
ATOM     14  H   UNL     1       3.140  -2.916   7.216  0.00  0.00    +0.142 HD
ATOM     15  H   UNL     1       4.465  -2.233   6.441  0.00  0.00    +0.142 HD
ENDBRANCH   8  13
ENDBRANCH   3   5
BRANCH   1  17
ATOM     16  C   UNL     1       0.014   1.217  -0.210  0.00  0.00    +0.029 C 
ATOM     17  C   UNL     1      -0.132  -0.304  -0.139  0.00  0.00    +0.134 C 
BRANCH  17  18
ATOM     18  S   UNL     1       0.410  -1.037  -1.708  0.00  0.00    -0.113 S 
BRANCH  18  19
ATOM     19  C   UNL     1      -0.051  -2.732  -1.568  0.00  0.00    +0.009 A 
ATOM     20  C   UNL     1      -0.798  -3.162  -0.478  0.00  0.00    +0.016 A 
ATOM     21  C   UNL     1      -1.159  -4.489  -0.369  0.00  0.00    +0.024 A 
ATOM     22  C   UNL     1      -0.775  -5.396  -1.348  0.00  0.00    +0.033 A 
ATOM     23  C   UNL     1      -0.028  -4.968  -2.438  0.00  0.00    +0.024 A 
ATOM     24  C   UNL     1       0.328  -3.639  -2.550  0.00  0.00    +0.016 A 
BRANCH  22  25
ATOM     25  N   UNL     1      -1.142  -6.744  -1.237  0.00  0.00    -0.286 N 
ATOM     26  C   UNL     1      -2.314  -7.079  -0.662  0.00  0.00    +0.214 C 
ATOM     27  O   UNL     1      -3.095  -6.213  -0.328  0.00  0.00    -0.276 OA
ATOM     28  C   UNL     1      -2.654  -8.529  -0.433  0.00  0.00    +0.109 C 
ATOM     29  H   UNL     1      -0.552  -7.437  -1.574  0.00  0.00    +0.155 HD
ENDBRANCH  22  25
ENDBRANCH  18  19
ENDBRANCH  17  18
ENDBRANCH   1  17
TORSDOF 6
