REMARK  Name = ZINC07488887
REMARK  3 active torsions:
REMARK  status: ('A' for Active; 'I' for Inactive)
REMARK    1  A    between atoms: C_3  and  C_23
REMARK    2  A    between atoms: C_6  and  C_7
REMARK    3  A    between atoms: C_8  and  C_9
REMARK                            x       y       z     vdW  Elec       q    Type
REMARK                         _______ _______ _______ _____ _____    ______ ____
ROOT
ATOM      1  C   UNL     1      -2.513  -2.844  -0.201  0.00  0.00    +0.176 A 
ATOM      2  N   UNL     1      -3.666  -2.177  -0.190  0.00  0.00    -0.188 NA
ATOM      3  C   UNL     1      -4.831  -2.790  -0.278  0.00  0.00    +0.282 A 
ATOM      4  O   UNL     1      -5.983  -2.079  -0.264  0.00  0.00    -0.265 OA
ATOM      5  C   UNL     1      -4.861  -4.208  -0.389  0.00  0.00    +0.077 A 
ATOM      6  C   UNL     1      -6.034  -5.089  -0.498  0.00  0.00    -0.023 A 
ATOM      7  C   UNL     1      -5.796  -6.408  -0.591  0.00  0.00    -0.004 A 
ATOM      8  S   UNL     1      -4.026  -6.565  -0.545  0.00  0.00    -0.073 S 
ATOM      9  C   UNL     1      -3.607  -4.850  -0.395  0.00  0.00    +0.116 A 
ATOM     10  N   UNL     1      -2.483  -4.169  -0.308  0.00  0.00    -0.219 NA
ATOM     11  C   UNL     1      -7.067  -7.208  -0.692  0.00  0.00    +0.043 C 
ATOM     12  C   UNL     1      -8.173  -6.241  -0.216  0.00  0.00    +0.010 C 
ATOM     13  C   UNL     1      -7.549  -4.869  -0.537  0.00  0.00    +0.037 C 
ENDROOT
BRANCH   1  15
ATOM     14  C   UNL     1      -1.262  -0.757   0.011  0.00  0.00    +0.031 C 
ATOM     15  C   UNL     1      -1.247  -2.099  -0.098  0.00  0.00    +0.086 C 
ATOM     16 CL   UNL     1       0.266  -2.951  -0.118  0.00  0.00    -0.080 Cl
BRANCH  14  22
ATOM     17  C   UNL     1       1.052  -0.456  -0.849  0.00  0.00    +0.009 A 
ATOM     18  C   UNL     1       2.221   0.247  -0.904  0.00  0.00    +0.019 A 
ATOM     19  C   UNL     1       2.366   1.423  -0.161  0.00  0.00    +0.052 A 
ATOM     20  C   UNL     1       1.313   1.880   0.639  0.00  0.00    +0.019 A 
ATOM     21  C   UNL     1       0.143   1.177   0.695  0.00  0.00    +0.009 A 
ATOM     22  C   UNL     1      -0.002   0.000  -0.049  0.00  0.00    -0.023 A 
BRANCH  19  23
ATOM     23  C   UNL     1       3.592   2.161  -0.219  0.00  0.00    +0.099 C 
ATOM     24  N   UNL     1       4.565   2.746  -0.265  0.00  0.00    -0.191 NA
ENDBRANCH  19  23
ENDBRANCH  14  22
ENDBRANCH   1  15
TORSDOF 3
