REMARK  Name = ZINC08416017
REMARK  15 active torsions:
REMARK  status: ('A' for Active; 'I' for Inactive)
REMARK    1  A    between atoms: C_1  and  C_2
REMARK    2  A    between atoms: C_2  and  O_3
REMARK    3  A    between atoms: O_3  and  C_4
REMARK    4  A    between atoms: C_4  and  C_6
REMARK    5  A    between atoms: C_8  and  C_34
REMARK    6  A    between atoms: C_15  and  C_26
REMARK    7  A    between atoms: C_17  and  C_21
REMARK    8  A    between atoms: C_18  and  C_20
REMARK    9  A    between atoms: C_21  and  O_23
REMARK   10  A    between atoms: O_23  and  C_24
REMARK   11  A    between atoms: C_24  and  C_25
REMARK   12  A    between atoms: C_30  and  O_32
REMARK   13  A    between atoms: O_32  and  C_33
REMARK   14  A    between atoms: C_39  and  O_40
REMARK   15  A    between atoms: O_40  and  C_41
REMARK                            x       y       z     vdW  Elec       q    Type
REMARK                         _______ _______ _______ _____ _____    ______ ____
ROOT
ATOM      1  C   UNL     1      -6.798   4.633   2.492  0.00  0.00    +0.176 C 
ATOM      2  C   UNL     1      -7.872   3.779   1.812  0.00  0.00    +0.049 C 
ATOM      3  C   UNL     1      -8.443   2.803   2.844  0.00  0.00    +0.060 C 
ATOM      4  C   UNL     1      -7.333   1.948   3.402  0.00  0.00    +0.016 C 
ATOM      5  C   UNL     1      -6.073   2.422   3.500  0.00  0.00    +0.025 C 
ATOM      6  C   UNL     1      -5.752   3.725   3.081  0.00  0.00    +0.176 C 
ATOM      7  O   UNL     1      -4.611   4.125   3.196  0.00  0.00    -0.291 OA
ATOM      8  C   UNL     1      -4.969   1.562   4.063  0.00  0.00    +0.092 C 
ATOM      9  C   UNL     1      -5.528   0.402   4.833  0.00  0.00    +0.065 C 
ATOM     10  C   UNL     1      -6.806   0.013   4.676  0.00  0.00    +0.016 C 
ATOM     11  N   UNL     1      -7.631   0.676   3.812  0.00  0.00    -0.321 N 
ATOM     12  C   UNL     1      -7.331  -1.163   5.460  0.00  0.00    +0.061 C 
ATOM     13  H   UNL     1      -8.542   0.180   3.447  0.00  0.00    +0.152 HD
ENDROOT
BRANCH   8  14
ATOM     14  C   UNL     1      -4.120   1.042   2.931  0.00  0.00    -0.032 A 
ATOM     15  C   UNL     1      -4.683   0.232   1.962  0.00  0.00    +0.005 A 
ATOM     16  C   UNL     1      -3.908  -0.246   0.922  0.00  0.00    +0.004 A 
ATOM     17  C   UNL     1      -2.569   0.089   0.846  0.00  0.00    +0.045 A 
ATOM     18  C   UNL     1      -2.001   0.896   1.821  0.00  0.00    +0.120 A 
ATOM     19  C   UNL     1      -2.782   1.375   2.863  0.00  0.00    +0.050 A 
BRANCH  18  20
ATOM     20  O   UNL     1      -0.684   1.222   1.751  0.00  0.00    -0.495 OA
ATOM     21  C   UNL     1       0.058   0.693   0.651  0.00  0.00    +0.277 C 
ENDBRANCH  18  20
ENDBRANCH   8  14
BRANCH   2  22
ATOM     22  C   UNL     1      -8.973   4.665   1.289  0.00  0.00    -0.001 A 
ATOM     23  C   UNL     1     -10.293   4.362   1.563  0.00  0.00    +0.007 A 
ATOM     24  C   UNL     1     -11.304   5.176   1.085  0.00  0.00    +0.001 A 
ATOM     25  C   UNL     1     -10.997   6.293   0.331  0.00  0.00    +0.004 A 
ATOM     26  C   UNL     1      -9.679   6.599   0.053  0.00  0.00    +0.046 A 
ATOM     27  C   UNL     1      -8.662   5.788   0.537  0.00  0.00    +0.124 A 
BRANCH  27  28
ATOM     28  O   UNL     1      -7.365   6.091   0.270  0.00  0.00    -0.495 OA
ATOM     29  C   UNL     1      -7.119   7.262  -0.510  0.00  0.00    +0.277 C 
ENDBRANCH  27  28
ENDBRANCH   2  22
BRANCH   1  30
ATOM     30  C   UNL     1      -7.426   5.455   3.587  0.00  0.00    +0.318 C 
ATOM     31  O   UNL     1      -8.623   5.428   3.753  0.00  0.00    -0.250 OA
BRANCH  30  32
ATOM     32  O   UNL     1      -6.656   6.219   4.379  0.00  0.00    -0.464 OA
BRANCH  32  34
ATOM     33  C   UNL     1      -6.297   7.786   6.208  0.00  0.00    +0.048 C 
ATOM     34  C   UNL     1      -7.329   6.984   5.413  0.00  0.00    +0.229 C 
ENDBRANCH  32  34
ENDBRANCH  30  32
ENDBRANCH   1  30
BRANCH   9  35
ATOM     35  C   UNL     1      -4.696  -0.295   5.739  0.00  0.00    +0.338 C 
ATOM     36  O   UNL     1      -5.164  -1.167   6.447  0.00  0.00    -0.245 OA
BRANCH  35  37
ATOM     37  O   UNL     1      -3.383   0.006   5.818  0.00  0.00    -0.462 OA
BRANCH  37  38
ATOM     38  C   UNL     1      -2.602  -0.739   6.755  0.00  0.00    +0.229 C 
ATOM     39  C   UNL     1      -1.150  -0.260   6.703  0.00  0.00    +0.048 C 
ENDBRANCH  37  38
ENDBRANCH  35  37
ENDBRANCH   9  35
TORSDOF 10
