REMARK  Name = ZINC44559576
REMARK  7 active torsions:
REMARK  status: ('A' for Active; 'I' for Inactive)
REMARK    1  A    between atoms: C_1  and  C_2
REMARK    2  A    between atoms: C_10  and  O_32
REMARK    3  A    between atoms: N_14  and  O_15
REMARK    4  A    between atoms: O_15  and  C_16
REMARK    5  A    between atoms: C_16  and  C_17
REMARK    6  A    between atoms: C_26  and  O_31
REMARK    7  A    between atoms: C_28  and  O_30
REMARK                            x       y       z     vdW  Elec       q    Type
REMARK                         _______ _______ _______ _____ _____    ______ ____
ROOT
ATOM      1  C   UNL     1      -0.019   1.526   0.010  0.00  0.00    +0.014 C 
ATOM      2  C   UNL     1       0.002  -0.004   0.002  0.00  0.00    -0.000 C 
ATOM      3  C   UNL     1       0.751  -0.497  -1.219  0.00  0.00    +0.010 C 
ATOM      4  C   UNL     1       2.145   0.156  -1.201  0.00  0.00    +0.009 C 
ATOM      5  C   UNL     1       2.882  -0.168   0.091  0.00  0.00    +0.023 C 
ATOM      6  C   UNL     1       4.240   0.472   0.114  0.00  0.00    -0.035 A 
ATOM      7  C   UNL     1       4.917   0.668  -1.077  0.00  0.00    +0.008 A 
ATOM      8  C   UNL     1       6.171   1.247  -1.082  0.00  0.00    +0.046 A 
ATOM      9  C   UNL     1       6.768   1.639   0.109  0.00  0.00    +0.117 A 
ATOM     10  C   UNL     1       6.100   1.452   1.308  0.00  0.00    +0.055 A 
ATOM     11  C   UNL     1       4.833   0.870   1.312  0.00  0.00    +0.006 A 
ATOM     12  C   UNL     1       4.115   0.688   2.595  0.00  0.00    +0.088 C 
ATOM     13  N   UNL     1       4.554   1.223   3.687  0.00  0.00    -0.088 NA
ATOM     14  C   UNL     1       2.850  -0.147   2.586  0.00  0.00    +0.063 C 
ATOM     15  C   UNL     1       2.075   0.250   1.325  0.00  0.00    +0.006 C 
ATOM     16  C   UNL     1       0.753  -0.524   1.259  0.00  0.00    +0.004 C 
ATOM     17  C   UNL     1      -0.259  -0.220   2.369  0.00  0.00    +0.038 C 
ATOM     18  C   UNL     1      -1.613  -0.627   1.727  0.00  0.00    +0.144 C 
ATOM     19  C   UNL     1      -1.413  -0.538   0.193  0.00  0.00    +0.149 C 
ENDROOT
BRANCH  19  20
ATOM     20  O   UNL     1      -1.538  -1.832  -0.399  0.00  0.00    -0.389 OA
ATOM     21  H   UNL     1      -2.419  -2.223  -0.309  0.00  0.00    +0.210 HD
ENDBRANCH  19  20
BRANCH  18  22
ATOM     22  O   UNL     1      -2.643   0.273   2.141  0.00  0.00    -0.389 OA
ATOM     23  H   UNL     1      -2.798   0.280   3.096  0.00  0.00    +0.210 HD
ENDBRANCH  18  22
BRANCH   9  24
ATOM     24  O   UNL     1       8.004   2.204   0.098  0.00  0.00    -0.507 OA
ATOM     25  H   UNL     1       7.994   3.168   0.015  0.00  0.00    +0.292 HD
ENDBRANCH   9  24
BRANCH  13  26
ATOM     26  O   UNL     1       3.850   1.034   4.901  0.00  0.00    -0.382 OA
BRANCH  26  27
ATOM     27  C   UNL     1       4.447   1.681   6.026  0.00  0.00    +0.387 C 
BRANCH  27  28
ATOM     28  C   UNL     1       3.619   1.414   7.257  0.00  0.00    +0.395 C 
ATOM     29  O   UNL     1       2.611   0.733   7.178  0.00  0.00    -0.242 OA
ATOM     30  O   UNL     1       3.957   1.879   8.332  0.00  0.00    -0.242 OA
ENDBRANCH  27  28
ENDBRANCH  26  27
ENDBRANCH  13  26
TORSDOF 6
