REMARK  Name = ZINC13498911
REMARK  12 active torsions:
REMARK  status: ('A' for Active; 'I' for Inactive)
REMARK    1  A    between atoms: C_1  and  C_2
REMARK    2  A    between atoms: C_6  and  C_15
REMARK    3  A    between atoms: C_13  and  C_14
REMARK    4  A    between atoms: C_15  and  N_75
REMARK    5  A    between atoms: C_16  and  N_75
REMARK    6  A    between atoms: C_22  and  C_24
REMARK    7  A    between atoms: C_22  and  C_36
REMARK    8  A    between atoms: C_22  and  N_75
REMARK    9  A    between atoms: N_28  and  C_29
REMARK   10  A    between atoms: C_29  and  C_30
REMARK   11  A    between atoms: C_36  and  C_37
REMARK   12  A    between atoms: C_36  and  C_38
REMARK                            x       y       z     vdW  Elec       q    Type
REMARK                         _______ _______ _______ _____ _____    ______ ____
ROOT
ATOM      1  N   UNL     1      -4.993   4.791  -0.987  0.00  0.00    +0.391 N 
ATOM      2  H   UNL     1      -4.051   5.069  -1.287  0.00  0.00    -0.080 HD
ENDROOT
BRANCH   1   3
ATOM      3  C   UNL     1      -5.077   3.315  -0.977  0.00  0.00    -0.067 C 
ATOM      4  C   UNL     1      -5.924   2.840   0.205  0.00  0.00    -0.015 C 
ATOM      5  C   UNL     1      -5.984   1.311   0.206  0.00  0.00    -0.002 C 
ATOM      6  C   UNL     1      -4.568   0.745   0.333  0.00  0.00    -0.000 C 
ATOM      7  C   UNL     1      -3.721   1.221  -0.849  0.00  0.00    -0.002 C 
ATOM      8  C   UNL     1      -3.661   2.749  -0.851  0.00  0.00    -0.015 C 
ENDBRANCH   1   3
BRANCH   1   9
ATOM      9  C   UNL     1      -5.241   5.320   0.370  0.00  0.00    -0.036 C 
BRANCH   9  15
ATOM     10  C   UNL     1      -4.967  12.620   1.871  0.00  0.00    +0.044 C 
ATOM     11  C   UNL     1      -4.287  11.331   1.490  0.00  0.00    -0.047 A 
ATOM     12  C   UNL     1      -5.025  10.187   1.365  0.00  0.00    +0.013 A 
ATOM     13  C   UNL     1      -4.394   8.990   1.012  0.00  0.00    -0.001 A 
ATOM     14  C   UNL     1      -5.154   7.747   0.870  0.00  0.00    +0.017 A 
ATOM     15  C   UNL     1      -4.489   6.617   0.525  0.00  0.00    +0.001 A 
ATOM     16  C   UNL     1      -3.094   6.650   0.311  0.00  0.00    +0.251 A 
ATOM     17  O   UNL     1      -2.516   5.623   0.002  0.00  0.00    -0.268 OA
ATOM     18  N   UNL     1      -2.388   7.787   0.440  0.00  0.00    -0.322 N 
ATOM     19  H   UNL     1      -1.430   7.774   0.285  0.00  0.00    +0.169 HD
ATOM     20  C   UNL     1      -3.005   8.971   0.782  0.00  0.00    +0.049 A 
ATOM     21  C   UNL     1      -2.274  10.146   0.921  0.00  0.00    +0.030 A 
ATOM     22  C   UNL     1      -2.917  11.314   1.270  0.00  0.00    -0.046 A 
ATOM     23  C   UNL     1      -2.123  12.588   1.413  0.00  0.00    +0.044 C 
ENDBRANCH   9  15
ENDBRANCH   1   9
BRANCH   1  24
ATOM     24  C   UNL     1      -5.982   5.347  -1.935  0.00  0.00    +0.006 C 
BRANCH  24  25
ATOM     25  C   UNL     1      -5.501   5.094  -3.340  0.00  0.00    +0.139 A 
ATOM     26  N   UNL     1      -4.384   5.524  -3.875  0.00  0.00    -0.115 NA
ATOM     27  N   UNL     1      -4.335   5.098  -5.090  0.00  0.00    -0.023 NA
ATOM     28  N   UNL     1      -5.391   4.408  -5.344  0.00  0.00    -0.044 NA
ATOM     29  N   UNL     1      -6.132   4.377  -4.289  0.00  0.00    -0.226 N 
BRANCH  29  30
ATOM     30  C   UNL     1      -7.421   3.694  -4.150  0.00  0.00    +0.182 C 
BRANCH  30  31
ATOM     31  C   UNL     1      -8.531   4.630  -4.553  0.00  0.00    -0.026 A 
ATOM     32  C   UNL     1      -9.086   5.487  -3.621  0.00  0.00    +0.005 A 
ATOM     33  C   UNL     1     -10.101   6.348  -3.992  0.00  0.00    +0.000 A 
ATOM     34  C   UNL     1     -10.569   6.346  -5.293  0.00  0.00    +0.000 A 
ATOM     35  C   UNL     1     -10.018   5.486  -6.224  0.00  0.00    +0.000 A 
ATOM     36  C   UNL     1      -8.999   4.628  -5.854  0.00  0.00    +0.005 A 
ENDBRANCH  30  31
ENDBRANCH  29  30
ENDBRANCH  24  25
BRANCH  24  37
ATOM     37  C   UNL     1      -6.108   6.854  -1.703  0.00  0.00    -0.024 C 
ATOM     38  C   UNL     1      -4.796   7.541  -2.086  0.00  0.00    +0.006 C 
ATOM     39  C   UNL     1      -7.245   7.409  -2.563  0.00  0.00    +0.006 C 
ENDBRANCH  24  37
ENDBRANCH   1  24
TORSDOF 8
