REMARK  Name = ZINC07022745
REMARK  5 active torsions:
REMARK  status: ('A' for Active; 'I' for Inactive)
REMARK    1  A    between atoms: C_1  and  C_2
REMARK    2  A    between atoms: C_14  and  C_16
REMARK    3  A    between atoms: C_16  and  O_17
REMARK    4  A    between atoms: O_17  and  C_18
REMARK    5  A    between atoms: C_23  and  C_24
REMARK                            x       y       z     vdW  Elec       q    Type
REMARK                         _______ _______ _______ _____ _____    ______ ____
ROOT
ATOM      1  C   UNL     1       8.743   4.131  -3.548  0.00  0.00    +0.019 C 
ATOM      2  C   UNL     1       8.117   3.594  -2.259  0.00  0.00    +0.050 C 
ATOM      3  C   UNL     1       7.564   4.753  -1.446  0.00  0.00    +0.033 C 
ATOM      4  C   UNL     1       7.144   4.414  -0.040  0.00  0.00    +0.115 C 
ATOM      5  N   UNL     1       5.974   3.521  -0.034  0.00  0.00    -0.268 N 
ATOM      6  C   UNL     1       6.192   2.140  -0.037  0.00  0.00    +0.050 A 
ATOM      7  C   UNL     1       5.996   1.405   1.122  0.00  0.00    +0.024 A 
ATOM      8  C   UNL     1       6.260   0.049   1.133  0.00  0.00    +0.002 A 
ATOM      9  C   UNL     1       6.720  -0.593  -0.003  0.00  0.00    +0.001 A 
ATOM     10  C   UNL     1       6.898   0.124  -1.175  0.00  0.00    +0.016 A 
ATOM     11  C   UNL     1       6.619   1.475  -1.186  0.00  0.00    +0.030 A 
ATOM     12  S   UNL     1       6.786   2.430  -2.677  0.00  0.00    -0.120 S 
ATOM     13  C   UNL     1       4.723   4.022  -0.020  0.00  0.00    +0.257 C 
ATOM     14  O   UNL     1       4.551   5.223  -0.013  0.00  0.00    -0.272 OA
ENDROOT
BRANCH  13  15
ATOM     15  C   UNL     1       3.538   3.091  -0.014  0.00  0.00    +0.325 C 
BRANCH  15  16
ATOM     16  O   UNL     1       2.331   3.857   0.001  0.00  0.00    -0.482 OA
BRANCH  16  17
ATOM     17  C   UNL     1       1.164   3.165   0.007  0.00  0.00    +0.133 A 
ATOM     18  C   UNL     1       1.176   1.778   0.000  0.00  0.00    +0.048 A 
ATOM     19  C   UNL     1      -0.013   1.076   0.008  0.00  0.00    +0.023 A 
ATOM     20  C   UNL     1      -1.225   1.749   0.017  0.00  0.00    +0.042 A 
ATOM     21  C   UNL     1      -1.255   3.127   0.030  0.00  0.00    +0.036 A 
ATOM     22  C   UNL     1      -0.059   3.850   0.022  0.00  0.00    +0.079 A 
ATOM     23 CL   UNL     1      -2.711   0.852   0.019  0.00  0.00    -0.084 Cl
BRANCH  22  24
ATOM     24  C   UNL     1      -0.083   5.325   0.029  0.00  0.00    +0.245 C 
ATOM     25  O   UNL     1       0.960   5.950   0.022  0.00  0.00    -0.270 OA
ATOM     26  N   UNL     1      -1.261   5.979   0.044  0.00  0.00    -0.325 N 
ATOM     27  H   UNL     1      -2.093   5.480   0.049  0.00  0.00    +0.145 HD
ATOM     28  H   UNL     1      -1.277   6.949   0.049  0.00  0.00    +0.145 HD
ENDBRANCH  22  24
ENDBRANCH  16  17
ENDBRANCH  15  16
ENDBRANCH  13  15
TORSDOF 4
