REMARK  Name = ZINC15969409
REMARK  4 active torsions:
REMARK  status: ('A' for Active; 'I' for Inactive)
REMARK    1  A    between atoms: C_6  and  C_7
REMARK    2  A    between atoms: C_7  and  N_8
REMARK    3  A    between atoms: C_13  and  C_31
REMARK    4  A    between atoms: C_31  and  C_32
REMARK                            x       y       z     vdW  Elec       q    Type
REMARK                         _______ _______ _______ _____ _____    ______ ____
ROOT
ATOM      1  N   UNL     1      -1.727  -1.016  -1.368  0.00  0.00    -0.237 N 
ATOM      2  C   UNL     1      -2.510  -0.165  -2.040  0.00  0.00    +0.227 C 
ATOM      3  O   UNL     1      -2.943   0.881  -1.606  0.00  0.00    -0.275 OA
ATOM      4  C   UNL     1      -2.773  -0.711  -3.425  0.00  0.00    +0.107 C 
ATOM      5  C   UNL     1      -2.086   0.194  -4.470  0.00  0.00    +0.076 C 
ATOM      6  N   UNL     1      -0.699  -0.333  -4.577  0.00  0.00    -0.295 NA
ATOM      7  C   UNL     1      -0.861  -1.796  -4.488  0.00  0.00    +0.136 C 
ATOM      8  C   UNL     1      -1.976  -2.045  -3.442  0.00  0.00    +0.122 C 
ATOM      9  C   UNL     1      -1.366  -2.103  -2.060  0.00  0.00    +0.229 C 
ATOM     10  O   UNL     1      -0.661  -2.996  -1.642  0.00  0.00    -0.275 OA
ATOM     11  C   UNL     1      -1.217  -2.394  -5.819  0.00  0.00    +0.005 A 
ATOM     12  C   UNL     1      -2.262  -2.202  -6.696  0.00  0.00    +0.027 A 
ATOM     13  C   UNL     1      -2.317  -2.922  -7.877  0.00  0.00    +0.041 A 
ATOM     14  C   UNL     1      -1.319  -3.835  -8.174  0.00  0.00    +0.022 A 
ATOM     15  C   UNL     1      -0.271  -4.030  -7.298  0.00  0.00    +0.025 A 
ATOM     16  C   UNL     1      -0.209  -3.309  -6.108  0.00  0.00    +0.039 A 
ATOM     17  N   UNL     1       0.735  -3.329  -5.078  0.00  0.00    -0.283 N 
ATOM     18  C   UNL     1       0.425  -2.467  -4.089  0.00  0.00    +0.243 C 
ATOM     19  O   UNL     1       1.060  -2.271  -3.075  0.00  0.00    -0.273 OA
ATOM     20 CL   UNL     1      -3.633  -2.682  -8.983  0.00  0.00    -0.084 Cl
ATOM     21  H   UNL     1      -0.279  -0.069  -5.455  0.00  0.00    +0.124 HD
ATOM     22  H   UNL     1       1.521  -3.896  -5.075  0.00  0.00    +0.155 HD
ENDROOT
BRANCH   1  23
ATOM     23  C   UNL     1      -1.294  -0.774   0.010  0.00  0.00    +0.151 C 
BRANCH  23  29
ATOM     24  C   UNL     1      -0.017   1.378   0.010  0.00  0.00    +0.009 A 
ATOM     25  C   UNL     1       1.170   2.088   0.002  0.00  0.00    +0.050 A 
ATOM     26  C   UNL     1       2.380   1.416  -0.013  0.00  0.00    +0.166 A 
ATOM     27  C   UNL     1       2.399   0.023  -0.021  0.00  0.00    +0.167 A 
ATOM     28  C   UNL     1       1.207  -0.682  -0.014  0.00  0.00    +0.054 A 
ATOM     29  C   UNL     1       0.002  -0.004   0.002  0.00  0.00    -0.026 A 
ATOM     30  O   UNL     1       3.698  -0.395  -0.036  0.00  0.00    -0.453 OA
ATOM     31  C   UNL     1       4.466   0.750  -0.450  0.00  0.00    +0.466 C 
ATOM     32  O   UNL     1       3.668   1.870  -0.024  0.00  0.00    -0.453 OA
ENDBRANCH  23  29
ENDBRANCH   1  23
BRANCH   5  33
ATOM     33  C   UNL     1      -2.070   1.646  -3.988  0.00  0.00    +0.115 C 
BRANCH  33  34
ATOM     34  C   UNL     1      -1.506   2.528  -5.072  0.00  0.00    +0.212 C 
ATOM     35  O   UNL     1      -1.152   2.043  -6.126  0.00  0.00    -0.276 OA
ATOM     36  N   UNL     1      -1.395   3.856  -4.870  0.00  0.00    -0.329 N 
ATOM     37  H   UNL     1      -1.679   4.244  -4.028  0.00  0.00    +0.145 HD
ATOM     38  H   UNL     1      -1.033   4.424  -5.568  0.00  0.00    +0.145 HD
ENDBRANCH  33  34
ENDBRANCH   5  33
TORSDOF 4
