REMARK  Name = ZINC16045562
REMARK  15 active torsions:
REMARK  status: ('A' for Active; 'I' for Inactive)
REMARK    1  A    between atoms: C_1  and  C_2
REMARK    2  A    between atoms: C_2  and  C_3
REMARK    3  A    between atoms: C_2  and  C_4
REMARK    4  A    between atoms: C_2  and  C_5
REMARK    5  A    between atoms: C_7  and  C_16
REMARK    6  A    between atoms: C_9  and  C_12
REMARK    7  A    between atoms: C_10  and  O_11
REMARK    8  A    between atoms: C_12  and  C_13
REMARK    9  A    between atoms: C_12  and  C_14
REMARK   10  A    between atoms: C_12  and  C_15
REMARK   11  A    between atoms: C_16  and  C_17
REMARK   12  A    between atoms: C_17  and  C_18
REMARK   13  A    between atoms: N_20  and  C_21
REMARK   14  A    between atoms: C_25  and  S_27
REMARK   15  A    between atoms: S_27  and  N_30
REMARK                            x       y       z     vdW  Elec       q    Type
REMARK                         _______ _______ _______ _____ _____    ______ ____
ROOT
ATOM      1  C   UNL     1      -3.674   1.753   0.119  0.00  0.00    +0.044 C 
ENDROOT
BRANCH   1   4
ATOM      2  C   UNL     1      -6.646  -0.051   1.590  0.00  0.00    -0.000 A 
ATOM      3  C   UNL     1      -5.478   0.679   1.482  0.00  0.00    +0.011 A 
ATOM      4  C   UNL     1      -4.949   0.958   0.235  0.00  0.00    -0.046 A 
ATOM      5  C   UNL     1      -5.590   0.513  -0.906  0.00  0.00    +0.011 A 
ATOM      6  C   UNL     1      -6.756  -0.222  -0.803  0.00  0.00    -0.000 A 
ATOM      7  C   UNL     1      -7.288  -0.503   0.447  0.00  0.00    +0.124 A 
BRANCH   2   9
ATOM      8  C   UNL     1      -6.327   0.255   4.030  0.00  0.00    +0.015 C 
ATOM      9  C   UNL     1      -7.222  -0.354   2.949  0.00  0.00    -0.009 C 
ATOM     10  C   UNL     1      -8.626   0.244   3.053  0.00  0.00    +0.015 C 
ATOM     11  C   UNL     1      -7.298  -1.870   3.144  0.00  0.00    +0.015 C 
ENDBRANCH   2   9
BRANCH   6  12
ATOM     12  C   UNL     1      -7.451  -0.712  -2.047  0.00  0.00    -0.009 C 
ATOM     13  C   UNL     1      -6.662  -0.268  -3.280  0.00  0.00    +0.015 C 
ATOM     14  C   UNL     1      -7.535  -2.239  -2.016  0.00  0.00    +0.015 C 
ATOM     15  C   UNL     1      -8.863  -0.124  -2.106  0.00  0.00    +0.015 C 
ENDBRANCH   6  12
BRANCH   7  16
ATOM     16  O   UNL     1      -8.438  -1.221   0.551  0.00  0.00    -0.506 OA
ATOM     17  H   UNL     1      -9.240  -0.681   0.550  0.00  0.00    +0.292 HD
ENDBRANCH   7  16
ENDBRANCH   1   4
BRANCH   1  18
ATOM     18  C   UNL     1      -2.476   0.802   0.132  0.00  0.00    +0.101 C 
BRANCH  18  19
ATOM     19  C   UNL     1      -1.202   1.598   0.017  0.00  0.00    +0.218 C 
ATOM     20  O   UNL     1      -1.247   2.807  -0.067  0.00  0.00    -0.275 OA
ATOM     21  N   UNL     1      -0.011   0.966   0.007  0.00  0.00    -0.285 N 
ATOM     22  H   UNL     1       0.023  -0.004   0.007  0.00  0.00    +0.155 HD
BRANCH  21  23
ATOM     23  C   UNL     1       1.175   1.708  -0.008  0.00  0.00    +0.035 A 
ATOM     24  C   UNL     1       1.238   2.906  -0.708  0.00  0.00    +0.023 A 
ATOM     25  C   UNL     1       2.408   3.639  -0.717  0.00  0.00    +0.004 A 
ATOM     26  C   UNL     1       3.520   3.176  -0.038  0.00  0.00    +0.028 A 
ATOM     27  C   UNL     1       3.463   1.981   0.656  0.00  0.00    +0.107 A 
ATOM     28  C   UNL     1       2.294   1.246   0.673  0.00  0.00    +0.051 A 
BRANCH  27  29
ATOM     29  S   UNL     1       4.883   1.396   1.520  0.00  0.00    +0.056 S 
ATOM     30  O   UNL     1       5.685   2.534   1.801  0.00  0.00    -0.153 OA
ATOM     31  O   UNL     1       4.409   0.527   2.539  0.00  0.00    -0.153 OA
BRANCH  29  32
ATOM     32  N   UNL     1       5.746   0.458   0.463  0.00  0.00    -0.204 NA
ATOM     33  H   UNL     1       6.711   0.396   0.545  0.00  0.00    +0.144 HD
ATOM     34  H   UNL     1       5.288  -0.030  -0.239  0.00  0.00    +0.144 HD
ENDBRANCH  29  32
ENDBRANCH  27  29
ENDBRANCH  21  23
ENDBRANCH  18  19
ENDBRANCH   1  18
TORSDOF 9
