REMARK  Name = ZINC20831747
REMARK  9 active torsions:
REMARK  status: ('A' for Active; 'I' for Inactive)
REMARK    1  A    between atoms: C_4  and  C_7
REMARK    2  A    between atoms: N_8  and  N_9
REMARK    3  A    between atoms: C_12  and  S_15
REMARK    4  A    between atoms: S_15  and  C_16
REMARK    5  A    between atoms: C_16  and  C_17
REMARK    6  A    between atoms: N_19  and  C_20
REMARK    7  A    between atoms: C_23  and  S_26
REMARK    8  A    between atoms: S_26  and  N_29
REMARK    9  A    between atoms: N_29  and  C_30
REMARK                            x       y       z     vdW  Elec       q    Type
REMARK                         _______ _______ _______ _____ _____    ______ ____
ROOT
ATOM      1  C   UNL     1      -0.519   6.699   0.626  0.00  0.00    +0.227 C 
ATOM      2  O   UNL     1      -0.386   7.778   1.164  0.00  0.00    -0.275 OA
ATOM      3  N   UNL     1      -1.692   6.376   0.045  0.00  0.00    -0.285 N 
ATOM      4  H   UNL     1      -1.789   5.430  -0.508  0.00  0.00    +0.155 HD
ENDROOT
BRANCH   3   5
ATOM      5  C   UNL     1      -2.785   7.243   0.145  0.00  0.00    +0.034 A 
ATOM      6  C   UNL     1      -4.073   6.732   0.239  0.00  0.00    +0.025 A 
ATOM      7  C   UNL     1      -5.149   7.591   0.344  0.00  0.00    +0.030 A 
ATOM      8  C   UNL     1      -4.947   8.959   0.344  0.00  0.00    +0.105 A 
ATOM      9  C   UNL     1      -3.666   9.471   0.245  0.00  0.00    +0.030 A 
ATOM     10  C   UNL     1      -2.585   8.617   0.146  0.00  0.00    +0.025 A 
BRANCH   8  11
ATOM     11  S   UNL     1      -6.323  10.051   0.472  0.00  0.00    +0.059 S 
ATOM     12  O   UNL     1      -7.366   9.319   1.101  0.00  0.00    -0.153 OA
ATOM     13  O   UNL     1      -5.825  11.273   0.998  0.00  0.00    -0.153 OA
BRANCH  11  14
ATOM     14  N   UNL     1      -6.836  10.375  -1.070  0.00  0.00    -0.187 NA
ATOM     15  H   UNL     1      -6.609  11.354  -1.517  0.00  0.00    +0.148 HD
BRANCH  14  16
ATOM     16  C   UNL     1      -7.387   9.300  -1.899  0.00  0.00    +0.077 C 
ATOM     17  C   UNL     1      -6.280   8.717  -2.780  0.00  0.00    +0.020 C 
ATOM     18  C   UNL     1      -6.856   7.595  -3.646  0.00  0.00    +0.002 C 
ATOM     19  C   UNL     1      -7.971   8.155  -4.531  0.00  0.00    +0.000 C 
ATOM     20  C   UNL     1      -9.078   8.737  -3.650  0.00  0.00    +0.002 C 
ATOM     21  C   UNL     1      -8.502   9.860  -2.784  0.00  0.00    +0.020 C 
ENDBRANCH  14  16
ENDBRANCH  11  14
ENDBRANCH   8  11
ENDBRANCH   3   5
BRANCH   1  22
ATOM     22  C   UNL     1       0.626   5.720   0.608  0.00  0.00    +0.173 C 
BRANCH  22  23
ATOM     23  S   UNL     1       2.053   6.442   1.464  0.00  0.00    -0.075 S 
BRANCH  23  27
ATOM     24  N   UNL     1       6.506   3.782   1.921  0.00  0.00    -0.205 N 
ATOM     25  C   UNL     1       5.200   4.100   1.578  0.00  0.00    +0.232 A 
ATOM     26  N   UNL     1       4.557   5.272   1.863  0.00  0.00    -0.186 NA
ATOM     27  C   UNL     1       3.291   5.192   1.357  0.00  0.00    +0.211 A 
ATOM     28  N   UNL     1       3.156   4.020   0.784  0.00  0.00    -0.144 NA
ATOM     29  N   UNL     1       4.366   3.328   0.924  0.00  0.00    -0.245 N 
ATOM     30  H   UNL     1       7.122   4.507   2.474  0.00  0.00    +0.177 HD
ATOM     31  H   UNL     1       4.684   2.328   0.595  0.00  0.00    +0.192 HD
BRANCH  24  33
ATOM     32  C   UNL     1       8.264   2.240   1.885  0.00  0.00    +0.138 C 
ATOM     33  N   UNL     1       7.042   2.537   1.564  0.00  0.00    -0.188 NA
BRANCH  32  37
ATOM     34  C   UNL     1       9.886  -1.530   0.802  0.00  0.00    +0.000 A 
ATOM     35  C   UNL     1      10.663  -0.620   1.498  0.00  0.00    +0.001 A 
ATOM     36  C   UNL     1      10.143   0.607   1.853  0.00  0.00    +0.009 A 
ATOM     37  C   UNL     1       8.828   0.930   1.509  0.00  0.00    -0.005 A 
ATOM     38  C   UNL     1       8.047   0.005   0.812  0.00  0.00    +0.009 A 
ATOM     39  C   UNL     1       8.583  -1.216   0.458  0.00  0.00    +0.001 A 
ENDBRANCH  32  37
ENDBRANCH  24  33
ENDBRANCH  23  27
ENDBRANCH  22  23
ENDBRANCH   1  22
TORSDOF 9
