REMARK  Name = ZINC13963497
REMARK  12 active torsions:
REMARK  status: ('A' for Active; 'I' for Inactive)
REMARK    1  A    between atoms: C_1  and  C_2
REMARK    2  A    between atoms: C_2  and  O_3
REMARK    3  A    between atoms: O_3  and  C_4
REMARK    4  A    between atoms: C_4  and  C_5
REMARK    5  A    between atoms: C_5  and  N_6
REMARK    6  A    between atoms: C_10  and  O_33
REMARK    7  A    between atoms: N_15  and  C_16
REMARK    8  A    between atoms: C_16  and  C_18
REMARK    9  A    between atoms: N_24  and  S_25
REMARK   10  A    between atoms: S_25  and  C_28
REMARK   11  A    between atoms: O_33  and  C_34
REMARK   12  A    between atoms: C_34  and  C_35
REMARK                            x       y       z     vdW  Elec       q    Type
REMARK                         _______ _______ _______ _____ _____    ______ ____
ROOT
ATOM      1  N   UNL     1       1.269  -3.236  -2.553  0.00  0.00    -0.319 N 
ATOM      2  C   UNL     1       2.410  -3.803  -2.012  0.00  0.00    +0.058 A 
ATOM      3  C   UNL     1       3.439  -3.171  -1.295  0.00  0.00    +0.030 A 
ATOM      4  C   UNL     1       4.512  -3.889  -0.825  0.00  0.00    +0.048 A 
ATOM      5  C   UNL     1       4.613  -5.257  -1.042  0.00  0.00    +0.122 A 
ATOM      6  C   UNL     1       3.604  -5.907  -1.740  0.00  0.00    +0.062 A 
ATOM      7  C   UNL     1       2.535  -5.185  -2.213  0.00  0.00    +0.042 A 
ATOM      8  S   UNL     1       1.078  -5.594  -3.141  0.00  0.00    -0.052 S 
ATOM      9  C   UNL     1       0.378  -4.010  -3.226  0.00  0.00    +0.167 A 
ATOM     10  N   UNL     1      -0.760  -3.641  -3.811  0.00  0.00    -0.155 NA
ENDROOT
BRANCH  10  11
ATOM     11  C   UNL     1      -1.512  -4.544  -4.430  0.00  0.00    +0.257 C 
ATOM     12  O   UNL     1      -1.162  -5.708  -4.463  0.00  0.00    -0.272 OA
BRANCH  11  13
ATOM     13  C   UNL     1      -2.800  -4.126  -5.092  0.00  0.00    +0.167 C 
ATOM     14  C   UNL     1      -2.716  -4.399  -6.597  0.00  0.00    +0.030 C 
ATOM     15  C   UNL     1      -4.073  -4.104  -7.241  0.00  0.00    +0.003 C 
ATOM     16  C   UNL     1      -5.136  -5.026  -6.641  0.00  0.00    +0.017 C 
ATOM     17  C   UNL     1      -5.247  -4.759  -5.136  0.00  0.00    +0.110 C 
ATOM     18  N   UNL     1      -3.916  -4.900  -4.532  0.00  0.00    -0.164 NA
BRANCH  18  19
ATOM     19  S   UNL     1      -3.677  -5.912  -3.243  0.00  0.00    +0.068 S 
ATOM     20  O   UNL     1      -2.517  -5.444  -2.568  0.00  0.00    -0.152 OA
ATOM     21  O   UNL     1      -4.934  -6.046  -2.593  0.00  0.00    -0.152 OA
BRANCH  19  22
ATOM     22  C   UNL     1      -3.275  -7.499  -3.894  0.00  0.00    +0.143 A 
ATOM     23  C   UNL     1      -2.057  -8.070  -4.059  0.00  0.00    +0.036 A 
ATOM     24  C   UNL     1      -1.980  -9.342  -4.596  0.00  0.00    +0.010 A 
ATOM     25  C   UNL     1      -3.126  -9.980  -4.941  0.00  0.00    +0.047 A 
ATOM     26  S   UNL     1      -4.367  -8.775  -4.500  0.00  0.00    -0.077 S 
ENDBRANCH  19  22
ENDBRANCH  18  19
ENDBRANCH  11  13
ENDBRANCH  10  11
BRANCH   1  27
ATOM     27  C   UNL     1       1.024  -1.800  -2.404  0.00  0.00    +0.152 C 
BRANCH  27  28
ATOM     28  C   UNL     1       0.226  -1.549  -1.122  0.00  0.00    +0.181 C 
BRANCH  28  29
ATOM     29  O   UNL     1      -0.013  -0.147  -0.977  0.00  0.00    -0.378 OA
BRANCH  29  31
ATOM     30  C   UNL     1      -0.950   1.714   0.247  0.00  0.00    +0.034 C 
ATOM     31  C   UNL     1      -0.754   0.197   0.195  0.00  0.00    +0.156 C 
ENDBRANCH  29  31
ENDBRANCH  28  29
ENDBRANCH  27  28
ENDBRANCH   1  27
BRANCH   5  32
ATOM     32  O   UNL     1       5.682  -5.953  -0.569  0.00  0.00    -0.492 OA
BRANCH  32  33
ATOM     33  C   UNL     1       6.672  -5.213   0.148  0.00  0.00    +0.225 C 
ATOM     34  C   UNL     1       7.788  -6.157   0.598  0.00  0.00    +0.048 C 
ENDBRANCH  32  33
ENDBRANCH   5  32
TORSDOF 10
