REMARK  Name = ZINC04965399
REMARK  5 active torsions:
REMARK  status: ('A' for Active; 'I' for Inactive)
REMARK    1  A    between atoms: C_4  and  N_7
REMARK    2  A    between atoms: N_10  and  C_11
REMARK    3  A    between atoms: C_11  and  C_17
REMARK    4  A    between atoms: N_19  and  C_20
REMARK    5  A    between atoms: C_20  and  C_21
REMARK                            x       y       z     vdW  Elec       q    Type
REMARK                         _______ _______ _______ _____ _____    ______ ____
ROOT
ATOM      1  C   UNL     1       4.854  -4.109   0.137  0.00  0.00    +0.112 C 
ATOM      2  C   UNL     1       4.216  -4.733  -1.106  0.00  0.00    +0.035 C 
ATOM      3  C   UNL     1       4.913  -4.202  -2.360  0.00  0.00    +0.003 C 
ATOM      4  C   UNL     1       6.398  -4.567  -2.311  0.00  0.00    +0.000 C 
ATOM      5  C   UNL     1       7.037  -3.943  -1.068  0.00  0.00    +0.003 C 
ATOM      6  C   UNL     1       6.339  -4.474   0.185  0.00  0.00    +0.035 C 
ENDROOT
BRANCH   1  10
ATOM      7  N   UNL     1       3.359  -0.765  -0.164  0.00  0.00    -0.269 N 
ATOM      8  C   UNL     1       3.486  -2.098  -0.011  0.00  0.00    +0.305 C 
ATOM      9  O   UNL     1       2.495  -2.801   0.046  0.00  0.00    -0.252 OA
ATOM     10  N   UNL     1       4.711  -2.652   0.079  0.00  0.00    -0.285 N 
ATOM     11  H   UNL     1       4.147  -0.213  -0.282  0.00  0.00    +0.156 HD
ATOM     12  H   UNL     1       5.499  -2.086   0.106  0.00  0.00    +0.151 HD
BRANCH   7  16
ATOM     13  C   UNL     1      -0.422   0.984  -0.131  0.00  0.00    +0.000 A 
ATOM     14  C   UNL     1       0.654   1.657   0.419  0.00  0.00    +0.002 A 
ATOM     15  C   UNL     1       1.908   1.079   0.409  0.00  0.00    +0.023 A 
ATOM     16  C   UNL     1       2.089  -0.178  -0.153  0.00  0.00    +0.035 A 
ATOM     17  C   UNL     1       1.006  -0.850  -0.704  0.00  0.00    +0.023 A 
ATOM     18  C   UNL     1      -0.246  -0.267  -0.692  0.00  0.00    +0.002 A 
ENDBRANCH   7  16
ENDBRANCH   1  10
BRANCH   1  19
ATOM     19  C   UNL     1       4.167  -4.633   1.371  0.00  0.00    +0.237 C 
ATOM     20  O   UNL     1       3.600  -5.705   1.341  0.00  0.00    -0.273 OA
ATOM     21  N   UNL     1       4.182  -3.910   2.509  0.00  0.00    -0.309 N 
ATOM     22  H   UNL     1       4.572  -3.022   2.514  0.00  0.00    +0.149 HD
BRANCH  21  23
ATOM     23  C   UNL     1       3.611  -4.466   3.738  0.00  0.00    +0.146 C 
BRANCH  23  24
ATOM     24  C   UNL     1       3.753  -3.466   4.856  0.00  0.00    +0.007 A 
ATOM     25  C   UNL     1       2.895  -2.491   5.243  0.00  0.00    +0.013 A 
ATOM     26  C   UNL     1       3.238  -1.681   6.309  0.00  0.00    +0.008 A 
ATOM     27  C   UNL     1       4.422  -1.885   6.936  0.00  0.00    +0.045 A 
ATOM     28  S   UNL     1       5.093  -3.262   6.018  0.00  0.00    -0.100 S 
ENDBRANCH  23  24
ENDBRANCH  21  23
ENDBRANCH   1  19
TORSDOF 5
