REMARK  Name = ZINC32929426
REMARK  12 active torsions:
REMARK  status: ('A' for Active; 'I' for Inactive)
REMARK    1  A    between atoms: C_1  and  C_2
REMARK    2  A    between atoms: C_3  and  C_30
REMARK    3  A    between atoms: C_4  and  C_21
REMARK    4  A    between atoms: C_7  and  N_20
REMARK    5  A    between atoms: C_8  and  C_12
REMARK    6  A    between atoms: C_12  and  C_14
REMARK    7  A    between atoms: C_24  and  O_29
REMARK    8  A    between atoms: C_25  and  O_27
REMARK    9  A    between atoms: O_27  and  C_28
REMARK   10  A    between atoms: C_30  and  O_32
REMARK   11  A    between atoms: O_32  and  C_33
REMARK   12  A    between atoms: C_33  and  C_34
REMARK                            x       y       z     vdW  Elec       q    Type
REMARK                         _______ _______ _______ _____ _____    ______ ____
ROOT
ATOM      1  C   UNL     1       2.395  -5.678  -2.593  0.00  0.00    +0.061 C 
ATOM      2  C   UNL     1       2.349  -4.958  -1.269  0.00  0.00    +0.016 C 
ATOM      3  C   UNL     1       2.447  -3.623  -1.251  0.00  0.00    +0.065 C 
ATOM      4  C   UNL     1       2.397  -2.777  -0.013  0.00  0.00    +0.092 C 
ATOM      5  C   UNL     1       2.542  -3.663   1.217  0.00  0.00    +0.014 A 
ATOM      6  C   UNL     1       2.778  -3.196   2.496  0.00  0.00    +0.049 A 
ATOM      7  C   UNL     1       2.888  -4.113   3.547  0.00  0.00    +0.082 A 
ATOM      8  S   UNL     1       2.654  -5.673   2.707  0.00  0.00    -0.068 S 
ATOM      9  C   UNL     1       2.434  -5.042   1.071  0.00  0.00    +0.076 A 
ATOM     10  N   UNL     1       2.208  -5.692  -0.115  0.00  0.00    -0.312 N 
ATOM     11  H   UNL     1       1.924  -6.753  -0.170  0.00  0.00    +0.152 HD
ENDROOT
BRANCH   4  12
ATOM     12  C   UNL     1       1.078  -2.050   0.045  0.00  0.00    -0.032 A 
ATOM     13  C   UNL     1      -0.104  -2.767   0.081  0.00  0.00    +0.008 A 
ATOM     14  C   UNL     1      -1.316  -2.105   0.134  0.00  0.00    +0.049 A 
ATOM     15  C   UNL     1      -1.349  -0.720   0.156  0.00  0.00    +0.158 A 
ATOM     16  C   UNL     1      -0.160   0.002   0.114  0.00  0.00    +0.162 A 
ATOM     17  C   UNL     1       1.052  -0.668   0.061  0.00  0.00    +0.054 A 
BRANCH  16  18
ATOM     18  O   UNL     1      -0.187   1.361   0.129  0.00  0.00    -0.491 OA
ATOM     19  C   UNL     1       1.072   2.036   0.089  0.00  0.00    +0.277 C 
ENDBRANCH  16  18
BRANCH  15  20
ATOM     20  O   UNL     1      -2.540  -0.067   0.214  0.00  0.00    -0.503 OA
ATOM     21  H   UNL     1      -2.565   1.033   0.231  0.00  0.00    +0.292 HD
ENDBRANCH  15  20
ENDBRANCH   4  12
BRANCH   6  22
ATOM     22  N   UNL     1       2.903  -1.832   2.735  0.00  0.00    -0.357 N 
ATOM     23  H   UNL     1       3.090  -1.467   3.756  0.00  0.00    +0.142 HD
ATOM     24  H   UNL     1       2.814  -1.117   1.904  0.00  0.00    +0.142 HD
ENDBRANCH   6  22
BRANCH   7  25
ATOM     25  C   UNL     1       3.123  -3.869   4.912  0.00  0.00    +0.202 C 
ATOM     26  O   UNL     1       3.380  -2.740   5.295  0.00  0.00    -0.286 OA
BRANCH  25  27
ATOM     27  C   UNL     1       3.060  -4.984   5.884  0.00  0.00    +0.023 A 
ATOM     28  C   UNL     1       2.319  -6.129   5.590  0.00  0.00    +0.012 A 
ATOM     29  C   UNL     1       2.267  -7.166   6.498  0.00  0.00    +0.001 A 
ATOM     30  C   UNL     1       2.939  -7.068   7.703  0.00  0.00    +0.000 A 
ATOM     31  C   UNL     1       3.671  -5.933   8.004  0.00  0.00    +0.001 A 
ATOM     32  C   UNL     1       3.735  -4.891   7.102  0.00  0.00    +0.012 A 
ENDBRANCH  25  27
ENDBRANCH   7  25
BRANCH   3  33
ATOM     33  C   UNL     1       2.608  -2.962  -2.490  0.00  0.00    +0.338 C 
ATOM     34  O   UNL     1       2.655  -3.606  -3.521  0.00  0.00    -0.245 OA
BRANCH  33  35
ATOM     35  O   UNL     1       2.712  -1.617  -2.529  0.00  0.00    -0.457 OA
BRANCH  35  36
ATOM     36  C   UNL     1       2.873  -1.016  -3.815  0.00  0.00    +0.259 C 
BRANCH  36  37
ATOM     37  C   UNL     1       2.970   0.480  -3.661  0.00  0.00    +0.006 C 
ATOM     38  C   UNL     1       3.887   1.148  -4.317  0.00  0.00    +0.007 C 
ENDBRANCH  36  37
ENDBRANCH  35  36
ENDBRANCH  33  35
ENDBRANCH   3  33
TORSDOF 10
