REMARK  Name = ZINC58172164
REMARK  8 active torsions:
REMARK  status: ('A' for Active; 'I' for Inactive)
REMARK    1  A    between atoms: C_10  and  C_11
REMARK    2  A    between atoms: C_11  and  C_12
REMARK    3  A    between atoms: N_14  and  C_15
REMARK    4  A    between atoms: C_15  and  C_16
REMARK    5  A    between atoms: N_18  and  N_19
REMARK    6  A    between atoms: N_19  and  C_20
REMARK    7  A    between atoms: C_20  and  N_22
REMARK    8  A    between atoms: N_22  and  C_23
REMARK                            x       y       z     vdW  Elec       q    Type
REMARK                         _______ _______ _______ _____ _____    ______ ____
ROOT
ATOM      1  C   UNL     1       6.840   1.565   2.979  0.00  0.00    +0.201 C 
ENDROOT
BRANCH   1   4
ATOM      2  C   UNL     1       5.341   0.519   1.367  0.00  0.00    +0.218 C 
ATOM      3  O   UNL     1       4.633   0.178   2.291  0.00  0.00    -0.275 OA
ATOM      4  N   UNL     1       6.469   1.218   1.605  0.00  0.00    -0.306 N 
ATOM      5  H   UNL     1       7.035   1.490   0.866  0.00  0.00    +0.149 HD
BRANCH   2   6
ATOM      6  C   UNL     1       4.960   0.161  -0.046  0.00  0.00    +0.131 C 
BRANCH   6  16
ATOM      7  C   UNL     1      -0.016   1.357   0.009  0.00  0.00    +0.001 A 
ATOM      8  C   UNL     1       1.169   2.091   0.002  0.00  0.00    +0.001 A 
ATOM      9  C   UNL     1       2.378   1.468  -0.013  0.00  0.00    +0.009 A 
ATOM     10  C   UNL     1       2.438   0.064  -0.021  0.00  0.00    -0.014 A 
ATOM     11  C   UNL     1       1.233  -0.683  -0.013  0.00  0.00    -0.018 A 
ATOM     12  C   UNL     1       0.002  -0.004   0.002  0.00  0.00    +0.008 A 
ATOM     13  C   UNL     1       1.292  -2.087  -0.021  0.00  0.00    +0.008 A 
ATOM     14  C   UNL     1       2.502  -2.709  -0.036  0.00  0.00    +0.001 A 
ATOM     15  C   UNL     1       3.687  -1.976  -0.043  0.00  0.00    +0.005 A 
ATOM     16  C   UNL     1       3.668  -0.615  -0.037  0.00  0.00    -0.031 A 
ENDBRANCH   6  16
ENDBRANCH   2   6
ENDBRANCH   1   4
BRANCH   1  17
ATOM     17  C   UNL     1       8.132   2.341   2.970  0.00  0.00    +0.246 C 
ATOM     18  O   UNL     1       8.689   2.579   1.919  0.00  0.00    -0.273 OA
ATOM     19  N   UNL     1       8.669   2.769   4.129  0.00  0.00    -0.234 N 
ATOM     20  H   UNL     1       8.224   2.579   4.970  0.00  0.00    +0.173 HD
BRANCH  19  21
ATOM     21  N   UNL     1       9.870   3.490   4.121  0.00  0.00    -0.246 N 
ATOM     22  H   UNL     1      10.316   3.680   3.280  0.00  0.00    +0.172 HD
BRANCH  21  23
ATOM     23  C   UNL     1      10.407   3.918   5.280  0.00  0.00    +0.147 C 
ATOM     24  S   UNL     1      11.875   4.799   5.270  0.00  0.00    -0.017 S 
BRANCH  23  25
ATOM     25  N   UNL     1       9.789   3.653   6.448  0.00  0.00    -0.323 N 
ATOM     26  H   UNL     1       8.957   3.154   6.454  0.00  0.00    +0.148 HD
BRANCH  25  27
ATOM     27  C   UNL     1      10.373   4.119   7.708  0.00  0.00    +0.072 C 
ATOM     28  C   UNL     1      11.409   3.105   8.196  0.00  0.00    +0.022 C 
ATOM     29  C   UNL     1      12.019   3.591   9.512  0.00  0.00    +0.002 C 
ATOM     30  C   UNL     1      10.915   3.737  10.562  0.00  0.00    +0.000 C 
ATOM     31  C   UNL     1       9.879   4.752  10.074  0.00  0.00    +0.002 C 
ATOM     32  C   UNL     1       9.269   4.266   8.758  0.00  0.00    +0.022 C 
ENDBRANCH  25  27
ENDBRANCH  23  25
ENDBRANCH  21  23
ENDBRANCH  19  21
ENDBRANCH   1  17
TORSDOF 8
