REMARK  Name = ZINC20898948
REMARK  5 active torsions:
REMARK  status: ('A' for Active; 'I' for Inactive)
REMARK    1  A    between atoms: C_1  and  N_2
REMARK    2  A    between atoms: C_15  and  C_18
REMARK    3  A    between atoms: C_21  and  O_25
REMARK    4  A    between atoms: C_22  and  O_24
REMARK    5  A    between atoms: O_25  and  C_26
REMARK                            x       y       z     vdW  Elec       q    Type
REMARK                         _______ _______ _______ _____ _____    ______ ____
ROOT
ATOM      1  C   UNL     1      -0.018   1.461   0.010  0.00  0.00    +0.140 C 
ATOM      2  N   UNL     1       0.002  -0.004   0.002  0.00  0.00    -0.252 N 
ATOM      3  C   UNL     1      -1.166  -0.679   0.004  0.00  0.00    +0.258 C 
ATOM      4  O   UNL     1      -2.229  -0.088   0.012  0.00  0.00    -0.269 OA
ATOM      5  C   UNL     1      -1.119  -2.152  -0.004  0.00  0.00    +0.117 C 
ATOM      6  C   UNL     1       0.214  -2.781  -0.014  0.00  0.00    +0.256 C 
ATOM      7  N   UNL     1       1.298  -1.978  -0.015  0.00  0.00    -0.263 N 
ATOM      8  H   UNL     1       2.182  -2.376  -0.022  0.00  0.00    +0.157 HD
ATOM      9  C   UNL     1       1.180  -0.643  -0.013  0.00  0.00    +0.146 C 
ATOM     10  S   UNL     1       2.612   0.297  -0.021  0.00  0.00    -0.018 S 
ATOM     11  O   UNL     1       0.333  -3.992  -0.021  0.00  0.00    -0.270 OA
ATOM     12  C   UNL     1      -2.275  -2.911  -0.002  0.00  0.00    +0.038 C 
ATOM     13  N   UNL     1      -3.534  -2.435   0.001  0.00  0.00    -0.283 N 
ATOM     14  N   UNL     1      -4.475  -3.422   0.037  0.00  0.00    -0.235 NA
ATOM     15  C   UNL     1      -3.825  -4.684  -0.388  0.00  0.00    +0.108 C 
ATOM     16  C   UNL     1      -2.348  -4.427  -0.010  0.00  0.00    +0.077 C 
ATOM     17  H   UNL     1      -4.869  -3.511   0.962  0.00  0.00    +0.145 HD
ATOM     18  H   UNL     1      -3.750  -1.490  -0.020  0.00  0.00    +0.166 HD
ENDROOT
BRANCH  15  19
ATOM     19  C   UNL     1      -4.384  -5.859   0.372  0.00  0.00    -0.025 A 
ATOM     20  C   UNL     1      -4.695  -5.729   1.713  0.00  0.00    +0.009 A 
ATOM     21  C   UNL     1      -5.208  -6.804   2.414  0.00  0.00    +0.050 A 
ATOM     22  C   UNL     1      -5.411  -8.016   1.774  0.00  0.00    +0.161 A 
ATOM     23  C   UNL     1      -5.098  -8.147   0.424  0.00  0.00    +0.159 A 
ATOM     24  C   UNL     1      -4.589  -7.064  -0.274  0.00  0.00    +0.054 A 
BRANCH  23  25
ATOM     25  O   UNL     1      -5.295  -9.334  -0.209  0.00  0.00    -0.503 OA
ATOM     26  H   UNL     1      -6.172  -9.427  -0.607  0.00  0.00    +0.292 HD
ENDBRANCH  23  25
BRANCH  22  27
ATOM     27  O   UNL     1      -5.915  -9.075   2.462  0.00  0.00    -0.491 OA
ATOM     28  C   UNL     1      -6.213  -8.868   3.844  0.00  0.00    +0.277 C 
ENDBRANCH  22  27
ENDBRANCH  15  19
TORSDOF 3
