REMARK  Name = ZINC20899162
REMARK  4 active torsions:
REMARK  status: ('A' for Active; 'I' for Inactive)
REMARK    1  A    between atoms: C_1  and  O_2
REMARK    2  A    between atoms: O_2  and  C_3
REMARK    3  A    between atoms: C_8  and  N_9
REMARK    4  A    between atoms: C_27  and  C_30
REMARK                            x       y       z     vdW  Elec       q    Type
REMARK                         _______ _______ _______ _____ _____    ______ ____
ROOT
ATOM      1  N   UNL     1       0.180  -3.030  -0.216  0.00  0.00    -0.186 N 
ATOM      2  C   UNL     1      -1.104  -3.429  -0.325  0.00  0.00    +0.265 C 
ATOM      3  O   UNL     1      -1.699  -3.336  -1.383  0.00  0.00    -0.269 OA
ATOM      4  C   UNL     1      -1.766  -3.980   0.870  0.00  0.00    +0.117 C 
ATOM      5  C   UNL     1      -0.967  -4.054   2.106  0.00  0.00    +0.258 C 
ATOM      6  N   UNL     1       0.309  -3.618   2.067  0.00  0.00    -0.235 N 
ATOM      7  C   UNL     1       0.849  -3.132   0.941  0.00  0.00    +0.320 C 
ATOM      8  O   UNL     1       2.006  -2.760   0.972  0.00  0.00    -0.251 OA
ATOM      9  O   UNL     1      -1.445  -4.497   3.133  0.00  0.00    -0.270 OA
ATOM     10  C   UNL     1      -3.081  -4.408   0.833  0.00  0.00    +0.027 C 
ATOM     11  N   UNL     1      -3.776  -3.961  -0.153  0.00  0.00    -0.316 N 
ATOM     12  C   UNL     1      -4.953  -4.176  -0.816  0.00  0.00    +0.045 A 
ATOM     13  C   UNL     1      -5.054  -3.522  -2.056  0.00  0.00    +0.024 A 
ATOM     14  C   UNL     1      -6.174  -3.632  -2.843  0.00  0.00    +0.002 A 
ATOM     15  C   UNL     1      -7.239  -4.404  -2.414  0.00  0.00    +0.001 A 
ATOM     16  C   UNL     1      -7.157  -5.052  -1.205  0.00  0.00    +0.016 A 
ATOM     17  C   UNL     1      -6.021  -4.951  -0.390  0.00  0.00    +0.030 A 
ATOM     18  S   UNL     1      -6.063  -5.838   1.115  0.00  0.00    -0.114 S 
ATOM     19  C   UNL     1      -4.409  -6.406   1.480  0.00  0.00    +0.094 C 
ATOM     20  C   UNL     1      -3.480  -5.322   1.938  0.00  0.00    +0.071 C 
ATOM     21  H   UNL     1       0.848  -3.660   2.872  0.00  0.00    +0.159 HD
ATOM     22  H   UNL     1      -3.305  -3.220  -0.567  0.00  0.00    +0.152 HD
ENDROOT
BRANCH   1  28
ATOM     23  C   UNL     1       0.792  -1.133  -1.592  0.00  0.00    +0.142 A 
ATOM     24  C   UNL     1       1.443  -0.616  -2.701  0.00  0.00    +0.047 A 
ATOM     25  C   UNL     1       2.125  -1.460  -3.558  0.00  0.00    +0.004 A 
ATOM     26  C   UNL     1       2.159  -2.820  -3.312  0.00  0.00    +0.002 A 
ATOM     27  C   UNL     1       1.513  -3.343  -2.208  0.00  0.00    +0.028 A 
ATOM     28  C   UNL     1       0.832  -2.502  -1.341  0.00  0.00    +0.087 A 
BRANCH  23  30
ATOM     29  C   UNL     1       0.122   1.088  -1.069  0.00  0.00    +0.277 C 
ATOM     30  O   UNL     1       0.121  -0.305  -0.748  0.00  0.00    -0.493 OA
ENDBRANCH  23  30
ENDBRANCH   1  28
BRANCH  19  31
ATOM     31  C   UNL     1      -4.488  -7.455   2.558  0.00  0.00    +0.003 A 
ATOM     32  C   UNL     1      -4.086  -8.749   2.521  0.00  0.00    +0.012 A 
ATOM     33  C   UNL     1      -4.259  -9.538   3.643  0.00  0.00    +0.008 A 
ATOM     34  C   UNL     1      -4.825  -8.993   4.748  0.00  0.00    +0.045 A 
ATOM     35  S   UNL     1      -5.128  -7.315   4.219  0.00  0.00    -0.100 S 
ENDBRANCH  19  31
TORSDOF 3
