REMARK  Name = ZINC17026776
REMARK  12 active torsions:
REMARK  status: ('A' for Active; 'I' for Inactive)
REMARK    1  A    between atoms: C_1  and  C_2
REMARK    2  A    between atoms: C_5  and  O_35
REMARK    3  A    between atoms: N_11  and  C_12
REMARK    4  A    between atoms: C_12  and  C_13
REMARK    5  A    between atoms: C_13  and  N_70
REMARK    6  A    between atoms: C_14  and  N_70
REMARK    7  A    between atoms: C_15  and  N_70
REMARK    8  A    between atoms: C_16  and  C_18
REMARK    9  A    between atoms: C_21  and  S_24
REMARK   10  A    between atoms: S_24  and  N_27
REMARK   11  A    between atoms: C_32  and  C_34
REMARK   12  A    between atoms: O_35  and  C_36
REMARK                            x       y       z     vdW  Elec       q    Type
REMARK                         _______ _______ _______ _____ _____    ______ ____
ROOT
ATOM      1  C   UNL     1      -0.190  -1.450  -1.698  0.00  0.00    +0.045 C 
ATOM      2  C   UNL     1      -0.476  -0.027  -1.291  0.00  0.00    -0.034 A 
ATOM      3  C   UNL     1       0.501   0.943  -1.423  0.00  0.00    +0.008 A 
ATOM      4  C   UNL     1       0.218   2.248  -1.048  0.00  0.00    +0.048 A 
ATOM      5  C   UNL     1      -1.009   2.598  -0.537  0.00  0.00    +0.147 A 
ATOM      6  C   UNL     1      -2.033   1.627  -0.388  0.00  0.00    +0.122 A 
ATOM      7  C   UNL     1      -1.707   0.312  -0.786  0.00  0.00    +0.047 A 
ATOM      8  S   UNL     1      -3.213  -0.569  -0.449  0.00  0.00    -0.051 S 
ATOM      9  C   UNL     1      -4.149   0.819   0.179  0.00  0.00    +0.168 A 
ATOM     10  N   UNL     1      -3.285   1.802   0.089  0.00  0.00    -0.221 NA
ATOM     11  N   UNL     1      -5.454   0.848   0.642  0.00  0.00    -0.248 N 
ATOM     12  C   UNL     1      -6.190  -0.281   0.655  0.00  0.00    +0.252 C 
ATOM     13  O   UNL     1      -5.752  -1.298   0.154  0.00  0.00    -0.270 OA
ENDROOT
BRANCH  12  14
ATOM     14  C   UNL     1      -7.529  -0.283   1.280  0.00  0.00    +0.037 A 
ATOM     15  C   UNL     1      -8.330   0.859   1.224  0.00  0.00    +0.015 A 
ATOM     16  C   UNL     1      -9.581   0.850   1.805  0.00  0.00    +0.029 A 
ATOM     17  C   UNL     1     -10.039  -0.285   2.450  0.00  0.00    +0.106 A 
ATOM     18  C   UNL     1      -9.248  -1.419   2.513  0.00  0.00    +0.029 A 
ATOM     19  C   UNL     1      -7.997  -1.425   1.932  0.00  0.00    +0.015 A 
BRANCH  17  20
ATOM     20  S   UNL     1     -11.636  -0.287   3.195  0.00  0.00    +0.061 S 
ATOM     21  O   UNL     1     -12.347   0.807   2.634  0.00  0.00    -0.153 OA
ATOM     22  O   UNL     1     -12.115  -1.623   3.126  0.00  0.00    -0.153 OA
BRANCH  20  23
ATOM     23  N   UNL     1     -11.427   0.058   4.801  0.00  0.00    -0.174 NA
ATOM     24  C   UNL     1     -11.408  -1.018   5.802  0.00  0.00    +0.110 C 
ATOM     25  C   UNL     1     -12.438  -0.699   6.890  0.00  0.00    +0.017 C 
ATOM     26  C   UNL     1     -12.157   0.694   7.459  0.00  0.00    +0.003 C 
ATOM     27  C   UNL     1     -12.289   1.737   6.348  0.00  0.00    +0.020 C 
ATOM     28  C   UNL     1     -11.252   1.445   5.253  0.00  0.00    +0.077 C 
ATOM     29  C   UNL     1     -11.464   2.398   4.075  0.00  0.00    +0.026 C 
ENDBRANCH  20  23
ENDBRANCH  17  20
ENDBRANCH  12  14
BRANCH   5  30
ATOM     30  O   UNL     1      -1.246   3.886  -0.175  0.00  0.00    -0.493 OA
ATOM     31  C   UNL     1      -0.175   4.816  -0.349  0.00  0.00    +0.277 C 
ENDBRANCH   5  30
BRANCH  11  32
ATOM     32  C   UNL     1      -6.034   2.106   1.118  0.00  0.00    +0.097 C 
BRANCH  32  33
ATOM     33  C   UNL     1      -6.354   3.005  -0.078  0.00  0.00    -0.060 C 
BRANCH  33  36
ATOM     34  C   UNL     1      -7.051   5.236  -0.708  0.00  0.00    -0.097 C 
ATOM     35  C   UNL     1      -8.149   4.097   1.124  0.00  0.00    -0.097 C 
ATOM     36  N   UNL     1      -6.866   4.299   0.419  0.00  0.00    +0.377 N 
ATOM     37  H   UNL     1      -6.184   4.697   1.076  0.00  0.00    -0.083 HD
ENDBRANCH  33  36
ENDBRANCH  32  33
ENDBRANCH  11  32
TORSDOF 7
