REMARK  Name = ZINC41034712
REMARK  3 active torsions:
REMARK  status: ('A' for Active; 'I' for Inactive)
REMARK    1  A    between atoms: C_1  and  C_2
REMARK    2  A    between atoms: C_7  and  C_9
REMARK    3  A    between atoms: C_7  and  N_12
REMARK                            x       y       z     vdW  Elec       q    Type
REMARK                         _______ _______ _______ _____ _____    ______ ____
ROOT
ATOM      1  C   UNL     1      -0.019   1.526   0.010  0.00  0.00    +0.007 C 
ATOM      2  C   UNL     1       0.002  -0.004   0.002  0.00  0.00    -0.012 C 
ATOM      3  C   UNL     1      -1.433  -0.534   0.013  0.00  0.00    +0.003 C 
ATOM      4  C   UNL     1      -1.413  -2.063   0.004  0.00  0.00    +0.003 C 
ATOM      5  C   UNL     1      -0.673  -2.570   1.244  0.00  0.00    +0.037 C 
ATOM      6  C   UNL     1       0.763  -2.041   1.233  0.00  0.00    +0.137 C 
ATOM      7  C   UNL     1       0.742  -0.511   1.242  0.00  0.00    +0.040 C 
ENDROOT
BRANCH   6   8
ATOM      8  N   UNL     1       1.448  -2.513   0.028  0.00  0.00    -0.284 N 
ATOM      9  C   UNL     1       1.588  -3.835  -0.194  0.00  0.00    +0.298 C 
ATOM     10  O   UNL     1       1.144  -4.636   0.606  0.00  0.00    -0.253 OA
ATOM     11  N   UNL     1       2.218  -4.270  -1.303  0.00  0.00    -0.313 N 
ATOM     12  H   UNL     1       1.802  -1.875  -0.611  0.00  0.00    +0.151 HD
ATOM     13  H   UNL     1       2.572  -3.631  -1.941  0.00  0.00    +0.146 HD
ATOM     14  H   UNL     1       2.318  -5.221  -1.462  0.00  0.00    +0.146 HD
ENDBRANCH   6   8
BRANCH   6  15
ATOM     15  C   UNL     1       1.492  -2.540   2.454  0.00  0.00    +0.379 C 
ATOM     16  O   UNL     1       2.491  -3.227   2.329  0.00  0.00    -0.244 OA
ATOM     17  O   UNL     1       1.082  -2.257   3.567  0.00  0.00    -0.244 OA
ENDBRANCH   6  15
TORSDOF 2
