REMARK  Name = ZINC04026726
REMARK  5 active torsions:
REMARK  status: ('A' for Active; 'I' for Inactive)
REMARK    1  A    between atoms: C_9  and  O_19
REMARK    2  A    between atoms: C_10  and  O_18
REMARK    3  A    between atoms: C_12  and  C_16
REMARK    4  A    between atoms: C_13  and  C_14
REMARK    5  A    between atoms: C_16  and  O_17
REMARK                            x       y       z     vdW  Elec       q    Type
REMARK                         _______ _______ _______ _____ _____    ______ ____
ROOT
ATOM      1  C   UNL     1       0.002  -0.004   0.002  0.00  0.00    +0.001 A 
ATOM      2  C   UNL     1       1.212  -0.677  -0.013  0.00  0.00    +0.001 A 
ATOM      3  C   UNL     1       2.404   0.022  -0.002  0.00  0.00    +0.011 A 
ATOM      4  C   UNL     1       2.417   1.400   0.021  0.00  0.00    +0.038 A 
ATOM      5  C   UNL     1       1.174   2.092   0.002  0.00  0.00    +0.030 A 
ATOM      6  C   UNL     1      -0.017   1.375   0.010  0.00  0.00    +0.012 A 
ATOM      7  C   UNL     1       1.443   3.564  -0.067  0.00  0.00    +0.207 C 
ATOM      8  O   UNL     1       0.776   4.487   0.349  0.00  0.00    -0.288 OA
ATOM      9  C   UNL     1       2.769   3.592  -0.795  0.00  0.00    +0.233 C 
ATOM     10  C   UNL     1       3.432   2.445   0.083  0.00  0.00    +0.278 C 
ATOM     11  O   UNL     1       4.764   2.606  -0.329  0.00  0.00    -0.455 OA
ATOM     12  C   UNL     1       4.947   3.969  -0.210  0.00  0.00    +0.141 C 
ATOM     13  C   UNL     1       3.782   4.649  -0.441  0.00  0.00    +0.126 C 
ENDROOT
BRANCH  13  14
ATOM     14  C   UNL     1       3.574   6.047  -0.364  0.00  0.00    +0.389 C 
ATOM     15  O   UNL     1       4.494   6.783  -0.063  0.00  0.00    -0.241 OA
ATOM     16  O   UNL     1       2.354   6.562  -0.624  0.00  0.00    -0.241 OA
ENDBRANCH  13  14
BRANCH  10  17
ATOM     17  O   UNL     1       3.356   3.002   1.397  0.00  0.00    -0.349 OA
ATOM     18  H   UNL     1       3.535   2.367   2.104  0.00  0.00    +0.214 HD
ENDBRANCH  10  17
BRANCH   9  19
ATOM     19  O   UNL     1       2.676   3.326  -2.196  0.00  0.00    -0.370 OA
ATOM     20  H   UNL     1       2.270   4.039  -2.706  0.00  0.00    +0.211 HD
ENDBRANCH   9  19
BRANCH  12  21
ATOM     21  C   UNL     1       6.260   4.624   0.130  0.00  0.00    +0.230 C 
BRANCH  21  22
ATOM     22  O   UNL     1       6.649   4.253   1.454  0.00  0.00    -0.387 OA
ATOM     23  H   UNL     1       7.488   4.639   1.741  0.00  0.00    +0.210 HD
ENDBRANCH  21  22
ENDBRANCH  12  21
TORSDOF 5
