REMARK  Name = ZINC43741490
REMARK  7 active torsions:
REMARK  status: ('A' for Active; 'I' for Inactive)
REMARK    1  A    between atoms: C_1  and  C_2
REMARK    2  A    between atoms: C_10  and  O_32
REMARK    3  A    between atoms: N_14  and  O_15
REMARK    4  A    between atoms: O_15  and  C_16
REMARK    5  A    between atoms: C_16  and  C_17
REMARK    6  A    between atoms: C_26  and  O_31
REMARK    7  A    between atoms: C_28  and  O_30
REMARK                            x       y       z     vdW  Elec       q    Type
REMARK                         _______ _______ _______ _____ _____    ______ ____
ROOT
ATOM      1  C   UNL     1      -0.019   1.541   0.011  0.00  0.00    +0.014 C 
ATOM      2  C   UNL     1       0.002  -0.004   0.002  0.00  0.00    -0.000 C 
ATOM      3  C   UNL     1       0.639  -0.422  -1.302  0.00  0.00    +0.010 C 
ATOM      4  C   UNL     1       1.115  -1.868  -1.303  0.00  0.00    +0.009 C 
ATOM      5  C   UNL     1       2.107  -2.057  -0.148  0.00  0.00    +0.023 C 
ATOM      6  C   UNL     1       2.692  -3.442  -0.235  0.00  0.00    -0.035 A 
ATOM      7  C   UNL     1       3.717  -3.681  -1.135  0.00  0.00    +0.008 A 
ATOM      8  C   UNL     1       4.273  -4.940  -1.245  0.00  0.00    +0.046 A 
ATOM      9  C   UNL     1       3.811  -5.983  -0.452  0.00  0.00    +0.117 A 
ATOM     10  C   UNL     1       2.786  -5.759   0.451  0.00  0.00    +0.055 A 
ATOM     11  C   UNL     1       2.225  -4.487   0.560  0.00  0.00    +0.006 A 
ATOM     12  C   UNL     1       1.126  -4.250   1.524  0.00  0.00    +0.088 C 
ATOM     13  N   UNL     1       0.839  -5.109   2.446  0.00  0.00    -0.088 NA
ATOM     14  C   UNL     1       0.348  -2.953   1.389  0.00  0.00    +0.063 C 
ATOM     15  C   UNL     1       1.370  -1.840   1.163  0.00  0.00    +0.006 C 
ATOM     16  C   UNL     1       0.750  -0.457   1.257  0.00  0.00    +0.004 C 
ATOM     17  C   UNL     1      -0.348  -0.485   2.353  0.00  0.00    +0.038 C 
ATOM     18  C   UNL     1      -1.644  -0.874   1.616  0.00  0.00    +0.144 C 
ATOM     19  C   UNL     1      -1.449  -0.475   0.142  0.00  0.00    +0.149 C 
ENDROOT
BRANCH  19  20
ATOM     20  O   UNL     1      -1.726  -1.575  -0.722  0.00  0.00    -0.389 OA
ATOM     21  H   UNL     1      -2.634  -1.902  -0.663  0.00  0.00    +0.210 HD
ENDBRANCH  19  20
BRANCH  18  22
ATOM     22  O   UNL     1      -2.755  -0.161   2.170  0.00  0.00    -0.389 OA
ATOM     23  H   UNL     1      -2.918  -0.351   3.104  0.00  0.00    +0.210 HD
ENDBRANCH  18  22
BRANCH   9  24
ATOM     24  O   UNL     1       4.363  -7.220  -0.564  0.00  0.00    -0.507 OA
ATOM     25  H   UNL     1       5.116  -7.369   0.024  0.00  0.00    +0.292 HD
ENDBRANCH   9  24
BRANCH  13  26
ATOM     26  O   UNL     1      -0.220  -4.849   3.350  0.00  0.00    -0.382 OA
BRANCH  26  27
ATOM     27  C   UNL     1      -0.426  -5.882   4.316  0.00  0.00    +0.387 C 
BRANCH  27  28
ATOM     28  C   UNL     1      -1.569  -5.502   5.221  0.00  0.00    +0.395 C 
ATOM     29  O   UNL     1      -2.153  -4.445   5.055  0.00  0.00    -0.242 OA
ATOM     30  O   UNL     1      -1.910  -6.253   6.120  0.00  0.00    -0.242 OA
ENDBRANCH  27  28
ENDBRANCH  26  27
ENDBRANCH  13  26
TORSDOF 6
