REMARK  Name = ZINC39326857
REMARK  8 active torsions:
REMARK  status: ('A' for Active; 'I' for Inactive)
REMARK    1  A    between atoms: C_1  and  O_2
REMARK    2  A    between atoms: O_2  and  C_3
REMARK    3  A    between atoms: C_7  and  C_9
REMARK    4  A    between atoms: C_17  and  N_31
REMARK    5  A    between atoms: C_18  and  C_29
REMARK    6  A    between atoms: C_19  and  C_21
REMARK    7  A    between atoms: C_25  and  O_27
REMARK    8  A    between atoms: O_27  and  C_28
REMARK                            x       y       z     vdW  Elec       q    Type
REMARK                         _______ _______ _______ _____ _____    ______ ____
ROOT
ATOM      1  C   UNL     1      -2.557  -4.139   0.016  0.00  0.00    +0.016 C 
ATOM      2  C   UNL     1      -3.745  -4.759   0.126  0.00  0.00    +0.009 C 
ATOM      3  C   UNL     1      -5.042  -3.977   0.133  0.00  0.00    +0.120 C 
ATOM      4  N   UNL     1      -5.910  -4.593   1.153  0.00  0.00    -0.308 NA
ATOM      5  C   UNL     1      -6.240  -5.971   0.788  0.00  0.00    +0.117 C 
ATOM      6  C   UNL     1      -5.000  -6.797   0.559  0.00  0.00    -0.001 C 
ATOM      7  C   UNL     1      -3.835  -6.230   0.238  0.00  0.00    +0.136 C 
ATOM      8  O   UNL     1      -2.718  -6.964   0.016  0.00  0.00    -0.441 OA
ATOM      9  C   UNL     1      -2.821  -8.268  -0.295  0.00  0.00    +0.199 C 
ATOM     10  C   UNL     1      -3.946  -8.966  -0.001  0.00  0.00    +0.098 C 
ATOM     11  C   UNL     1      -5.106  -8.297   0.694  0.00  0.00    +0.095 C 
ATOM     12  H   UNL     1      -5.480  -4.553   2.066  0.00  0.00    +0.123 HD
ENDROOT
BRANCH   1  17
ATOM     13  C   UNL     1      -1.424  -0.559  -0.008  0.00  0.00    +0.121 A 
ATOM     14  C   UNL     1      -2.410   0.027  -0.791  0.00  0.00    +0.045 A 
ATOM     15  C   UNL     1      -3.437  -0.740  -1.309  0.00  0.00    +0.004 A 
ATOM     16  C   UNL     1      -3.491  -2.094  -1.050  0.00  0.00    +0.008 A 
ATOM     17  C   UNL     1      -2.504  -2.694  -0.263  0.00  0.00    -0.021 A 
ATOM     18  C   UNL     1      -1.464  -1.917   0.254  0.00  0.00    +0.053 A 
BRANCH  13  20
ATOM     19  C   UNL     1      -0.439   1.596   0.187  0.00  0.00    +0.277 C 
ATOM     20  O   UNL     1      -0.417   0.201   0.497  0.00  0.00    -0.495 OA
ENDBRANCH  13  20
ENDBRANCH   1  17
BRANCH  11  21
ATOM     21  C   UNL     1      -5.112  -8.667   2.155  0.00  0.00    -0.031 A 
ATOM     22  C   UNL     1      -4.040  -8.327   2.959  0.00  0.00    +0.005 A 
ATOM     23  C   UNL     1      -4.043  -8.665   4.299  0.00  0.00    +0.004 A 
ATOM     24  C   UNL     1      -5.119  -9.344   4.839  0.00  0.00    +0.045 A 
ATOM     25  C   UNL     1      -6.196  -9.687   4.035  0.00  0.00    +0.120 A 
ATOM     26  C   UNL     1      -6.192  -9.341   2.691  0.00  0.00    +0.050 A 
BRANCH  25  27
ATOM     27  O   UNL     1      -7.254 -10.355   4.563  0.00  0.00    -0.495 OA
ATOM     28  C   UNL     1      -7.192 -10.673   5.955  0.00  0.00    +0.277 C 
ENDBRANCH  25  27
ENDBRANCH  11  21
BRANCH   9  29
ATOM     29  N   UNL     1      -1.774  -8.900  -0.920  0.00  0.00    -0.328 N 
ATOM     30  H   UNL     1      -0.967  -8.407  -1.134  0.00  0.00    +0.145 HD
ATOM     31  H   UNL     1      -1.842  -9.841  -1.147  0.00  0.00    +0.145 HD
ENDBRANCH   9  29
BRANCH  10  32
ATOM     32  C   UNL     1      -4.028 -10.354  -0.344  0.00  0.00    +0.101 C 
ATOM     33  N   UNL     1      -4.093 -11.455  -0.616  0.00  0.00    -0.191 NA
ENDBRANCH  10  32
TORSDOF 6
