REMARK  Name = ZINC33413685
REMARK  10 active torsions:
REMARK  status: ('A' for Active; 'I' for Inactive)
REMARK    1  A    between atoms: C_1  and  O_2
REMARK    2  A    between atoms: O_2  and  C_3
REMARK    3  A    between atoms: C_5  and  C_13
REMARK    4  A    between atoms: C_7  and  O_11
REMARK    5  A    between atoms: C_8  and  O_9
REMARK    6  A    between atoms: O_9  and  C_10
REMARK    7  A    between atoms: O_11  and  C_12
REMARK    8  A    between atoms: C_15  and  N_30
REMARK    9  A    between atoms: C_20  and  C_23
REMARK   10  A    between atoms: C_27  and  O_29
REMARK                            x       y       z     vdW  Elec       q    Type
REMARK                         _______ _______ _______ _____ _____    ______ ____
ROOT
ATOM      1  C   UNL     1       4.209   8.962   0.009  0.00  0.00    +0.095 A 
ATOM      2  C   UNL     1       3.330  10.062   0.024  0.00  0.00    +0.073 A 
ATOM      3  C   UNL     1       2.060   9.578   0.029  0.00  0.00    +0.123 A 
ATOM      4  N   UNL     1       2.136   8.217   0.026  0.00  0.00    -0.194 N 
ATOM      5  N   UNL     1       3.490   7.860   0.011  0.00  0.00    -0.163 NA
ATOM      6  C   UNL     1       1.057   7.337   0.032  0.00  0.00    +0.196 A 
ATOM      7  N   UNL     1       1.056   6.018   0.025  0.00  0.00    -0.221 NA
ATOM      8  C   UNL     1      -0.076   5.331   0.031  0.00  0.00    +0.081 A 
ATOM      9  C   UNL     1      -1.268   6.001   0.041  0.00  0.00    +0.077 A 
ATOM     10  S   UNL     1      -0.694   7.695   0.050  0.00  0.00    -0.056 S 
ENDROOT
BRANCH   1  13
ATOM     11  C   UNL     1       7.829   7.931  -0.032  0.00  0.00    +0.166 A 
ATOM     12  C   UNL     1       6.446   7.862  -0.018  0.00  0.00    +0.059 A 
ATOM     13  C   UNL     1       5.691   9.034  -0.005  0.00  0.00    +0.009 A 
ATOM     14  C   UNL     1       6.330  10.272  -0.010  0.00  0.00    +0.059 A 
ATOM     15  C   UNL     1       7.713  10.337  -0.019  0.00  0.00    +0.166 A 
ATOM     16  C   UNL     1       8.464   9.167  -0.032  0.00  0.00    +0.204 A 
BRANCH  11  18
ATOM     17  C   UNL     1       7.847   5.552  -0.044  0.00  0.00    +0.277 C 
ATOM     18  O   UNL     1       8.565   6.787  -0.045  0.00  0.00    -0.491 OA
ENDBRANCH  11  18
BRANCH  16  19
ATOM     19  O   UNL     1       9.823   9.233  -0.047  0.00  0.00    -0.488 OA
ATOM     20  C   UNL     1      10.458   9.271  -1.327  0.00  0.00    +0.277 C 
ENDBRANCH  16  19
BRANCH  15  21
ATOM     21  O   UNL     1       8.336  11.546  -0.019  0.00  0.00    -0.491 OA
ATOM     22  C   UNL     1       7.502  12.706  -0.005  0.00  0.00    +0.277 C 
ENDBRANCH  15  21
ENDBRANCH   1  13
BRANCH   8  23
ATOM     23  C   UNL     1      -0.051   3.848   0.023  0.00  0.00    +0.004 A 
ATOM     24  C   UNL     1      -1.246   3.129   0.030  0.00  0.00    +0.010 A 
ATOM     25  C   UNL     1      -1.220   1.749   0.017  0.00  0.00    +0.004 A 
ATOM     26  C   UNL     1      -0.013   1.076   0.008  0.00  0.00    +0.045 A 
ATOM     27  C   UNL     1       1.181   1.784   0.000  0.00  0.00    +0.117 A 
ATOM     28  C   UNL     1       1.165   3.169   0.008  0.00  0.00    +0.055 A 
BRANCH  27  29
ATOM     29  O   UNL     1       2.366   1.119  -0.014  0.00  0.00    -0.507 OA
ATOM     30  H   UNL     1       3.312   1.680  -0.020  0.00  0.00    +0.292 HD
ENDBRANCH  27  29
ENDBRANCH   8  23
BRANCH   3  31
ATOM     31  N   UNL     1       0.893  10.336   0.038  0.00  0.00    -0.343 N 
ATOM     32  H   UNL     1      -0.087   9.836   0.041  0.00  0.00    +0.144 HD
ATOM     33  H   UNL     1       0.950  11.434   0.042  0.00  0.00    +0.144 HD
ENDBRANCH   3  31
TORSDOF 7
