REMARK  Name = ZINC61371041
REMARK  6 active torsions:
REMARK  status: ('A' for Active; 'I' for Inactive)
REMARK    1  A    between atoms: C_1  and  C_2
REMARK    2  A    between atoms: C_2  and  C_3
REMARK    3  A    between atoms: C_3  and  C_5
REMARK    4  A    between atoms: C_3  and  C_9
REMARK    5  A    between atoms: N_6  and  O_7
REMARK    6  A    between atoms: N_11  and  C_12
REMARK                            x       y       z     vdW  Elec       q    Type
REMARK                         _______ _______ _______ _____ _____    ______ ____
ROOT
ATOM      1  C   UNL     1       2.208  -0.296  -1.092  0.00  0.00    +0.224 C 
ATOM      2  O   UNL     1       3.022  -1.195  -1.133  0.00  0.00    -0.275 OA
ATOM      3  N   UNL     1       2.620   0.980  -0.963  0.00  0.00    -0.308 N 
ATOM      4  H   UNL     1       1.977   1.704  -1.010  0.00  0.00    +0.149 HD
ENDROOT
BRANCH   3   5
ATOM      5  C   UNL     1       4.040   1.274  -0.751  0.00  0.00    +0.104 C 
ATOM      6  C   UNL     1       4.184   2.622  -0.044  0.00  0.00    +0.027 C 
ATOM      7  C   UNL     1       3.722   3.751  -0.970  0.00  0.00    +0.007 C 
ATOM      8  C   UNL     1       4.745   3.907  -2.106  0.00  0.00    +0.043 C 
ATOM      9  C   UNL     1       5.045   2.551  -2.657  0.00  0.00    -0.005 A 
ATOM     10  C   UNL     1       4.754   1.342  -2.097  0.00  0.00    -0.017 A 
ATOM     11  C   UNL     1       5.140   0.209  -2.814  0.00  0.00    +0.013 A 
ATOM     12  C   UNL     1       5.772   0.343  -4.003  0.00  0.00    +0.046 A 
ATOM     13  S   UNL     1       5.856   2.127  -4.175  0.00  0.00    -0.101 S 
ENDBRANCH   3   5
BRANCH   1  14
ATOM     14  C   UNL     1       0.737  -0.608  -1.187  0.00  0.00    +0.141 C 
BRANCH  14  15
ATOM     15  C   UNL     1       0.543  -2.100  -1.272  0.00  0.00    +0.144 C 
ATOM     16  N   UNL     1       0.304  -2.782  -0.202  0.00  0.00    -0.076 NA
ATOM     17  N   UNL     1       0.621  -2.735  -2.491  0.00  0.00    -0.343 N 
ATOM     18  H   UNL     1       0.800  -2.223  -3.295  0.00  0.00    +0.144 HD
ATOM     19  H   UNL     1       0.496  -3.696  -2.546  0.00  0.00    +0.144 HD
BRANCH  16  20
ATOM     20  O   UNL     1       0.122  -4.184  -0.282  0.00  0.00    -0.408 OA
ATOM     21  H   UNL     1      -0.052  -4.608   0.570  0.00  0.00    +0.328 HD
ENDBRANCH  16  20
ENDBRANCH  14  15
BRANCH  14  23
ATOM     22  C   UNL     1      -1.489  -0.254  -0.108  0.00  0.00    +0.005 C 
ATOM     23  C   UNL     1       0.021  -0.071   0.054  0.00  0.00    +0.017 C 
ENDBRANCH  14  23
ENDBRANCH   1  14
TORSDOF 5
