REMARK  Name = ZINC06832140
REMARK  12 active torsions:
REMARK  status: ('A' for Active; 'I' for Inactive)
REMARK    1  A    between atoms: C_1  and  C_2
REMARK    2  A    between atoms: C_2  and  C_3
REMARK    3  A    between atoms: C_3  and  C_4
REMARK    4  A    between atoms: C_4  and  N_5
REMARK    5  A    between atoms: N_5  and  C_6
REMARK    6  A    between atoms: C_7  and  N_18
REMARK    7  A    between atoms: N_8  and  C_15
REMARK    8  A    between atoms: C_15  and  C_16
REMARK    9  A    between atoms: C_16  and  C_17
REMARK   10  A    between atoms: C_19  and  C_21
REMARK   11  A    between atoms: C_21  and  N_22
REMARK   12  A    between atoms: C_30  and  C_32
REMARK                            x       y       z     vdW  Elec       q    Type
REMARK                         _______ _______ _______ _____ _____    ______ ____
ROOT
ATOM      1  N   UNL     1      -1.729   5.748  -2.991  0.00  0.00    -0.263 N 
ATOM      2  C   UNL     1      -2.139   4.749  -2.181  0.00  0.00    +0.237 C 
ATOM      3  O   UNL     1      -2.264   3.625  -2.620  0.00  0.00    -0.274 OA
ENDROOT
BRANCH   1   4
ATOM      4  C   UNL     1      -1.537   5.506  -4.367  0.00  0.00    +0.140 A 
ATOM      5  C   UNL     1      -0.516   4.684  -4.800  0.00  0.00    +0.127 A 
ATOM      6  N   UNL     1      -0.354   4.467  -6.148  0.00  0.00    -0.280 N 
ATOM      7  C   UNL     1      -1.181   5.049  -7.036  0.00  0.00    +0.331 A 
ATOM      8  O   UNL     1      -1.022   4.845  -8.224  0.00  0.00    -0.246 OA
ATOM      9  N   UNL     1      -2.182   5.852  -6.633  0.00  0.00    -0.273 N 
ATOM     10  H   UNL     1      -2.780   6.276  -7.313  0.00  0.00    +0.173 HD
ATOM     11  C   UNL     1      -2.387   6.093  -5.323  0.00  0.00    +0.277 A 
ATOM     12  O   UNL     1      -3.300   6.820  -4.968  0.00  0.00    -0.266 OA
BRANCH   5  13
ATOM     13  N   UNL     1       0.329   4.090  -3.894  0.00  0.00    -0.343 N 
ATOM     14  H   UNL     1       0.178   4.205  -2.942  0.00  0.00    +0.144 HD
ATOM     15  H   UNL     1       1.077   3.557  -4.205  0.00  0.00    +0.144 HD
ENDBRANCH   5  13
BRANCH   6  16
ATOM     16  C   UNL     1       0.725   3.597  -6.621  0.00  0.00    +0.128 C 
BRANCH  16  17
ATOM     17  C   UNL     1       0.217   2.156  -6.709  0.00  0.00    +0.018 C 
ATOM     18  C   UNL     1       1.345   1.247  -7.203  0.00  0.00    +0.005 C 
ENDBRANCH  16  17
ENDBRANCH   6  16
ENDBRANCH   1   4
BRANCH   1  19
ATOM     19  C   UNL     1      -1.484   7.083  -2.441  0.00  0.00    +0.114 C 
BRANCH  19  20
ATOM     20  C   UNL     1      -0.001   7.227  -2.093  0.00  0.00    +0.019 C 
BRANCH  20  22
ATOM     21  C   UNL     1       1.738   8.766  -1.170  0.00  0.00    +0.004 C 
ATOM     22  C   UNL     1       0.255   8.622  -1.518  0.00  0.00    -0.002 C 
ENDBRANCH  20  22
ENDBRANCH  19  20
ENDBRANCH   1  19
BRANCH   2  23
ATOM     23  C   UNL     1      -2.440   5.030  -0.731  0.00  0.00    +0.201 C 
BRANCH  23  24
ATOM     24  N   UNL     1      -2.874   3.791  -0.072  0.00  0.00    -0.321 N 
ATOM     25  C   UNL     1      -4.123   3.297  -0.654  0.00  0.00    +0.106 C 
ATOM     26  C   UNL     1      -4.512   1.992   0.053  0.00  0.00    +0.024 C 
ATOM     27  C   UNL     1      -3.487   0.924  -0.333  0.00  0.00    +0.038 C 
ATOM     28  C   UNL     1      -2.093   1.481  -0.190  0.00  0.00    -0.026 A 
ATOM     29  C   UNL     1      -1.854   2.840  -0.076  0.00  0.00    +0.033 A 
ATOM     30  C   UNL     1      -0.541   3.297   0.042  0.00  0.00    +0.023 A 
ATOM     31  C   UNL     1       0.510   2.406   0.054  0.00  0.00    +0.005 A 
ATOM     32  C   UNL     1       0.266   1.049  -0.050  0.00  0.00    -0.050 A 
ATOM     33  C   UNL     1      -1.032   0.590  -0.168  0.00  0.00    +0.008 A 
ATOM     34  C   UNL     1       1.413   0.071  -0.033  0.00  0.00    +0.044 C 
ENDBRANCH  23  24
ENDBRANCH   2  23
TORSDOF 9
