REMARK  Name = ZINC49122891
REMARK  7 active torsions:
REMARK  status: ('A' for Active; 'I' for Inactive)
REMARK    1  A    between atoms: C_1  and  C_2
REMARK    2  A    between atoms: C_2  and  C_3
REMARK    3  A    between atoms: C_9  and  N_11
REMARK    4  A    between atoms: N_11  and  S_12
REMARK    5  A    between atoms: S_12  and  C_15
REMARK    6  A    between atoms: C_20  and  N_21
REMARK    7  A    between atoms: N_21  and  N_22
REMARK                            x       y       z     vdW  Elec       q    Type
REMARK                         _______ _______ _______ _____ _____    ______ ____
ROOT
ATOM      1  S   UNL     1      -1.274  -3.926  -0.728  0.00  0.00    +0.062 S 
ATOM      2  O   UNL     1      -2.649  -4.184  -0.981  0.00  0.00    -0.153 OA
ATOM      3  O   UNL     1      -0.242  -4.802  -1.161  0.00  0.00    -0.153 OA
ENDROOT
BRANCH   1   4
ATOM      4  C   UNL     1      -1.104  -3.772   1.019  0.00  0.00    +0.147 A 
ATOM      5  C   UNL     1      -0.117  -4.469   1.692  0.00  0.00    +0.048 A 
ATOM      6  C   UNL     1      -0.019  -4.317   3.069  0.00  0.00    +0.038 A 
ATOM      7  C   UNL     1      -0.904  -3.481   3.722  0.00  0.00    +0.128 A 
ATOM      8  N   UNL     1      -1.836  -2.829   3.054  0.00  0.00    -0.236 NA
ATOM      9  C   UNL     1      -1.957  -2.942   1.740  0.00  0.00    +0.159 A 
ATOM     10 BR   UNL     1       1.311  -5.246   4.041  0.00  0.00    -0.049 Br
BRANCH   9  11
ATOM     11  N   UNL     1      -2.950  -2.231   1.075  0.00  0.00    -0.266 N 
ATOM     12  H   UNL     1      -2.990  -2.244   0.106  0.00  0.00    +0.167 HD
BRANCH  11  13
ATOM     13  N   UNL     1      -3.869  -1.514   1.788  0.00  0.00    -0.255 NA
ATOM     14  H   UNL     1      -4.523  -1.053   1.173  0.00  0.00    +0.140 HD
ATOM     15  H   UNL     1      -4.350  -2.102   2.452  0.00  0.00    +0.140 HD
ENDBRANCH  11  13
ENDBRANCH   9  11
ENDBRANCH   1   4
BRANCH   1  16
ATOM     16  N   UNL     1      -0.943  -2.442  -1.385  0.00  0.00    -0.187 NA
ATOM     17  H   UNL     1      -1.642  -1.946  -1.838  0.00  0.00    +0.148 HD
BRANCH  16  23
ATOM     18  C   UNL     1       0.316  -0.361  -1.131  0.00  0.00    +0.007 C 
ATOM     19  C   UNL     1       1.724   0.226  -1.023  0.00  0.00    +0.005 C 
ATOM     20  C   UNL     1       2.516  -0.114  -2.288  0.00  0.00    +0.000 C 
ATOM     21  C   UNL     1       2.607  -1.634  -2.439  0.00  0.00    +0.002 C 
ATOM     22  C   UNL     1       1.198  -2.221  -2.546  0.00  0.00    +0.020 C 
ATOM     23  C   UNL     1       0.406  -1.881  -1.282  0.00  0.00    +0.080 C 
BRANCH  18  25
ATOM     24  C   UNL     1      -0.674   1.494   0.220  0.00  0.00    +0.004 C 
ATOM     25  C   UNL     1      -0.476  -0.021   0.134  0.00  0.00    +0.002 C 
ENDBRANCH  18  25
ENDBRANCH  16  23
ENDBRANCH   1  16
TORSDOF 6
