REMARK  Name = ZINC11575732
REMARK  7 active torsions:
REMARK  status: ('A' for Active; 'I' for Inactive)
REMARK    1  A    between atoms: C_1  and  S_2
REMARK    2  A    between atoms: S_2  and  C_3
REMARK    3  A    between atoms: C_7  and  C_9
REMARK    4  A    between atoms: C_9  and  O_11
REMARK    5  A    between atoms: O_11  and  C_12
REMARK    6  A    between atoms: C_12  and  C_13
REMARK    7  A    between atoms: C_21  and  N_23
REMARK                            x       y       z     vdW  Elec       q    Type
REMARK                         _______ _______ _______ _____ _____    ______ ____
ROOT
ATOM      1  C   UNL     1       2.372   5.548   0.007  0.00  0.00    +0.308 C 
ENDROOT
BRANCH   1   2
ATOM      2  C   UNL     1       2.380   4.041  -0.000  0.00  0.00    +0.169 A 
ATOM      3  N   UNL     1       1.231   3.408   0.009  0.00  0.00    -0.228 NA
ATOM      4  C   UNL     1       1.193   2.067   0.002  0.00  0.00    +0.076 A 
ATOM      5  C   UNL     1      -0.016   1.359   0.009  0.00  0.00    +0.028 A 
ATOM      6  C   UNL     1       0.002  -0.004   0.002  0.00  0.00    +0.002 A 
ATOM      7  C   UNL     1       1.204  -0.705  -0.013  0.00  0.00    +0.001 A 
ATOM      8  C   UNL     1       2.399  -0.047  -0.021  0.00  0.00    +0.013 A 
ATOM      9  C   UNL     1       2.415   1.352  -0.014  0.00  0.00    +0.040 A 
ATOM     10  C   UNL     1       3.623   2.091  -0.023  0.00  0.00    +0.128 A 
ATOM     11  N   UNL     1       3.547   3.416  -0.015  0.00  0.00    -0.214 NA
BRANCH  10  12
ATOM     12  N   UNL     1       4.844   1.452  -0.038  0.00  0.00    -0.343 N 
ATOM     13  H   UNL     1       4.885   0.483  -0.043  0.00  0.00    +0.144 HD
ATOM     14  H   UNL     1       5.663   1.972  -0.043  0.00  0.00    +0.144 HD
ENDBRANCH  10  12
ENDBRANCH   1   2
BRANCH   1  15
ATOM     15  O   UNL     1       2.356   6.038  -1.359  0.00  0.00    -0.452 OA
BRANCH  15  16
ATOM     16  C   UNL     1       2.346   7.374  -1.529  0.00  0.00    +0.360 C 
ATOM     17  O   UNL     1       2.352   8.109  -0.562  0.00  0.00    -0.243 OA
BRANCH  16  22
ATOM     18  C   UNL     1       2.308   7.660  -5.184  0.00  0.00    +0.189 A 
ATOM     19  N   UNL     1       2.299   8.970  -5.395  0.00  0.00    -0.229 NA
ATOM     20  C   UNL     1       2.304   9.821  -4.385  0.00  0.00    +0.136 A 
ATOM     21  C   UNL     1       2.320   9.331  -3.084  0.00  0.00    +0.091 A 
ATOM     22  C   UNL     1       2.329   7.948  -2.896  0.00  0.00    +0.170 A 
ATOM     23  N   UNL     1       2.329   7.152  -3.963  0.00  0.00    -0.214 NA
ATOM     24 CL   UNL     1       2.327  10.414  -1.727  0.00  0.00    -0.080 Cl
BRANCH  18  26
ATOM     25  C   UNL     1       2.281   7.774  -7.918  0.00  0.00    +0.093 C 
ATOM     26  S   UNL     1       2.301   6.569  -6.567  0.00  0.00    -0.089 S 
ENDBRANCH  18  26
ENDBRANCH  16  22
ENDBRANCH  15  16
ENDBRANCH   1  15
TORSDOF 6
