REMARK  Name = ZINC36580571
REMARK  22 active torsions:
REMARK  status: ('A' for Active; 'I' for Inactive)
REMARK    1  A    between atoms: C_1  and  C_2
REMARK    2  A    between atoms: C_2  and  C_3
REMARK    3  A    between atoms: C_2  and  C_4
REMARK    4  A    between atoms: C_4  and  C_5
REMARK    5  A    between atoms: N_7  and  C_8
REMARK    6  A    between atoms: N_7  and  C_30
REMARK    7  A    between atoms: C_8  and  C_10
REMARK    8  A    between atoms: C_8  and  C_19
REMARK    9  A    between atoms: C_11  and  O_18
REMARK   10  A    between atoms: C_13  and  O_17
REMARK   11  A    between atoms: C_15  and  O_16
REMARK   12  A    between atoms: N_21  and  C_22
REMARK   13  A    between atoms: C_22  and  C_23
REMARK   14  A    between atoms: C_22  and  C_24
REMARK   15  A    between atoms: C_22  and  C_25
REMARK   16  A    between atoms: C_25  and  C_26
REMARK   17  A    between atoms: C_26  and  C_27
REMARK   18  A    between atoms: C_26  and  C_28
REMARK   19  A    between atoms: C_26  and  C_29
REMARK   20  A    between atoms: C_30  and  C_31
REMARK   21  A    between atoms: C_30  and  C_32
REMARK   22  A    between atoms: C_30  and  C_33
REMARK                            x       y       z     vdW  Elec       q    Type
REMARK                         _______ _______ _______ _____ _____    ______ ____
ROOT
ATOM      1  C   UNL     1      -4.689  -0.821   0.884  0.00  0.00    +0.200 C 
ENDROOT
BRANCH   1   2
ATOM      2  C   UNL     1      -4.521   0.387  -0.002  0.00  0.00    +0.065 A 
ATOM      3  C   UNL     1      -3.256   0.906  -0.234  0.00  0.00    +0.129 A 
ATOM      4  C   UNL     1      -3.102   2.017  -1.050  0.00  0.00    +0.091 A 
ATOM      5  C   UNL     1      -4.212   2.608  -1.633  0.00  0.00    +0.124 A 
ATOM      6  C   UNL     1      -5.477   2.088  -1.402  0.00  0.00    +0.091 A 
ATOM      7  C   UNL     1      -5.631   0.975  -0.590  0.00  0.00    +0.129 A 
BRANCH   7   8
ATOM      8  O   UNL     1      -6.870   0.463  -0.367  0.00  0.00    -0.506 OA
ATOM      9  H   UNL     1      -7.320   0.842   0.400  0.00  0.00    +0.292 HD
ENDBRANCH   7   8
BRANCH   5  10
ATOM     10  O   UNL     1      -4.061   3.698  -2.432  0.00  0.00    -0.507 OA
ATOM     11  H   UNL     1      -3.928   3.485  -3.366  0.00  0.00    +0.292 HD
ENDBRANCH   5  10
BRANCH   3  12
ATOM     12  O   UNL     1      -2.168   0.327   0.338  0.00  0.00    -0.506 OA
ATOM     13  H   UNL     1      -1.695  -0.283  -0.245  0.00  0.00    +0.292 HD
ENDBRANCH   3  12
ENDBRANCH   1   2
BRANCH   1  14
ATOM     14  C   UNL     1      -4.309  -2.062   0.119  0.00  0.00    +0.239 C 
ATOM     15  O   UNL     1      -3.266  -2.631   0.364  0.00  0.00    -0.273 OA
ATOM     16  N   UNL     1      -5.128  -2.541  -0.838  0.00  0.00    -0.308 N 
ATOM     17  H   UNL     1      -5.962  -2.086  -1.035  0.00  0.00    +0.149 HD
BRANCH  16  18
ATOM     18  C   UNL     1      -4.759  -3.748  -1.582  0.00  0.00    +0.030 C 
ATOM     19  C   UNL     1      -3.514  -3.466  -2.425  0.00  0.00    +0.031 C 
ATOM     20  C   UNL     1      -4.464  -4.882  -0.599  0.00  0.00    +0.031 C 
BRANCH  18  21
ATOM     21  C   UNL     1      -5.914  -4.155  -2.499  0.00  0.00    +0.031 C 
BRANCH  21  22
ATOM     22  C   UNL     1      -7.111  -4.589  -1.651  0.00  0.00    -0.036 C 
ATOM     23  C   UNL     1      -7.201  -3.703  -0.406  0.00  0.00    +0.010 C 
ATOM     24  C   UNL     1      -8.395  -4.449  -2.470  0.00  0.00    +0.010 C 
ATOM     25  C   UNL     1      -6.933  -6.048  -1.226  0.00  0.00    +0.010 C 
ENDBRANCH  21  22
ENDBRANCH  18  21
ENDBRANCH  16  18
ENDBRANCH   1  14
BRANCH   1  28
ATOM     26  C   UNL     1      -3.687   0.509   2.663  0.00  0.00    +0.217 C 
ATOM     27  O   UNL     1      -2.885   0.646   3.562  0.00  0.00    -0.276 OA
ATOM     28  N   UNL     1      -3.824  -0.688   2.059  0.00  0.00    -0.281 N 
BRANCH  28  29
ATOM     29  C   UNL     1      -3.109  -1.856   2.578  0.00  0.00    +0.030 C 
ATOM     30  C   UNL     1      -2.817  -1.656   4.067  0.00  0.00    +0.031 C 
ATOM     31  C   UNL     1      -3.971  -3.106   2.392  0.00  0.00    +0.031 C 
ATOM     32  C   UNL     1      -1.792  -2.027   1.818  0.00  0.00    +0.031 C 
ENDBRANCH  28  29
BRANCH  26  33
ATOM     33  C   UNL     1      -4.530   1.677   2.221  0.00  0.00    +0.099 C 
BRANCH  33  35
ATOM     34  C   UNL     1      -5.063   4.080   2.649  0.00  0.00    +0.008 C 
ATOM     35  C   UNL     1      -4.305   2.857   3.168  0.00  0.00    -0.008 C 
ATOM     36  C   UNL     1      -4.815   2.495   4.564  0.00  0.00    +0.008 C 
ENDBRANCH  33  35
ENDBRANCH  26  33
ENDBRANCH   1  28
TORSDOF 12
