REMARK  Name = ZINC40217910
REMARK  4 active torsions:
REMARK  status: ('A' for Active; 'I' for Inactive)
REMARK    1  A    between atoms: C_1  and  C_2
REMARK    2  A    between atoms: C_3  and  C_13
REMARK    3  A    between atoms: C_7  and  C_8
REMARK    4  A    between atoms: N_9  and  O_10
REMARK                            x       y       z     vdW  Elec       q    Type
REMARK                         _______ _______ _______ _____ _____    ______ ____
ROOT
ATOM      1  C   UNL     1      -0.018   1.503   0.010  0.00  0.00    +0.046 C 
ATOM      2  C   UNL     1       0.002  -0.004   0.002  0.00  0.00    -0.012 A 
ATOM      3  C   UNL     1       0.006  -0.712  -1.188  0.00  0.00    +0.064 A 
ATOM      4  N   UNL     1       0.024  -2.031  -1.174  0.00  0.00    -0.151 NA
ATOM      5  N   UNL     1       0.038  -2.710  -0.086  0.00  0.00    -0.106 NA
ATOM      6  C   UNL     1       0.036  -2.134   1.106  0.00  0.00    +0.299 A 
ATOM      7  C   UNL     1       0.023  -0.733   1.197  0.00  0.00    +0.090 A 
ATOM      8  O   UNL     1       0.051  -2.891   2.230  0.00  0.00    -0.264 OA
ATOM      9  C   UNL     1      -0.010   0.025  -2.502  0.00  0.00    +0.068 C 
ENDROOT
BRANCH   7  10
ATOM     10  C   UNL     1       0.027  -0.050   2.510  0.00  0.00    +0.168 C 
ATOM     11  N   UNL     1      -1.098   0.234   3.098  0.00  0.00    -0.071 NA
ATOM     12  N   UNL     1       1.227   0.285   3.113  0.00  0.00    -0.340 N 
ATOM     13  H   UNL     1       2.066   0.073   2.675  0.00  0.00    +0.144 HD
ATOM     14  H   UNL     1       1.229   0.733   3.974  0.00  0.00    +0.144 HD
BRANCH  11  15
ATOM     15  O   UNL     1      -1.095   0.887   4.354  0.00  0.00    -0.408 OA
ATOM     16  H   UNL     1      -1.978   1.057   4.712  0.00  0.00    +0.328 HD
ENDBRANCH  11  15
ENDBRANCH   7  10
TORSDOF 2
