REMARK  Name = ZINC36637788
REMARK  10 active torsions:
REMARK  status: ('A' for Active; 'I' for Inactive)
REMARK    1  A    between atoms: C_1  and  C_2
REMARK    2  A    between atoms: C_2  and  N_3
REMARK    3  A    between atoms: N_3  and  C_4
REMARK    4  A    between atoms: N_3  and  C_6
REMARK    5  A    between atoms: C_4  and  C_5
REMARK    6  A    between atoms: C_6  and  C_7
REMARK    7  A    between atoms: C_7  and  N_8
REMARK    8  A    between atoms: C_19  and  C_21
REMARK    9  A    between atoms: C_24  and  S_27
REMARK   10  A    between atoms: S_27  and  N_30
REMARK                            x       y       z     vdW  Elec       q    Type
REMARK                         _______ _______ _______ _____ _____    ______ ____
ROOT
ATOM      1  N   UNL     1       1.154  -4.278  -3.050  0.00  0.00    -0.248 N 
ATOM      2  C   UNL     1       0.360  -4.893  -4.003  0.00  0.00    +0.168 A 
ATOM      3  N   UNL     1      -0.099  -4.406  -5.131  0.00  0.00    -0.224 NA
ATOM      4  C   UNL     1      -0.871  -5.127  -5.974  0.00  0.00    +0.080 A 
ATOM      5  C   UNL     1      -1.426  -4.724  -7.210  0.00  0.00    +0.032 A 
ATOM      6  C   UNL     1      -2.194  -5.586  -7.948  0.00  0.00    +0.040 A 
ATOM      7  C   UNL     1      -2.454  -6.880  -7.513  0.00  0.00    +0.125 A 
ATOM      8  C   UNL     1      -1.926  -7.307  -6.306  0.00  0.00    +0.055 A 
ATOM      9  C   UNL     1      -1.156  -6.449  -5.562  0.00  0.00    +0.043 A 
ATOM     10  S   UNL     1      -0.294  -6.557  -4.012  0.00  0.00    -0.052 S 
ATOM     11  F   UNL     1      -3.216  -7.710  -8.258  0.00  0.00    -0.205 F 
ATOM     12  C   UNL     1       1.531  -4.955  -1.947  0.00  0.00    +0.252 C 
ATOM     13  O   UNL     1       1.219  -6.123  -1.815  0.00  0.00    -0.270 OA
ENDROOT
BRANCH  12  14
ATOM     14  C   UNL     1       2.323  -4.278  -0.899  0.00  0.00    +0.037 A 
ATOM     15  C   UNL     1       2.177  -2.906  -0.686  0.00  0.00    +0.015 A 
ATOM     16  C   UNL     1       2.919  -2.281   0.294  0.00  0.00    +0.029 A 
ATOM     17  C   UNL     1       3.807  -3.010   1.065  0.00  0.00    +0.106 A 
ATOM     18  C   UNL     1       3.956  -4.370   0.860  0.00  0.00    +0.029 A 
ATOM     19  C   UNL     1       3.216  -5.009  -0.113  0.00  0.00    +0.015 A 
BRANCH  17  20
ATOM     20  S   UNL     1       4.752  -2.203   2.314  0.00  0.00    +0.061 S 
ATOM     21  O   UNL     1       5.964  -2.933   2.442  0.00  0.00    -0.153 OA
ATOM     22  O   UNL     1       4.727  -0.815   2.010  0.00  0.00    -0.153 OA
BRANCH  20  23
ATOM     23  N   UNL     1       3.935  -2.388   3.743  0.00  0.00    -0.177 NA
ATOM     24  C   UNL     1       2.857  -1.462   4.115  0.00  0.00    +0.109 C 
ATOM     25  C   UNL     1       1.599  -2.273   4.440  0.00  0.00    +0.017 C 
ATOM     26  C   UNL     1       1.931  -3.314   5.512  0.00  0.00    +0.003 C 
ATOM     27  C   UNL     1       3.001  -4.272   4.981  0.00  0.00    +0.017 C 
ATOM     28  C   UNL     1       4.270  -3.486   4.660  0.00  0.00    +0.109 C 
ENDBRANCH  20  23
ENDBRANCH  17  20
ENDBRANCH  12  14
BRANCH   1  29
ATOM     29  C   UNL     1       1.584  -2.890  -3.240  0.00  0.00    +0.097 C 
BRANCH  29  30
ATOM     30  C   UNL     1       0.427  -1.947  -2.904  0.00  0.00    -0.059 C 
BRANCH  30  31
ATOM     31  N   UNL     1       0.893  -0.556  -2.974  0.00  0.00    +0.380 N 
ATOM     32  H   UNL     1       1.687  -0.436  -2.363  0.00  0.00    -0.082 HD
BRANCH  31  34
ATOM     33  C   UNL     1       1.888   1.165  -4.404  0.00  0.00    -0.017 C 
ATOM     34  C   UNL     1       1.286  -0.240  -4.354  0.00  0.00    -0.082 C 
ENDBRANCH  31  34
BRANCH  31  35
ATOM     35  C   UNL     1      -0.189   0.345  -2.555  0.00  0.00    -0.082 C 
ATOM     36  C   UNL     1      -0.481   0.134  -1.068  0.00  0.00    -0.017 C 
ENDBRANCH  31  35
ENDBRANCH  30  31
ENDBRANCH  29  30
ENDBRANCH   1  29
TORSDOF 8
