REMARK  Name = ZINC13634042
REMARK  7 active torsions:
REMARK  status: ('A' for Active; 'I' for Inactive)
REMARK    1  A    between atoms: C_1  and  C_2
REMARK    2  A    between atoms: C_2  and  C_3
REMARK    3  A    between atoms: C_2  and  C_4
REMARK    4  A    between atoms: C_7  and  N_10
REMARK    5  A    between atoms: C_19  and  C_21
REMARK    6  A    between atoms: C_21  and  S_22
REMARK    7  A    between atoms: S_22  and  C_23
REMARK                            x       y       z     vdW  Elec       q    Type
REMARK                         _______ _______ _______ _____ _____    ______ ____
ROOT
ATOM      1  N   UNL     1      -4.972  -2.999  -2.063  0.00  0.00    -0.328 N 
ATOM      2  C   UNL     1      -5.766  -2.804  -0.956  0.00  0.00    +0.180 C 
ATOM      3  N   UNL     1      -5.356  -2.035   0.012  0.00  0.00    -0.371 N 
ATOM      4  N   UNL     1      -6.996  -3.423  -0.872  0.00  0.00    -0.298 N 
ATOM      5  C   UNL     1      -7.483  -4.132  -1.943  0.00  0.00    +0.211 A 
ATOM      6  N   UNL     1      -8.760  -4.599  -1.910  0.00  0.00    -0.293 N 
ATOM      7  C   UNL     1      -9.246  -5.296  -2.959  0.00  0.00    +0.253 A 
ATOM      8  O   UNL     1     -10.390  -5.723  -2.947  0.00  0.00    -0.268 OA
ATOM      9  C   UNL     1      -8.409  -5.522  -4.067  0.00  0.00    +0.094 A 
ATOM     10  C   UNL     1      -7.138  -5.029  -4.043  0.00  0.00    +0.060 A 
ATOM     11  N   UNL     1      -6.707  -4.343  -2.986  0.00  0.00    -0.218 NA
ATOM     12  H   UNL     1      -5.310  -3.503  -2.820  0.00  0.00    +0.169 HD
ATOM     13  H   UNL     1      -5.886  -1.948   0.819  0.00  0.00    +0.159 HD
ATOM     14  H   UNL     1      -4.521  -1.549  -0.075  0.00  0.00    +0.159 HD
ATOM     15  H   UNL     1      -7.517  -3.358  -0.056  0.00  0.00    +0.172 HD
ATOM     16  H   UNL     1      -9.320  -4.432  -1.136  0.00  0.00    +0.172 HD
ENDROOT
BRANCH   1  20
ATOM     17  C   UNL     1      -1.117  -1.423  -2.165  0.00  0.00    -0.045 A 
ATOM     18  C   UNL     1      -2.181  -0.620  -1.796  0.00  0.00    +0.006 A 
ATOM     19  C   UNL     1      -3.461  -1.139  -1.762  0.00  0.00    +0.026 A 
ATOM     20  C   UNL     1      -3.678  -2.469  -2.098  0.00  0.00    +0.042 A 
ATOM     21  C   UNL     1      -2.607  -3.273  -2.467  0.00  0.00    +0.026 A 
ATOM     22  C   UNL     1      -1.331  -2.746  -2.505  0.00  0.00    +0.006 A 
BRANCH  17  24
ATOM     23  C   UNL     1       0.325   0.314  -3.192  0.00  0.00    +0.012 C 
ATOM     24  C   UNL     1       0.277  -0.852  -2.202  0.00  0.00    +0.013 C 
ATOM     25  C   UNL     1       0.661  -0.353  -0.807  0.00  0.00    +0.012 C 
ENDBRANCH  17  24
ENDBRANCH   1  20
BRANCH  10  26
ATOM     26  C   UNL     1      -6.220  -5.256  -5.217  0.00  0.00    +0.132 C 
BRANCH  26  27
ATOM     27  S   UNL     1      -6.063  -3.720  -6.168  0.00  0.00    -0.093 S 
BRANCH  27  28
ATOM     28  C   UNL     1      -4.975  -4.144  -7.487  0.00  0.00    +0.136 A 
ATOM     29  N   UNL     1      -4.404  -5.300  -7.746  0.00  0.00    -0.233 NA
ATOM     30  C   UNL     1      -3.584  -5.482  -8.804  0.00  0.00    +0.079 A 
ATOM     31  C   UNL     1      -2.911  -6.664  -9.192  0.00  0.00    +0.029 A 
ATOM     32  C   UNL     1      -2.108  -6.680 -10.303  0.00  0.00    +0.002 A 
ATOM     33  C   UNL     1      -1.927  -5.546 -11.082  0.00  0.00    +0.001 A 
ATOM     34  C   UNL     1      -2.570  -4.373 -10.731  0.00  0.00    +0.017 A 
ATOM     35  C   UNL     1      -3.376  -4.348  -9.621  0.00  0.00    +0.040 A 
ATOM     36  S   UNL     1      -4.372  -3.115  -8.818  0.00  0.00    -0.061 S 
ENDBRANCH  27  28
ENDBRANCH  26  27
ENDBRANCH  10  26
TORSDOF 5
