REMARK  Name = ZINC07537924
REMARK  10 active torsions:
REMARK  status: ('A' for Active; 'I' for Inactive)
REMARK    1  A    between atoms: C_1  and  C_2
REMARK    2  A    between atoms: C_5  and  C_8
REMARK    3  A    between atoms: C_8  and  N_44
REMARK    4  A    between atoms: C_9  and  C_10
REMARK    5  A    between atoms: C_9  and  N_44
REMARK    6  A    between atoms: C_12  and  O_22
REMARK    7  A    between atoms: C_13  and  O_17
REMARK    8  A    between atoms: O_17  and  C_18
REMARK    9  A    between atoms: C_18  and  C_19
REMARK   10  A    between atoms: O_22  and  C_23
REMARK                            x       y       z     vdW  Elec       q    Type
REMARK                         _______ _______ _______ _____ _____    ______ ____
ROOT
ATOM      1  C   UNL     1       1.171   2.089   0.002  0.00  0.00    -0.060 A 
ATOM      2  C   UNL     1      -0.017   1.381   0.010  0.00  0.00    +0.051 A 
ATOM      3  C   UNL     1       0.002  -0.004   0.002  0.00  0.00    +0.163 A 
ATOM      4  C   UNL     1       1.218  -0.680  -0.013  0.00  0.00    +0.176 A 
ATOM      5  C   UNL     1       2.405   0.035  -0.021  0.00  0.00    +0.063 A 
ATOM      6  C   UNL     1       2.379   1.418  -0.013  0.00  0.00    +0.021 A 
ATOM      7 BR   UNL     1       4.060  -0.880  -0.041  0.00  0.00    -0.046 Br
ENDROOT
BRANCH   3   8
ATOM      8  O   UNL     1      -1.165  -0.701   0.009  0.00  0.00    -0.491 OA
ATOM      9  C   UNL     1      -2.375   0.059   0.024  0.00  0.00    +0.277 C 
ENDBRANCH   3   8
BRANCH   1  10
ATOM     10  C   UNL     1       1.148   3.596   0.010  0.00  0.00    -0.046 C 
BRANCH  10  11
ATOM     11  N   UNL     1       1.154   4.072   1.406  0.00  0.00    +0.384 N 
ATOM     12  H   UNL     1       0.326   3.708   1.891  0.00  0.00    -0.085 HD
ATOM     13  H   UNL     1       2.002   3.734   1.876  0.00  0.00    -0.085 HD
BRANCH  11  14
ATOM     14  C   UNL     1       1.132   5.547   1.444  0.00  0.00    -0.046 C 
BRANCH  14  19
ATOM     15  C   UNL     1       1.156   7.300   6.950  0.00  0.00    +0.044 C 
ATOM     16  C   UNL     1       1.150   6.843   5.514  0.00  0.00    -0.050 A 
ATOM     17  C   UNL     1       2.344   6.651   4.845  0.00  0.00    +0.003 A 
ATOM     18  C   UNL     1       2.338   6.231   3.528  0.00  0.00    +0.002 A 
ATOM     19  C   UNL     1       1.138   6.004   2.880  0.00  0.00    -0.064 A 
ATOM     20  C   UNL     1      -0.056   6.200   3.548  0.00  0.00    +0.002 A 
ATOM     21  C   UNL     1      -0.050   6.615   4.867  0.00  0.00    +0.003 A 
ENDBRANCH  14  19
ENDBRANCH  11  14
ENDBRANCH  10  11
ENDBRANCH   1  10
BRANCH   4  22
ATOM     22  O   UNL     1       1.242  -2.040  -0.020  0.00  0.00    -0.478 OA
BRANCH  22  23
ATOM     23  C   UNL     1       1.240  -2.683  -1.297  0.00  0.00    +0.324 C 
BRANCH  23  24
ATOM     24  C   UNL     1       1.268  -4.177  -1.107  0.00  0.00    +0.248 C 
ATOM     25  O   UNL     1       1.287  -4.646   0.011  0.00  0.00    -0.272 OA
ATOM     26  N   UNL     1       1.272  -4.993  -2.180  0.00  0.00    -0.327 N 
ATOM     27  H   UNL     1       1.257  -4.618  -3.075  0.00  0.00    +0.145 HD
ATOM     28  H   UNL     1       1.290  -5.955  -2.058  0.00  0.00    +0.145 HD
ENDBRANCH  23  24
ENDBRANCH  22  23
ENDBRANCH   4  22
TORSDOF 8
