REMARK  Name = ZINC09439354
REMARK  9 active torsions:
REMARK  status: ('A' for Active; 'I' for Inactive)
REMARK    1  A    between atoms: C_4  and  O_28
REMARK    2  A    between atoms: C_5  and  C_7
REMARK    3  A    between atoms: C_8  and  C_9
REMARK    4  A    between atoms: C_8  and  C_12
REMARK    5  A    between atoms: C_9  and  N_11
REMARK    6  A    between atoms: C_12  and  O_14
REMARK    7  A    between atoms: O_14  and  C_15
REMARK    8  A    between atoms: C_15  and  C_16
REMARK    9  A    between atoms: N_18  and  C_19
REMARK                            x       y       z     vdW  Elec       q    Type
REMARK                         _______ _______ _______ _____ _____    ______ ____
ROOT
ATOM      1  C   UNL     1       4.281   8.092  -1.262  0.00  0.00    +0.342 C 
ATOM      2  O   UNL     1       5.276   7.422  -1.455  0.00  0.00    -0.245 OA
ENDROOT
BRANCH   1   4
ATOM      3  C   UNL     1       5.594  10.175  -1.438  0.00  0.00    +0.029 C 
ATOM      4  C   UNL     1       4.375   9.559  -1.240  0.00  0.00    +0.088 C 
BRANCH   3   9
ATOM      5  C   UNL     1       4.755  13.699  -2.383  0.00  0.00    +0.001 A 
ATOM      6  C   UNL     1       5.802  14.393  -1.795  0.00  0.00    +0.004 A 
ATOM      7  C   UNL     1       6.781  13.720  -1.091  0.00  0.00    +0.046 A 
ATOM      8  C   UNL     1       6.725  12.341  -0.967  0.00  0.00    +0.124 A 
ATOM      9  C   UNL     1       5.666  11.631  -1.561  0.00  0.00    +0.017 A 
ATOM     10  C   UNL     1       4.683  12.329  -2.277  0.00  0.00    +0.011 A 
BRANCH   8  11
ATOM     11  O   UNL     1       7.686  11.679  -0.275  0.00  0.00    -0.506 OA
ATOM     12  H   UNL     1       8.438  11.401  -0.816  0.00  0.00    +0.292 HD
ENDBRANCH   8  11
ENDBRANCH   3   9
BRANCH   4  13
ATOM     13  C   UNL     1       3.172  10.368  -1.007  0.00  0.00    +0.084 C 
ATOM     14  S   UNL     1       1.983  10.507  -2.231  0.00  0.00    -0.035 S 
BRANCH  13  15
ATOM     15  N   UNL     1       3.004  11.002   0.171  0.00  0.00    -0.352 N 
ATOM     16  H   UNL     1       3.709  10.983   0.837  0.00  0.00    +0.143 HD
ATOM     17  H   UNL     1       2.178  11.477   0.352  0.00  0.00    +0.143 HD
ENDBRANCH  13  15
ENDBRANCH   4  13
ENDBRANCH   1   4
BRANCH   1  18
ATOM     18  O   UNL     1       3.090   7.490  -1.069  0.00  0.00    -0.452 OA
BRANCH  18  19
ATOM     19  C   UNL     1       3.072   6.039  -1.104  0.00  0.00    +0.328 C 
BRANCH  19  20
ATOM     20  C   UNL     1       1.666   5.548  -0.870  0.00  0.00    +0.255 C 
ATOM     21  O   UNL     1       0.768   6.344  -0.691  0.00  0.00    -0.272 OA
ATOM     22  N   UNL     1       1.407   4.226  -0.860  0.00  0.00    -0.280 N 
ATOM     23  H   UNL     1       2.131   3.589  -0.963  0.00  0.00    +0.155 HD
BRANCH  22  24
ATOM     24  C   UNL     1       0.091   3.771  -0.701  0.00  0.00    +0.071 A 
ATOM     25  C   UNL     1      -0.947   4.393  -1.383  0.00  0.00    +0.065 A 
ATOM     26  C   UNL     1      -2.244   3.941  -1.224  0.00  0.00    +0.042 A 
ATOM     27  C   UNL     1      -2.509   2.875  -0.383  0.00  0.00    +0.044 A 
ATOM     28  C   UNL     1      -1.476   2.251   0.294  0.00  0.00    +0.042 A 
ATOM     29  C   UNL     1      -0.177   2.697   0.139  0.00  0.00    +0.065 A 
ATOM     30 CL   UNL     1       1.117   1.917   0.993  0.00  0.00    -0.082 Cl
ATOM     31 CL   UNL     1      -4.140   2.317  -0.180  0.00  0.00    -0.083 Cl
ATOM     32 CL   UNL     1      -0.616   5.734  -2.434  0.00  0.00    -0.082 Cl
ENDBRANCH  22  24
ENDBRANCH  19  20
ENDBRANCH  18  19
ENDBRANCH   1  18
TORSDOF 9
