REMARK  Name = ZINC35174072
REMARK  14 active torsions:
REMARK  status: ('A' for Active; 'I' for Inactive)
REMARK    1  A    between atoms: C_1  and  C_2
REMARK    2  A    between atoms: C_2  and  O_3
REMARK    3  A    between atoms: O_3  and  C_4
REMARK    4  A    between atoms: C_4  and  C_6
REMARK    5  A    between atoms: C_6  and  N_7
REMARK    6  A    between atoms: N_7  and  C_8
REMARK    7  A    between atoms: C_9  and  C_18
REMARK    8  A    between atoms: C_13  and  C_17
REMARK    9  A    between atoms: C_22  and  O_24
REMARK   10  A    between atoms: O_24  and  S_25
REMARK   11  A    between atoms: S_25  and  C_28
REMARK   12  A    between atoms: C_29  and  C_36
REMARK   13  A    between atoms: C_31  and  C_35
REMARK   14  A    between atoms: C_33  and  C_34
REMARK                            x       y       z     vdW  Elec       q    Type
REMARK                         _______ _______ _______ _____ _____    ______ ____
ROOT
ATOM      1  C   UNL     1       1.848  -4.283  -4.618  0.00  0.00    +0.130 A 
ATOM      2  C   UNL     1       2.273  -5.576  -4.395  0.00  0.00    +0.087 A 
ATOM      3  N   UNL     1       3.131  -5.908  -5.378  0.00  0.00    -0.338 N 
ATOM      4  C   UNL     1       3.263  -4.885  -6.206  0.00  0.00    +0.117 A 
ATOM      5  N   UNL     1       2.467  -3.855  -5.760  0.00  0.00    -0.286 N 
ATOM      6  C   UNL     1       2.416  -2.672  -6.447  0.00  0.00    +0.024 A 
ATOM      7  C   UNL     1       3.140  -2.500  -7.572  0.00  0.00    +0.021 A 
ATOM      8  C   UNL     1       3.959  -3.536  -8.055  0.00  0.00    +0.005 A 
ATOM      9  C   UNL     1       4.028  -4.714  -7.379  0.00  0.00    +0.045 A 
ATOM     10  C   UNL     1       1.543  -1.552  -5.944  0.00  0.00    +0.064 C 
ATOM     11  H   UNL     1       3.581  -6.763  -5.465  0.00  0.00    +0.167 HD
ENDROOT
BRANCH   2  12
ATOM     12  C   UNL     1       1.859  -6.447  -3.270  0.00  0.00    +0.005 A 
ATOM     13  C   UNL     1       2.054  -6.029  -1.953  0.00  0.00    +0.010 A 
ATOM     14  C   UNL     1       1.667  -6.842  -0.908  0.00  0.00    +0.004 A 
ATOM     15  C   UNL     1       1.086  -8.071  -1.161  0.00  0.00    +0.048 A 
ATOM     16  C   UNL     1       0.888  -8.495  -2.468  0.00  0.00    +0.157 A 
ATOM     17  C   UNL     1       1.268  -7.683  -3.524  0.00  0.00    +0.058 A 
BRANCH  16  18
ATOM     18  O   UNL     1       0.317  -9.703  -2.711  0.00  0.00    -0.342 OA
BRANCH  18  19
ATOM     19  S   UNL     1      -1.200  -9.659  -2.825  0.00  0.00    +0.151 S 
ATOM     20  O   UNL     1      -1.644 -11.008  -2.868  0.00  0.00    -0.131 OA
ATOM     21  O   UNL     1      -1.655  -8.739  -1.842  0.00  0.00    -0.131 OA
BRANCH  19  22
ATOM     22  C   UNL     1      -1.585  -8.952  -4.392  0.00  0.00    +0.134 A 
ATOM     23  C   UNL     1      -1.094  -9.528  -5.549  0.00  0.00    -0.022 A 
ATOM     24  C   UNL     1      -1.396  -8.973  -6.779  0.00  0.00    +0.008 A 
ATOM     25  C   UNL     1      -2.189  -7.843  -6.851  0.00  0.00    -0.050 A 
ATOM     26  C   UNL     1      -2.682  -7.269  -5.695  0.00  0.00    +0.008 A 
ATOM     27  C   UNL     1      -2.383  -7.826  -4.465  0.00  0.00    -0.022 A 
ATOM     28  C   UNL     1      -2.924  -7.202  -3.204  0.00  0.00    +0.046 C 
ATOM     29  C   UNL     1      -2.518  -7.238  -8.192  0.00  0.00    +0.044 C 
ATOM     30  C   UNL     1      -0.229 -10.759  -5.470  0.00  0.00    +0.046 C 
ENDBRANCH  19  22
ENDBRANCH  18  19
ENDBRANCH  16  18
ENDBRANCH   2  12
BRANCH   1  31
ATOM     31  N   UNL     1       0.954  -3.555  -3.833  0.00  0.00    -0.318 N 
ATOM     32  H   UNL     1       0.999  -2.586  -3.820  0.00  0.00    +0.148 HD
BRANCH  31  33
ATOM     33  C   UNL     1      -0.052  -4.253  -3.030  0.00  0.00    +0.224 C 
BRANCH  33  34
ATOM     34  C   UNL     1      -0.903  -3.244  -2.303  0.00  0.00    +0.324 C 
ATOM     35  O   UNL     1      -0.691  -2.062  -2.442  0.00  0.00    -0.249 OA
BRANCH  34  36
ATOM     36  O   UNL     1      -1.897  -3.657  -1.501  0.00  0.00    -0.464 OA
BRANCH  36  38
ATOM     37  C   UNL     1      -3.742  -3.304   0.020  0.00  0.00    +0.048 C 
ATOM     38  C   UNL     1      -2.664  -2.646  -0.844  0.00  0.00    +0.229 C 
ENDBRANCH  36  38
ENDBRANCH  34  36
ENDBRANCH  33  34
ENDBRANCH  31  33
ENDBRANCH   1  31
TORSDOF 9
