REMARK  Name = ZINC20205949
REMARK  9 active torsions:
REMARK  status: ('A' for Active; 'I' for Inactive)
REMARK    1  A    between atoms: C_1  and  C_2
REMARK    2  A    between atoms: C_2  and  O_3
REMARK    3  A    between atoms: O_3  and  C_4
REMARK    4  A    between atoms: C_6  and  C_16
REMARK    5  A    between atoms: C_9  and  O_10
REMARK    6  A    between atoms: O_10  and  S_11
REMARK    7  A    between atoms: S_11  and  C_14
REMARK    8  A    between atoms: C_27  and  S_28
REMARK    9  A    between atoms: S_28  and  C_31
REMARK                            x       y       z     vdW  Elec       q    Type
REMARK                         _______ _______ _______ _____ _____    ______ ____
ROOT
ATOM      1  C   UNL     1       0.186  -4.851  -0.949  0.00  0.00    +0.024 C 
ATOM      2  C   UNL     1       0.721  -6.104  -1.145  0.00  0.00    +0.079 C 
ATOM      3  C   UNL     1       0.150  -7.057  -2.141  0.00  0.00    +0.138 C 
ATOM      4  N   UNL     1      -0.408  -6.679  -3.259  0.00  0.00    -0.284 NA
ATOM      5  N   UNL     1       0.275  -8.406  -1.752  0.00  0.00    -0.201 N 
ATOM      6  C   UNL     1       1.263  -8.740  -0.851  0.00  0.00    +0.183 C 
ATOM      7  N   UNL     1       2.062  -7.909  -0.219  0.00  0.00    -0.152 NA
ATOM      8  C   UNL     1       1.901  -6.580  -0.383  0.00  0.00    +0.273 C 
ATOM      9  O   UNL     1       2.703  -5.789   0.087  0.00  0.00    -0.268 OA
ATOM     10  S   UNL     1       1.159 -10.402  -0.769  0.00  0.00    +0.049 S 
ATOM     11  N   UNL     1      -0.169 -10.640  -1.765  0.00  0.00    -0.174 NA
ATOM     12  C   UNL     1      -0.476  -9.449  -2.177  0.00  0.00    +0.257 C 
ATOM     13  H   UNL     1      -0.468  -5.736  -3.478  0.00  0.00    +0.188 HD
ENDROOT
BRANCH   1  16
ATOM     14  C   UNL     1       1.326  -1.873   1.020  0.00  0.00    +0.167 A 
ATOM     15  C   UNL     1       0.884  -2.650  -0.031  0.00  0.00    +0.057 A 
ATOM     16  C   UNL     1       0.655  -4.020   0.162  0.00  0.00    -0.019 A 
ATOM     17  C   UNL     1       0.877  -4.592   1.423  0.00  0.00    +0.032 A 
ATOM     18  C   UNL     1       1.318  -3.807   2.466  0.00  0.00    +0.090 A 
ATOM     19  C   UNL     1       1.549  -2.450   2.270  0.00  0.00    +0.216 A 
ATOM     20 CL   UNL     1       1.591  -4.516   4.027  0.00  0.00    -0.080 Cl
BRANCH  14  21
ATOM     21  O   UNL     1       1.548  -0.544   0.836  0.00  0.00    -0.488 OA
BRANCH  21  23
ATOM     22  C   UNL     1       1.603   1.480  -0.484  0.00  0.00    +0.048 C 
ATOM     23  C   UNL     1       1.299  -0.019  -0.470  0.00  0.00    +0.226 C 
ENDBRANCH  21  23
ENDBRANCH  14  21
BRANCH  19  24
ATOM     24  O   UNL     1       1.989  -1.683   3.300  0.00  0.00    -0.341 OA
BRANCH  24  25
ATOM     25  S   UNL     1       0.875  -1.063   4.131  0.00  0.00    +0.118 S 
ATOM     26  O   UNL     1       1.527  -0.115   4.964  0.00  0.00    -0.137 OA
ATOM     27  O   UNL     1      -0.096  -0.645   3.180  0.00  0.00    -0.137 OA
ATOM     28  C   UNL     1       0.222  -2.429   5.130  0.00  0.00    +0.242 C 
ENDBRANCH  24  25
ENDBRANCH  19  24
ENDBRANCH   1  16
BRANCH  12  29
ATOM     29  S   UNL     1      -1.839  -9.195  -3.265  0.00  0.00    +0.026 S 
ATOM     30  O   UNL     1      -2.628 -10.370  -3.137  0.00  0.00    -0.167 OA
ATOM     31  O   UNL     1      -2.364  -7.926  -2.898  0.00  0.00    -0.167 OA
ATOM     32  C   UNL     1      -1.105  -9.112  -4.921  0.00  0.00    +0.203 C 
ENDBRANCH  12  29
TORSDOF 6
