REMARK  Name = ZINC44452622
REMARK  5 active torsions:
REMARK  status: ('A' for Active; 'I' for Inactive)
REMARK    1  A    between atoms: C_3  and  O_9
REMARK    2  A    between atoms: O_9  and  C_10
REMARK    3  A    between atoms: C_10  and  C_11
REMARK    4  A    between atoms: N_13  and  C_14
REMARK    5  A    between atoms: C_15  and  C_22
REMARK                            x       y       z     vdW  Elec       q    Type
REMARK                         _______ _______ _______ _____ _____    ______ ____
ROOT
ATOM      1  C   UNL     1       6.272   6.013  -0.028  0.00  0.00    +0.085 A 
ATOM      2  C   UNL     1       6.623   7.351  -0.019  0.00  0.00    +0.069 A 
ATOM      3  C   UNL     1       8.050   7.668  -0.033  0.00  0.00    -0.023 A 
ATOM      4  C   UNL     1       8.852   6.588  -0.054  0.00  0.00    -0.004 A 
ATOM      5  S   UNL     1       7.741   5.205  -0.046  0.00  0.00    -0.077 S 
ATOM      6  C   UNL     1      10.307   6.971  -0.072  0.00  0.00    +0.043 C 
ATOM      7  C   UNL     1      10.315   8.458  -0.491  0.00  0.00    +0.010 C 
ATOM      8  C   UNL     1       8.920   8.923  -0.027  0.00  0.00    +0.037 C 
ENDROOT
BRANCH   2   9
ATOM      9  C   UNL     1       5.607   8.406   0.003  0.00  0.00    +0.254 C 
ATOM     10  O   UNL     1       5.198   8.834   1.066  0.00  0.00    -0.270 OA
ATOM     11  N   UNL     1       5.126   8.902  -1.154  0.00  0.00    -0.236 N 
ATOM     12  C   UNL     1       4.192   9.873  -1.134  0.00  0.00    +0.304 C 
ATOM     13  O   UNL     1       3.783  10.301  -0.072  0.00  0.00    -0.253 OA
ATOM     14  N   UNL     1       3.711  10.370  -2.291  0.00  0.00    -0.313 N 
ATOM     15  H   UNL     1       5.453   8.561  -2.001  0.00  0.00    +0.159 HD
ATOM     16  H   UNL     1       4.037  10.028  -3.138  0.00  0.00    +0.146 HD
ATOM     17  H   UNL     1       3.038  11.068  -2.277  0.00  0.00    +0.146 HD
ENDBRANCH   2   9
BRANCH   1  20
ATOM     18  C   UNL     1       4.839   4.127  -0.023  0.00  0.00    +0.255 C 
ATOM     19  O   UNL     1       5.811   3.402  -0.036  0.00  0.00    -0.272 OA
ATOM     20  N   UNL     1       4.998   5.466  -0.018  0.00  0.00    -0.277 N 
ATOM     21  H   UNL     1       4.221   6.046  -0.008  0.00  0.00    +0.155 HD
BRANCH  18  22
ATOM     22  C   UNL     1       3.454   3.533  -0.013  0.00  0.00    +0.325 C 
BRANCH  22  23
ATOM     23  O   UNL     1       3.548   2.107  -0.021  0.00  0.00    -0.481 OA
BRANCH  23  26
ATOM     24  C   UNL     1      -0.017   1.379   0.010  0.00  0.00    +0.023 A 
ATOM     25  C   UNL     1       1.170   2.088   0.002  0.00  0.00    +0.048 A 
ATOM     26  C   UNL     1       2.380   1.411  -0.013  0.00  0.00    +0.140 A 
ATOM     27  C   UNL     1       2.398   0.023  -0.021  0.00  0.00    +0.084 A 
ATOM     28  C   UNL     1       1.209  -0.682  -0.013  0.00  0.00    +0.043 A 
ATOM     29  C   UNL     1       0.002  -0.004   0.002  0.00  0.00    +0.043 A 
ATOM     30 CL   UNL     1      -1.490  -0.891   0.012  0.00  0.00    -0.083 Cl
ATOM     31 CL   UNL     1       3.911  -0.827  -0.040  0.00  0.00    -0.080 Cl
ENDBRANCH  23  26
ENDBRANCH  22  23
ENDBRANCH  18  22
ENDBRANCH   1  20
TORSDOF 5
