REMARK  Name = ZINC09934538
REMARK  8 active torsions:
REMARK  status: ('A' for Active; 'I' for Inactive)
REMARK    1  A    between atoms: C_1  and  O_2
REMARK    2  A    between atoms: O_2  and  C_3
REMARK    3  A    between atoms: C_8  and  N_9
REMARK    4  A    between atoms: C_10  and  C_12
REMARK    5  A    between atoms: C_17  and  O_33
REMARK    6  A    between atoms: N_22  and  C_23
REMARK    7  A    between atoms: C_26  and  S_29
REMARK    8  A    between atoms: S_29  and  N_32
REMARK                            x       y       z     vdW  Elec       q    Type
REMARK                         _______ _______ _______ _____ _____    ______ ____
ROOT
ATOM      1  C   UNL     1       3.504   3.210  -0.313  0.00  0.00    +0.099 A 
ATOM      2  C   UNL     1       2.332   3.911  -0.066  0.00  0.00    +0.030 A 
ATOM      3  C   UNL     1       1.120   3.180   0.021  0.00  0.00    +0.018 A 
ATOM      4  C   UNL     1      -0.112   3.851   0.064  0.00  0.00    +0.015 A 
ATOM      5  C   UNL     1      -1.274   3.137   0.090  0.00  0.00    +0.046 A 
ATOM      6  C   UNL     1      -1.248   1.744   0.077  0.00  0.00    +0.120 A 
ATOM      7  C   UNL     1      -0.040   1.063   0.062  0.00  0.00    +0.092 A 
ATOM      8  C   UNL     1       1.149   1.772   0.043  0.00  0.00    +0.141 A 
ATOM      9  O   UNL     1       2.337   1.118   0.067  0.00  0.00    -0.437 OA
ATOM     10  C   UNL     1       3.396   1.750  -0.501  0.00  0.00    +0.233 A 
ATOM     11  N   UNL     1       4.294   1.085  -1.195  0.00  0.00    -0.213 NA
ENDROOT
BRANCH  11  12
ATOM     12  C   UNL     1       4.229  -0.279  -1.269  0.00  0.00    +0.068 A 
ATOM     13  C   UNL     1       4.807  -1.065  -0.269  0.00  0.00    +0.030 A 
ATOM     14  C   UNL     1       4.733  -2.440  -0.348  0.00  0.00    +0.030 A 
ATOM     15  C   UNL     1       4.096  -3.041  -1.419  0.00  0.00    +0.105 A 
ATOM     16  C   UNL     1       3.525  -2.269  -2.416  0.00  0.00    +0.030 A 
ATOM     17  C   UNL     1       3.587  -0.893  -2.348  0.00  0.00    +0.030 A 
BRANCH  15  18
ATOM     18  S   UNL     1       4.012  -4.799  -1.515  0.00  0.00    +0.056 S 
ATOM     19  O   UNL     1       4.143  -5.284  -0.186  0.00  0.00    -0.153 OA
ATOM     20  O   UNL     1       2.891  -5.108  -2.332  0.00  0.00    -0.153 OA
BRANCH  18  21
ATOM     21  N   UNL     1       5.354  -5.309  -2.340  0.00  0.00    -0.204 NA
ATOM     22  H   UNL     1       6.000  -4.661  -2.664  0.00  0.00    +0.144 HD
ATOM     23  H   UNL     1       5.494  -6.255  -2.500  0.00  0.00    +0.144 HD
ENDBRANCH  18  21
ENDBRANCH  15  18
ENDBRANCH  11  12
BRANCH   1  25
ATOM     24  N   UNL     1       4.872   5.231  -0.209  0.00  0.00    -0.278 N 
ATOM     25  C   UNL     1       4.804   3.896  -0.384  0.00  0.00    +0.254 C 
ATOM     26  O   UNL     1       5.817   3.258  -0.602  0.00  0.00    -0.270 OA
ATOM     27  H   UNL     1       4.075   5.730   0.029  0.00  0.00    +0.155 HD
BRANCH  24  33
ATOM     28  C   UNL     1       6.123   7.187  -0.893  0.00  0.00    +0.141 A 
ATOM     29  C   UNL     1       7.334   7.840  -1.050  0.00  0.00    +0.047 A 
ATOM     30  C   UNL     1       8.511   7.212  -0.687  0.00  0.00    +0.004 A 
ATOM     31  C   UNL     1       8.483   5.931  -0.166  0.00  0.00    +0.002 A 
ATOM     32  C   UNL     1       7.279   5.274  -0.001  0.00  0.00    +0.027 A 
ATOM     33  C   UNL     1       6.094   5.896  -0.369  0.00  0.00    +0.076 A 
BRANCH  28  35
ATOM     34  C   UNL     1       5.070   9.126  -1.780  0.00  0.00    +0.277 C 
ATOM     35  O   UNL     1       4.964   7.803  -1.250  0.00  0.00    -0.493 OA
ENDBRANCH  28  35
ENDBRANCH  24  33
ENDBRANCH   1  25
BRANCH   6  36
ATOM     36  O   UNL     1      -2.413   1.048   0.085  0.00  0.00    -0.507 OA
ATOM     37  H   UNL     1      -2.742   0.842   0.971  0.00  0.00    +0.292 HD
ENDBRANCH   6  36
TORSDOF 7
