REMARK  Name = ZINC31160196
REMARK  6 active torsions:
REMARK  status: ('A' for Active; 'I' for Inactive)
REMARK    1  A    between atoms: C_1  and  C_2
REMARK    2  A    between atoms: C_2  and  C_3
REMARK    3  A    between atoms: C_2  and  C_4
REMARK    4  A    between atoms: C_2  and  O_22
REMARK    5  A    between atoms: C_12  and  C_18
REMARK    6  A    between atoms: C_12  and  O_21
REMARK                            x       y       z     vdW  Elec       q    Type
REMARK                         _______ _______ _______ _____ _____    ______ ____
ROOT
ATOM      1  C   UNL     1      -0.091   1.477   0.260  0.00  0.00    -0.039 C 
ATOM      2  C   UNL     1       0.943   2.273   0.327  0.00  0.00    -0.024 C 
ATOM      3  C   UNL     1       0.528   3.700   0.601  0.00  0.00    +0.037 C 
ATOM      4  C   UNL     1      -0.980   3.680   0.755  0.00  0.00    +0.007 C 
ATOM      5  C   UNL     1      -1.373   2.209   0.476  0.00  0.00    +0.026 C 
ATOM      6  C   UNL     1      -2.380   2.167  -0.636  0.00  0.00    +0.012 C 
ATOM      7  C   UNL     1      -3.718   2.645  -0.147  0.00  0.00    +0.050 C 
ATOM      8  C   UNL     1      -4.067   4.088  -0.334  0.00  0.00    +0.193 C 
ATOM      9  C   UNL     1      -3.015   4.940   0.460  0.00  0.00    +0.162 C 
ATOM     10  C   UNL     1      -1.637   4.674  -0.241  0.00  0.00    +0.045 C 
ATOM     11  O   UNL     1      -2.909   4.496   1.805  0.00  0.00    -0.373 OA
ATOM     12  C   UNL     1      -1.545   4.120   2.099  0.00  0.00    +0.168 C 
ENDROOT
BRANCH   1  14
ATOM     13  C   UNL     1      -0.275  -0.282  -1.477  0.00  0.00    +0.046 C 
ATOM     14  C   UNL     1       0.002  -0.004   0.002  0.00  0.00    +0.082 C 
ATOM     15  C   UNL     1       1.406  -0.497   0.359  0.00  0.00    +0.046 C 
BRANCH  14  16
ATOM     16  O   UNL     1      -0.962  -0.689   0.804  0.00  0.00    -0.385 OA
ATOM     17  H   UNL     1      -0.923  -0.607   1.901  0.00  0.00    +0.211 HD
ENDBRANCH  14  16
ENDBRANCH   1  14
BRANCH   8  18
ATOM     18  C   UNL     1      -4.116   4.481  -1.783  0.00  0.00    +0.390 C 
ATOM     19  O   UNL     1      -3.152   4.993  -2.303  0.00  0.00    -0.243 OA
ATOM     20  O   UNL     1      -5.230   4.265  -2.500  0.00  0.00    -0.243 OA
ENDBRANCH   8  18
BRANCH   8  21
ATOM     21  O   UNL     1      -5.365   4.331   0.247  0.00  0.00    -0.375 OA
ATOM     22  H   UNL     1      -5.803   5.339   0.212  0.00  0.00    +0.211 HD
ENDBRANCH   8  21
TORSDOF 4
