REMARK  Name = ZINC59384919
REMARK  6 active torsions:
REMARK  status: ('A' for Active; 'I' for Inactive)
REMARK    1  A    between atoms: C_1  and  C_2
REMARK    2  A    between atoms: C_3  and  C_18
REMARK    3  A    between atoms: C_4  and  C_10
REMARK    4  A    between atoms: N_20  and  N_21
REMARK    5  A    between atoms: C_22  and  C_23
REMARK    6  A    between atoms: C_28  and  O_29
REMARK                            x       y       z     vdW  Elec       q    Type
REMARK                         _______ _______ _______ _____ _____    ______ ____
ROOT
ATOM      1  C   UNL     1      -0.132   1.530  -0.041  0.00  0.00    +0.061 C 
ATOM      2  C   UNL     1      -0.065   0.025  -0.022  0.00  0.00    +0.017 C 
ATOM      3  C   UNL     1      -1.210  -0.691  -0.025  0.00  0.00    +0.057 C 
ATOM      4  C   UNL     1      -1.097  -2.202  -0.005  0.00  0.00    +0.141 C 
ATOM      5  N   UNL     1       0.261  -2.770   0.015  0.00  0.00    -0.315 N 
ATOM      6  C   UNL     1       1.310  -1.923   0.016  0.00  0.00    +0.135 C 
ATOM      7  S   UNL     1       2.896  -2.569   0.039  0.00  0.00    -0.019 S 
ATOM      8  N   UNL     1       1.153  -0.594  -0.008  0.00  0.00    -0.300 N 
ATOM      9  H   UNL     1       0.398  -3.730   0.029  0.00  0.00    +0.149 HD
ATOM     10  H   UNL     1       1.948  -0.038  -0.011  0.00  0.00    +0.154 HD
ENDROOT
BRANCH   4  11
ATOM     11  C   UNL     1      -1.829  -2.707   1.212  0.00  0.00    -0.004 A 
ATOM     12  C   UNL     1      -1.148  -2.893   2.400  0.00  0.00    +0.008 A 
ATOM     13  C   UNL     1      -1.819  -3.356   3.516  0.00  0.00    +0.020 A 
ATOM     14  C   UNL     1      -3.173  -3.633   3.445  0.00  0.00    +0.042 A 
ATOM     15  C   UNL     1      -3.855  -3.446   2.256  0.00  0.00    +0.040 A 
ATOM     16  C   UNL     1      -3.184  -2.978   1.141  0.00  0.00    +0.048 A 
ATOM     17 CL   UNL     1      -4.041  -2.737  -0.350  0.00  0.00    -0.083 Cl
ATOM     18 CL   UNL     1      -4.015  -4.215   4.847  0.00  0.00    -0.083 Cl
ENDBRANCH   4  11
BRANCH   3  19
ATOM     19  C   UNL     1      -2.473  -0.051  -0.045  0.00  0.00    +0.263 C 
ATOM     20  O   UNL     1      -3.089   0.048  -1.091  0.00  0.00    -0.269 OA
ATOM     21  N   UNL     1      -2.994   0.448   1.094  0.00  0.00    -0.203 N 
ATOM     22  H   UNL     1      -2.473   0.434   1.912  0.00  0.00    +0.178 HD
BRANCH  21  23
ATOM     23  N   UNL     1      -4.287   0.986   1.095  0.00  0.00    -0.187 NA
ATOM     24  C   UNL     1      -4.826   1.378   2.210  0.00  0.00    +0.142 C 
BRANCH  24  25
ATOM     25  C   UNL     1      -6.225   1.841   2.229  0.00  0.00    +0.036 A 
ATOM     26  C   UNL     1      -6.807   2.268   3.425  0.00  0.00    +0.013 A 
ATOM     27  C   UNL     1      -8.116   2.701   3.436  0.00  0.00    +0.001 A 
ATOM     28  C   UNL     1      -8.857   2.713   2.267  0.00  0.00    +0.004 A 
ATOM     29  C   UNL     1      -8.293   2.293   1.077  0.00  0.00    +0.046 A 
ATOM     30  C   UNL     1      -6.978   1.860   1.047  0.00  0.00    +0.125 A 
BRANCH  30  31
ATOM     31  O   UNL     1      -6.421   1.452  -0.123  0.00  0.00    -0.506 OA
ATOM     32  H   UNL     1      -6.530   0.508  -0.302  0.00  0.00    +0.292 HD
ENDBRANCH  30  31
ENDBRANCH  24  25
ENDBRANCH  21  23
ENDBRANCH   3  19
TORSDOF 5
