REMARK  Name = ZINC31160395
REMARK  7 active torsions:
REMARK  status: ('A' for Active; 'I' for Inactive)
REMARK    1  A    between atoms: C_1  and  C_2
REMARK    2  A    between atoms: C_2  and  C_35
REMARK    3  A    between atoms: C_13  and  C_30
REMARK    4  A    between atoms: C_14  and  O_29
REMARK    5  A    between atoms: C_30  and  C_31
REMARK    6  A    between atoms: C_30  and  C_32
REMARK    7  A    between atoms: C_30  and  C_33
REMARK                            x       y       z     vdW  Elec       q    Type
REMARK                         _______ _______ _______ _____ _____    ______ ____
ROOT
ATOM      1  C   UNK A   1       2.705  -1.850   5.202  0.00  0.00    +0.060 C 
ATOM      2  C   UNK A   1       1.239  -1.511   4.925  0.00  0.00    +0.124 C 
ATOM      3  C   UNK A   1       0.713  -0.637   6.032  0.00  0.00    +0.020 C 
ATOM      4  C   UNK A   1       0.823   0.687   5.945  0.00  0.00    +0.011 C 
ATOM      5  C   UNK A   1       1.456   1.255   4.735  0.00  0.00    +0.018 A 
ATOM      6  C   UNK A   1       1.910   2.571   4.704  0.00  0.00    +0.012 A 
ATOM      7  C   UNK A   1       2.489   3.064   3.551  0.00  0.00    +0.009 A 
ATOM      8  C   UNK A   1       2.619   2.261   2.434  0.00  0.00    +0.012 A 
ATOM      9  C   UNK A   1       2.184   0.939   2.453  0.00  0.00    +0.078 A 
ATOM     10  C   UNK A   1       1.593   0.437   3.609  0.00  0.00    +0.150 A 
ATOM     11  O   UNK A   1       1.140  -0.843   3.667  0.00  0.00    -0.480 OA
ATOM     12  N   UNK A   1       2.440   0.319   1.216  0.00  0.00    -0.317 N 
ATOM     13  C   UNK A   1       2.499   1.408   0.206  0.00  0.00    +0.144 C 
ATOM     14  C   UNK A   1       3.171   2.543   1.050  0.00  0.00    +0.133 C 
ATOM     15  C   UNK A   1       2.526   3.828   0.490  0.00  0.00    +0.075 C 
ATOM     16  C   UNK A   1       1.234   3.369  -0.203  0.00  0.00    +0.167 C 
ATOM     17  N   UNK A   1       1.131   1.914   0.002  0.00  0.00    -0.263 N 
ATOM     18  C   PRO A   2      -0.014   1.209   0.009  0.00  0.00    +0.238 C 
ATOM     19  O   PRO A   2       0.002  -0.004   0.002  0.00  0.00    -0.273 OA
ATOM     20  CA  PRO A   2      -1.320   1.965   0.019  0.00  0.00    +0.162 C 
ATOM     21  CB  PRO A   2      -2.312   1.283   0.991  0.00  0.00    +0.033 C 
ATOM     22  CG  PRO A   2      -3.238   2.476   1.358  0.00  0.00    +0.021 C 
ATOM     23  CD  PRO A   2      -2.246   3.665   1.429  0.00  0.00    +0.109 C 
ATOM     24  N   PRO A   2      -1.085   3.301   0.607  0.00  0.00    -0.288 N 
ATOM     25  C   UNK A   1       0.036   4.031   0.433  0.00  0.00    +0.237 C 
ATOM     26  O   UNK A   1       0.081   5.192   0.781  0.00  0.00    -0.274 OA
ATOM     27  C   UNK A   1       0.423  -2.805   4.873  0.00  0.00    +0.060 C 
ATOM     28  H   UNK A   1       2.587  -0.727   0.908  0.00  0.00    +0.148 HD
ENDROOT
BRANCH  13  29
ATOM     29  C   UNK A   1       3.232   1.035  -1.085  0.00  0.00    +0.024 C 
ATOM     30  C   UNK A   1       2.467  -0.079  -1.802  0.00  0.00    +0.019 C 
ATOM     31  C   UNK A   1       3.319   2.261  -1.995  0.00  0.00    +0.019 C 
BRANCH  29  32
ATOM     32  C   UNK A   1       4.622   0.556  -0.752  0.00  0.00    -0.024 C 
ATOM     33  C   UNK A   1       4.994  -0.655  -1.083  0.00  0.00    +0.004 C 
ENDBRANCH  29  32
ENDBRANCH  13  29
BRANCH  14  34
ATOM     34  O   UNK A   1       4.598   2.535   0.995  0.00  0.00    -0.380 OA
ATOM     35  H   UNK A   1       5.113   2.728   0.042  0.00  0.00    +0.211 HD
ENDBRANCH  14  34
TORSDOF 3
