REMARK  Name = ZINC61690189
REMARK  6 active torsions:
REMARK  status: ('A' for Active; 'I' for Inactive)
REMARK    1  A    between atoms: C_1  and  C_2
REMARK    2  A    between atoms: C_2  and  C_21
REMARK    3  A    between atoms: N_4  and  C_8
REMARK    4  A    between atoms: C_8  and  C_9
REMARK    5  A    between atoms: C_8  and  C_10
REMARK    6  A    between atoms: C_8  and  C_18
REMARK                            x       y       z     vdW  Elec       q    Type
REMARK                         _______ _______ _______ _____ _____    ______ ____
ROOT
ATOM      1  C   UNL     1       1.444  -2.486  -2.437  0.00  0.00    +0.147 C 
ATOM      2  C   UNL     1       2.809  -1.822  -2.632  0.00  0.00    +0.045 C 
ENDROOT
BRANCH   1   6
ATOM      3  C   UNL     1      -0.019   1.527   0.008  0.00  0.00    +0.042 C 
ATOM      4  C   UNL     1       0.010  -0.003   0.005  0.00  0.00    +0.077 C 
ATOM      5  C   UNL     1       0.723  -0.498  -1.256  0.00  0.00    +0.120 C 
ATOM      6  N   UNL     1       0.816  -1.965  -1.216  0.00  0.00    -0.279 NA
ATOM      7  C   UNL     1       1.544  -2.408  -0.018  0.00  0.00    +0.114 C 
ATOM      8  C   UNL     1       0.823  -1.893   1.231  0.00  0.00    +0.176 C 
ATOM      9  O   UNL     1       0.714  -0.469   1.159  0.00  0.00    -0.371 OA
ATOM     10  C   UNL     1      -1.422  -0.540   0.028  0.00  0.00    +0.042 C 
ENDBRANCH   1   6
BRANCH   1  11
ATOM     11  C   UNL     1       1.625  -3.977  -2.312  0.00  0.00    -0.015 A 
ATOM     12  C   UNL     1       0.677  -4.734  -1.649  0.00  0.00    +0.009 A 
ATOM     13  C   UNL     1       0.840  -6.102  -1.534  0.00  0.00    +0.040 A 
ATOM     14  C   UNL     1       1.955  -6.714  -2.082  0.00  0.00    +0.137 A 
ATOM     15  C   UNL     1       2.905  -5.954  -2.746  0.00  0.00    +0.053 A 
ATOM     16  C   UNL     1       2.735  -4.587  -2.864  0.00  0.00    +0.024 A 
ATOM     17 BR   UNL     1       4.427  -6.788  -3.495  0.00  0.00    -0.047 Br
ATOM     18  F   UNL     1       2.116  -8.050  -1.970  0.00  0.00    -0.204 F 
ENDBRANCH   1  11
BRANCH   1  19
ATOM     19  C   UNL     1       0.565  -2.184  -3.623  0.00  0.00    +0.380 C 
ATOM     20  O   UNL     1      -0.488  -1.590  -3.465  0.00  0.00    -0.244 OA
ATOM     21  O   UNL     1       0.906  -2.534  -4.740  0.00  0.00    -0.244 OA
ENDBRANCH   1  19
TORSDOF 3
