REMARK  Name = ZINC40433569
REMARK  4 active torsions:
REMARK  status: ('A' for Active; 'I' for Inactive)
REMARK    1  A    between atoms: C_1  and  C_2
REMARK    2  A    between atoms: C_4  and  S_9
REMARK    3  A    between atoms: S_9  and  N_12
REMARK    4  A    between atoms: C_16  and  C_18
REMARK                            x       y       z     vdW  Elec       q    Type
REMARK                         _______ _______ _______ _____ _____    ______ ____
ROOT
ATOM      1  S   UNL     1       0.029  -2.943  -2.738  0.00  0.00    +0.061 S 
ATOM      2  O   UNL     1      -0.502  -4.234  -2.471  0.00  0.00    -0.153 OA
ATOM      3  O   UNL     1      -0.539  -2.070  -3.704  0.00  0.00    -0.153 OA
ENDROOT
BRANCH   1   7
ATOM      4  C   UNL     1      -0.018   1.503   0.010  0.00  0.00    +0.045 C 
ATOM      5  C   UNL     1       0.002  -0.004   0.002  0.00  0.00    -0.035 A 
ATOM      6  C   UNL     1       0.006  -0.689  -1.199  0.00  0.00    +0.033 A 
ATOM      7  C   UNL     1       0.025  -2.071  -1.207  0.00  0.00    +0.106 A 
ATOM      8  C   UNL     1       0.041  -2.769  -0.013  0.00  0.00    +0.029 A 
ATOM      9  C   UNL     1       0.037  -2.085   1.188  0.00  0.00    +0.017 A 
ATOM     10  C   UNL     1       0.023  -0.702   1.196  0.00  0.00    +0.021 A 
ATOM     11 BR   UNL     1       0.025   0.234   2.839  0.00  0.00    -0.050 Br
ENDBRANCH   1   7
BRANCH   1  12
ATOM     12  N   UNL     1       1.612  -3.163  -3.171  0.00  0.00    -0.168 NA
ATOM     13  C   UNL     1       2.418  -2.234  -3.984  0.00  0.00    +0.110 C 
ATOM     14  C   UNL     1       3.527  -3.115  -4.611  0.00  0.00    +0.019 C 
ATOM     15  C   UNL     1       3.833  -4.101  -3.453  0.00  0.00    +0.028 C 
ATOM     16  C   UNL     1       2.449  -4.315  -2.804  0.00  0.00    +0.126 C 
BRANCH  16  17
ATOM     17  C   UNL     1       2.588  -4.391  -1.306  0.00  0.00    +0.035 A 
ATOM     18  C   UNL     1       2.655  -3.339  -0.464  0.00  0.00    +0.024 A 
ATOM     19  C   UNL     1       2.782  -3.852   0.842  0.00  0.00    +0.019 A 
ATOM     20  C   UNL     1       2.788  -5.197   0.749  0.00  0.00    +0.083 A 
ATOM     21  N   UNL     1       2.663  -5.534  -0.566  0.00  0.00    -0.363 N 
ATOM     22  H   UNL     1       2.635  -6.437  -0.918  0.00  0.00    +0.165 HD
ENDBRANCH  16  17
ENDBRANCH   1  12
TORSDOF 3
