REMARK  Name = ZINC14984449
REMARK  5 active torsions:
REMARK  status: ('A' for Active; 'I' for Inactive)
REMARK    1  A    between atoms: C_1  and  C_2
REMARK    2  A    between atoms: C_5  and  C_13
REMARK    3  A    between atoms: C_5  and  O_15
REMARK    4  A    between atoms: C_7  and  O_12
REMARK    5  A    between atoms: C_9  and  O_11
REMARK                            x       y       z     vdW  Elec       q    Type
REMARK                         _______ _______ _______ _____ _____    ______ ____
ROOT
ATOM      1  C   UNL     1       2.917  -0.488   2.470  0.00  0.00    +0.010 C 
ATOM      2  C   UNL     1       2.178   0.019   1.231  0.00  0.00    +0.020 C 
ATOM      3  C   UNL     1       0.742  -0.511   1.242  0.00  0.00    +0.052 C 
ATOM      4  C   UNL     1       0.002  -0.004   0.002  0.00  0.00    +0.169 C 
ATOM      5  C   UNL     1      -0.019   1.526   0.010  0.00  0.00    +0.080 C 
ATOM      6  C   UNL     1       1.417   2.055  -0.000  0.00  0.00    +0.146 C 
ATOM      7  C   UNL     1       2.157   1.548   1.239  0.00  0.00    +0.146 C 
ENDROOT
BRANCH   4   8
ATOM      8  C   UNL     1      -1.412  -0.526   0.013  0.00  0.00    +0.387 C 
ATOM      9  O   UNL     1      -1.937  -0.826   1.059  0.00  0.00    -0.243 OA
ATOM     10  O   UNL     1      -2.087  -0.657  -1.140  0.00  0.00    -0.243 OA
ENDBRANCH   4   8
BRANCH   7  11
ATOM     11  O   UNL     1       3.497   2.043   1.229  0.00  0.00    -0.389 OA
ATOM     12  H   UNL     1       3.561   3.008   1.234  0.00  0.00    +0.210 HD
ENDBRANCH   7  11
BRANCH   6  13
ATOM     13  O   UNL     1       1.397   3.484   0.007  0.00  0.00    -0.389 OA
ATOM     14  H   UNL     1       0.943   3.876  -0.751  0.00  0.00    +0.210 HD
ENDBRANCH   6  13
BRANCH   4  15
ATOM     15  O   UNL     1       0.671  -0.465  -1.174  0.00  0.00    -0.377 OA
ATOM     16  H   UNL     1       0.256  -0.181  -1.999  0.00  0.00    +0.211 HD
ENDBRANCH   4  15
TORSDOF 4
