REMARK  Name = ZINC04270191
REMARK  8 active torsions:
REMARK  status: ('A' for Active; 'I' for Inactive)
REMARK    1  A    between atoms: C_1  and  N_2
REMARK    2  A    between atoms: C_3  and  N_23
REMARK    3  A    between atoms: C_4  and  S_11
REMARK    4  A    between atoms: N_7  and  C_10
REMARK    5  A    between atoms: S_11  and  N_14
REMARK    6  A    between atoms: N_14  and  C_15
REMARK    7  A    between atoms: C_20  and  O_21
REMARK    8  A    between atoms: O_21  and  C_22
REMARK                            x       y       z     vdW  Elec       q    Type
REMARK                         _______ _______ _______ _____ _____    ______ ____
ROOT
ATOM      1  C   UNL     1       4.223   3.360   4.017  0.00  0.00    +0.155 C 
ATOM      2  N   UNL     1       3.028   3.511   3.184  0.00  0.00    -0.283 N 
ATOM      3  C   UNL     1       2.745   2.575   2.219  0.00  0.00    +0.132 A 
ATOM      4  C   UNL     1       1.627   2.724   1.446  0.00  0.00    +0.210 A 
ATOM      5  C   UNL     1       0.797   3.836   1.655  0.00  0.00    +0.285 A 
ATOM      6  O   UNL     1      -0.202   3.992   0.974  0.00  0.00    -0.265 OA
ATOM      7  N   UNL     1       1.108   4.728   2.616  0.00  0.00    -0.262 N 
ATOM      8  C   UNL     1       2.213   4.566   3.368  0.00  0.00    +0.333 A 
ATOM      9  O   UNL     1       2.478   5.385   4.226  0.00  0.00    -0.246 OA
ATOM     10  C   UNL     1       0.240   5.886   2.841  0.00  0.00    +0.157 C 
ENDROOT
BRANCH   4  11
ATOM     11  S   UNL     1       1.238   1.540   0.200  0.00  0.00    +0.081 S 
ATOM     12  O   UNL     1       2.453   0.877  -0.124  0.00  0.00    -0.150 OA
ATOM     13  O   UNL     1       0.457   2.218  -0.774  0.00  0.00    -0.150 OA
BRANCH  11  14
ATOM     14  N   UNL     1       0.251   0.406   0.894  0.00  0.00    -0.212 N 
ATOM     15  H   UNL     1       0.556  -0.510   0.990  0.00  0.00    +0.174 HD
BRANCH  14  16
ATOM     16  C   UNL     1      -1.027   0.767   1.336  0.00  0.00    +0.090 A 
ATOM     17  C   UNL     1      -1.992   1.167   0.423  0.00  0.00    +0.028 A 
ATOM     18  C   UNL     1      -3.255   1.519   0.862  0.00  0.00    +0.002 A 
ATOM     19  C   UNL     1      -3.556   1.483   2.211  0.00  0.00    +0.004 A 
ATOM     20  C   UNL     1      -2.598   1.090   3.127  0.00  0.00    +0.047 A 
ATOM     21  C   UNL     1      -1.332   0.732   2.695  0.00  0.00    +0.142 A 
BRANCH  21  22
ATOM     22  O   UNL     1      -0.388   0.346   3.595  0.00  0.00    -0.493 OA
ATOM     23  C   UNL     1      -0.771   0.334   4.972  0.00  0.00    +0.277 C 
ENDBRANCH  21  22
ENDBRANCH  14  16
ENDBRANCH  11  14
ENDBRANCH   4  11
BRANCH   3  24
ATOM     24  N   UNL     1       3.577   1.500   2.033  0.00  0.00    -0.343 N 
ATOM     25  H   UNL     1       4.510   1.559   2.291  0.00  0.00    +0.144 HD
ATOM     26  H   UNL     1       3.232   0.682   1.643  0.00  0.00    +0.144 HD
ENDBRANCH   3  24
TORSDOF 5
