REMARK  Name = ZINC45850900
REMARK  5 active torsions:
REMARK  status: ('A' for Active; 'I' for Inactive)
REMARK    1  A    between atoms: C_4  and  C_16
REMARK    2  A    between atoms: C_5  and  C_7
REMARK    3  A    between atoms: C_7  and  C_9
REMARK    4  A    between atoms: N_18  and  C_19
REMARK    5  A    between atoms: C_22  and  N_25
REMARK                            x       y       z     vdW  Elec       q    Type
REMARK                         _______ _______ _______ _____ _____    ______ ____
ROOT
ATOM      1  C   UNL     1       4.143  -0.591   0.218  0.00  0.00    +0.249 C 
ATOM      2  O   UNL     1       4.221  -1.801   0.312  0.00  0.00    -0.270 OA
ATOM      3  N   UNL     1       5.263   0.158   0.219  0.00  0.00    -0.281 N 
ATOM      4  H   UNL     1       5.207   1.116   0.077  0.00  0.00    +0.155 HD
ENDROOT
BRANCH   1   8
ATOM      5  C   UNL     1       0.333   1.280  -0.120  0.00  0.00    +0.001 A 
ATOM      6  C   UNL     1       1.479   2.049  -0.013  0.00  0.00    +0.001 A 
ATOM      7  C   UNL     1       2.718   1.446   0.097  0.00  0.00    +0.014 A 
ATOM      8  C   UNL     1       2.820   0.058   0.101  0.00  0.00    +0.048 A 
ATOM      9  C   UNL     1       1.654  -0.724  -0.008  0.00  0.00    +0.034 A 
ATOM     10  C   UNL     1       0.414  -0.099  -0.118  0.00  0.00    +0.012 A 
BRANCH   9  11
ATOM     11  C   UNL     1       1.746  -2.200  -0.006  0.00  0.00    +0.194 C 
ATOM     12  O   UNL     1       1.633  -2.817  -1.047  0.00  0.00    -0.287 OA
BRANCH  11  13
ATOM     13  C   UNL     1       1.975  -2.924   1.260  0.00  0.00    +0.022 A 
ATOM     14  C   UNL     1       1.991  -2.229   2.473  0.00  0.00    +0.013 A 
ATOM     15  C   UNL     1       2.206  -2.911   3.651  0.00  0.00    +0.016 A 
ATOM     16  C   UNL     1       2.404  -4.282   3.636  0.00  0.00    +0.018 A 
ATOM     17  C   UNL     1       2.389  -4.976   2.438  0.00  0.00    +0.016 A 
ATOM     18  C   UNL     1       2.170  -4.307   1.252  0.00  0.00    +0.013 A 
ATOM     19 BR   UNL     1       2.698  -5.209   5.258  0.00  0.00    -0.050 Br
ENDBRANCH  11  13
ENDBRANCH   9  11
ENDBRANCH   1   8
BRANCH   3  20
ATOM     20  C   UNL     1       6.509  -0.446   0.427  0.00  0.00    +0.034 A 
ATOM     21  C   UNL     1       7.497   0.225   1.135  0.00  0.00    +0.025 A 
ATOM     22  C   UNL     1       8.726  -0.370   1.339  0.00  0.00    +0.025 A 
ATOM     23  C   UNL     1       8.973  -1.641   0.836  0.00  0.00    +0.035 A 
ATOM     24  C   UNL     1       7.986  -2.312   0.128  0.00  0.00    +0.025 A 
ATOM     25  C   UNL     1       6.755  -1.719  -0.071  0.00  0.00    +0.025 A 
BRANCH  23  26
ATOM     26  N   UNL     1      10.221  -2.245   1.043  0.00  0.00    -0.270 N 
ATOM     27  C   UNL     1      10.746  -3.046   0.096  0.00  0.00    +0.301 C 
ATOM     28  O   UNL     1      10.185  -3.170  -0.976  0.00  0.00    -0.253 OA
ATOM     29  N   UNL     1      11.894  -3.711   0.336  0.00  0.00    -0.313 N 
ATOM     30  H   UNL     1      10.706  -2.086   1.868  0.00  0.00    +0.156 HD
ATOM     31  H   UNL     1      12.342  -3.612   1.191  0.00  0.00    +0.146 HD
ATOM     32  H   UNL     1      12.273  -4.287  -0.346  0.00  0.00    +0.146 HD
ENDBRANCH  23  26
ENDBRANCH   3  20
TORSDOF 5
