REMARK  Name = ZINC43420491
REMARK  5 active torsions:
REMARK  status: ('A' for Active; 'I' for Inactive)
REMARK    1  A    between atoms: C_3  and  C_6
REMARK    2  A    between atoms: C_6  and  N_7
REMARK    3  A    between atoms: C_8  and  C_10
REMARK    4  A    between atoms: C_10  and  N_11
REMARK    5  A    between atoms: N_14  and  C_15
REMARK                            x       y       z     vdW  Elec       q    Type
REMARK                         _______ _______ _______ _____ _____    ______ ____
ROOT
ATOM      1  N   UNL     1       7.408   0.505   2.982  0.00  0.00    -0.291 N 
ATOM      2  C   UNL     1       8.094   0.494   4.142  0.00  0.00    +0.304 C 
ATOM      3  O   UNL     1       7.497   0.506   5.201  0.00  0.00    -0.252 OA
ATOM      4  N   UNL     1       9.441   0.469   4.128  0.00  0.00    -0.268 N 
ATOM      5  H   UNL     1       7.884   0.495   2.137  0.00  0.00    +0.151 HD
ATOM      6  H   UNL     1       9.916   0.393   3.286  0.00  0.00    +0.156 HD
ENDROOT
BRANCH   4   7
ATOM      7  C   UNL     1      10.155   0.552   5.330  0.00  0.00    +0.053 A 
ATOM      8  C   UNL     1       9.648  -0.033   6.482  0.00  0.00    +0.026 A 
ATOM      9  C   UNL     1      10.355   0.050   7.666  0.00  0.00    +0.017 A 
ATOM     10  C   UNL     1      11.567   0.716   7.705  0.00  0.00    +0.019 A 
ATOM     11  C   UNL     1      12.075   1.301   6.559  0.00  0.00    +0.037 A 
ATOM     12  C   UNL     1      11.375   1.215   5.370  0.00  0.00    +0.063 A 
ATOM     13 CL   UNL     1      12.016   1.943   3.930  0.00  0.00    -0.082 Cl
ATOM     14 BR   UNL     1      12.531   0.828   9.328  0.00  0.00    -0.050 Br
ENDBRANCH   4   7
BRANCH   1  15
ATOM     15  C   UNL     1       5.943   0.532   2.997  0.00  0.00    +0.201 C 
BRANCH  15  17
ATOM     16  N   UNL     1       4.099   0.564   1.349  0.00  0.00    -0.307 N 
ATOM     17  C   UNL     1       5.426   0.540   1.581  0.00  0.00    +0.231 C 
ATOM     18  O   UNL     1       6.204   0.524   0.651  0.00  0.00    -0.274 OA
ATOM     19  H   UNL     1       3.476   0.577   2.093  0.00  0.00    +0.149 HD
BRANCH  16  20
ATOM     20  C   UNL     1       3.596   0.572  -0.027  0.00  0.00    +0.178 C 
BRANCH  20  23
ATOM     21  C   UNL     1      -0.022   1.271   0.009  0.00  0.00    +0.041 A 
ATOM     22  C   UNL     1       1.323   1.705  -0.005  0.00  0.00    +0.046 A 
ATOM     23  C   UNL     1       2.090   0.600  -0.012  0.00  0.00    +0.122 A 
ATOM     24  O   UNL     1       1.284  -0.475  -0.003  0.00  0.00    -0.466 OA
ATOM     25  C   UNL     1       0.002  -0.074   0.010  0.00  0.00    +0.195 A 
ENDBRANCH  20  23
ENDBRANCH  16  20
ENDBRANCH  15  17
ENDBRANCH   1  15
TORSDOF 5
