REMARK  Name = ZINC20520827
REMARK  3 active torsions:
REMARK  status: ('A' for Active; 'I' for Inactive)
REMARK    1  A    between atoms: C_3  and  N_9
REMARK    2  A    between atoms: C_4  and  N_8
REMARK    3  A    between atoms: C_10  and  C_12
REMARK                            x       y       z     vdW  Elec       q    Type
REMARK                         _______ _______ _______ _____ _____    ______ ____
ROOT
ATOM      1  N   UNL     1      -1.191   1.871   0.018  0.00  0.00    -0.280 N 
ATOM      2  C   UNL     1      -0.014   1.213   0.005  0.00  0.00    +0.255 C 
ATOM      3  O   UNL     1       0.003  -0.004   0.005  0.00  0.00    -0.269 OA
ATOM      4  H   UNL     1      -1.207   2.967   0.110  0.00  0.00    +0.155 HD
ENDROOT
BRANCH   2   5
ATOM      5  C   UNL     1       1.244   1.964  -0.014  0.00  0.00    +0.075 A 
ATOM      6  C   UNL     1       2.544   1.489  -0.034  0.00  0.00    +0.024 A 
ATOM      7  C   UNL     1       3.580   2.415  -0.052  0.00  0.00    -0.036 A 
ATOM      8  C   UNL     1       3.223   3.720  -0.067  0.00  0.00    -0.006 A 
ATOM      9  S   UNL     1       1.503   3.731  -0.026  0.00  0.00    -0.088 S 
ATOM     10  C   UNL     1       4.157   4.907  -0.139  0.00  0.00    +0.043 C 
ATOM     11  C   UNL     1       4.934   4.956   1.188  0.00  0.00    +0.005 C 
ATOM     12  C   UNL     1       6.056   3.946   1.176  0.00  0.00    +0.001 C 
ATOM     13  C   UNL     1       5.657   2.496   1.280  0.00  0.00    +0.005 C 
ATOM     14  C   UNL     1       5.048   1.976  -0.023  0.00  0.00    +0.036 C 
ENDBRANCH   2   5
BRANCH   1  17
ATOM     15  C   UNL     1      -3.600  -0.787  -0.799  0.00  0.00    +0.017 A 
ATOM     16  C   UNL     1      -2.413  -0.086  -0.698  0.00  0.00    +0.026 A 
ATOM     17  C   UNL     1      -2.393   1.159  -0.086  0.00  0.00    +0.055 A 
ATOM     18  C   UNL     1      -3.572   1.697   0.431  0.00  0.00    +0.047 A 
ATOM     19  C   UNL     1      -4.759   0.989   0.320  0.00  0.00    +0.039 A 
ATOM     20  C   UNL     1      -4.770  -0.252  -0.291  0.00  0.00    +0.020 A 
ATOM     21 BR   UNL     1      -6.389  -1.218  -0.434  0.00  0.00    -0.050 Br
BRANCH  18  22
ATOM     22  N   UNL     1      -3.557   2.949   1.054  0.00  0.00    -0.357 N 
ATOM     23  H   UNL     1      -4.487   3.372   1.461  0.00  0.00    +0.142 HD
ATOM     24  H   UNL     1      -2.615   3.511   1.137  0.00  0.00    +0.142 HD
ENDBRANCH  18  22
ENDBRANCH   1  17
TORSDOF 3
