REMARK  Name = ZINC40560191
REMARK  3 active torsions:
REMARK  status: ('A' for Active; 'I' for Inactive)
REMARK    1  A    between atoms: C_5  and  N_8
REMARK    2  A    between atoms: C_13  and  O_21
REMARK    3  A    between atoms: C_16  and  C_18
REMARK                            x       y       z     vdW  Elec       q    Type
REMARK                         _______ _______ _______ _____ _____    ______ ____
ROOT
ATOM      1  N   UNL     1       1.976  -1.046  -2.987  0.00  0.00    -0.296 N 
ATOM      2  C   UNL     1       2.617  -2.197  -2.702  0.00  0.00    +0.303 C 
ATOM      3  O   UNL     1       2.881  -2.475  -1.548  0.00  0.00    -0.253 OA
ATOM      4  N   UNL     1       2.964  -3.039  -3.695  0.00  0.00    -0.269 N 
ATOM      5  C   UNL     1       2.712  -2.823  -5.132  0.00  0.00    +0.141 C 
ATOM      6  C   UNL     1       3.785  -3.674  -5.855  0.00  0.00    +0.134 C 
ATOM      7  C   UNL     1       3.868  -4.920  -4.934  0.00  0.00    +0.067 C 
ATOM      8  C   UNL     1       3.663  -4.321  -3.526  0.00  0.00    +0.193 C 
ATOM      9  H   UNL     1       1.764  -0.824  -3.907  0.00  0.00    +0.151 HD
ENDROOT
BRANCH   1  14
ATOM     10  C   UNL     1      -0.019   1.538   0.011  0.00  0.00    +0.000 C 
ATOM     11  C   UNL     1       1.401   2.036  -0.000  0.00  0.00    +0.000 C 
ATOM     12  C   UNL     1       1.910   2.335  -1.423  0.00  0.00    +0.002 C 
ATOM     13  C   UNL     1       1.480   1.268  -2.449  0.00  0.00    +0.022 C 
ATOM     14  C   UNL     1       1.598  -0.131  -1.907  0.00  0.00    +0.074 C 
ATOM     15  C   UNL     1       0.231  -0.548  -1.328  0.00  0.00    +0.022 C 
ATOM     16  C   UNL     1       0.002  -0.004   0.002  0.00  0.00    +0.002 C 
ENDBRANCH   1  14
BRANCH   8  17
ATOM     17  C   UNL     1       2.826  -5.255  -2.691  0.00  0.00    +0.376 C 
ATOM     18  O   UNL     1       1.680  -4.953  -2.402  0.00  0.00    -0.244 OA
ATOM     19  O   UNL     1       3.293  -6.313  -2.305  0.00  0.00    -0.244 OA
ENDBRANCH   8  17
BRANCH   6  20
ATOM     20  O   UNL     1       5.037  -2.987  -5.902  0.00  0.00    -0.390 OA
ATOM     21  H   UNL     1       5.009  -2.151  -6.386  0.00  0.00    +0.210 HD
ENDBRANCH   6  20
TORSDOF 3
