REMARK  Name = ZINC43743356
REMARK  12 active torsions:
REMARK  status: ('A' for Active; 'I' for Inactive)
REMARK    1  A    between atoms: C_1  and  C_2
REMARK    2  A    between atoms: N_6  and  O_7
REMARK    3  A    between atoms: O_7  and  C_8
REMARK    4  A    between atoms: C_8  and  C_9
REMARK    5  A    between atoms: N_11  and  C_12
REMARK    6  A    between atoms: C_12  and  C_13
REMARK    7  A    between atoms: C_13  and  C_14
REMARK    8  A    between atoms: C_17  and  O_21
REMARK    9  A    between atoms: C_18  and  O_20
REMARK   10  A    between atoms: C_32  and  C_40
REMARK   11  A    between atoms: C_37  and  C_38
REMARK   12  A    between atoms: C_37  and  O_39
REMARK                            x       y       z     vdW  Elec       q    Type
REMARK                         _______ _______ _______ _____ _____    ______ ____
ROOT
ATOM      1  C   UNL     1      -0.019   1.526   0.010  0.00  0.00    +0.016 C 
ATOM      2  C   UNL     1       0.002  -0.004   0.002  0.00  0.00    -0.007 C 
ATOM      3  C   UNL     1       0.630  -0.458  -1.303  0.00  0.00    +0.017 C 
ATOM      4  C   UNL     1       2.155  -0.374  -1.256  0.00  0.00    +0.059 C 
ATOM      5  C   UNL     1       2.620  -1.234  -0.097  0.00  0.00    +0.080 C 
ATOM      6  N   UNL     1       3.565  -2.110  -0.234  0.00  0.00    -0.089 NA
ATOM      7  C   UNL     1       1.940  -1.021   1.193  0.00  0.00    +0.026 C 
ATOM      8  C   UNL     1       0.732  -0.465   1.226  0.00  0.00    -0.062 C 
ATOM      9  C   UNL     1       0.085  -0.249   2.582  0.00  0.00    +0.031 C 
ATOM     10  C   UNL     1      -1.356  -0.762   2.526  0.00  0.00    +0.008 C 
ATOM     11  C   UNL     1      -2.092  -0.073   1.374  0.00  0.00    -0.003 C 
ATOM     12  C   UNL     1      -1.450  -0.496   0.045  0.00  0.00    +0.002 C 
ATOM     13  C   UNL     1      -2.200   0.053  -1.165  0.00  0.00    +0.005 C 
ATOM     14  C   UNL     1      -3.694  -0.302  -1.117  0.00  0.00    +0.010 C 
ATOM     15  C   UNL     1      -4.244   0.255   0.183  0.00  0.00    -0.000 C 
ATOM     16  C   UNL     1      -3.545  -0.512   1.357  0.00  0.00    +0.001 C 
ATOM     17  C   UNL     1      -4.380  -0.095   2.573  0.00  0.00    +0.007 C 
ATOM     18  C   UNL     1      -5.833  -0.137   2.027  0.00  0.00    +0.035 C 
ATOM     19  C   UNL     1      -5.727   0.019   0.450  0.00  0.00    +0.069 C 
ATOM     20  C   UNL     1      -6.198  -1.252  -0.260  0.00  0.00    +0.042 C 
ATOM     21  C   UNL     1      -3.931   1.749   0.280  0.00  0.00    +0.014 C 
ENDROOT
BRANCH  19  22
ATOM     22  O   UNL     1      -6.494   1.144   0.016  0.00  0.00    -0.388 OA
ATOM     23  H   UNL     1      -7.445   1.051   0.161  0.00  0.00    +0.210 HD
ENDBRANCH  19  22
BRANCH   6  24
ATOM     24  O   UNL     1       4.192  -2.284  -1.491  0.00  0.00    -0.384 OA
BRANCH  24  25
ATOM     25  C   UNL     1       5.215  -3.283  -1.497  0.00  0.00    +0.358 C 
BRANCH  25  26
ATOM     26  C   UNL     1       5.811  -3.383  -2.877  0.00  0.00    +0.253 C 
ATOM     27  O   UNL     1       5.400  -2.670  -3.768  0.00  0.00    -0.272 OA
ATOM     28  N   UNL     1       6.800  -4.265  -3.122  0.00  0.00    -0.312 N 
ATOM     29  H   UNL     1       7.128  -4.836  -2.409  0.00  0.00    +0.149 HD
BRANCH  28  30
ATOM     30  C   UNL     1       7.380  -4.363  -4.463  0.00  0.00    +0.109 C 
BRANCH  30  31
ATOM     31  C   UNL     1       8.474  -5.432  -4.470  0.00  0.00    +0.054 C 
BRANCH  31  32
ATOM     32  C   UNL     1       9.070  -5.532  -5.850  0.00  0.00    -0.042 A 
ATOM     33  C   UNL     1       8.527  -6.405  -6.774  0.00  0.00    +0.007 A 
ATOM     34  C   UNL     1       9.070  -6.501  -8.042  0.00  0.00    +0.049 A 
ATOM     35  C   UNL     1      10.161  -5.721  -8.389  0.00  0.00    +0.158 A 
ATOM     36  C   UNL     1      10.708  -4.842  -7.459  0.00  0.00    +0.158 A 
ATOM     37  C   UNL     1      10.156  -4.747  -6.191  0.00  0.00    +0.052 A 
BRANCH  36  38
ATOM     38  O   UNL     1      11.780  -4.074  -7.794  0.00  0.00    -0.503 OA
ATOM     39  H   UNL     1      11.545  -3.216  -8.173  0.00  0.00    +0.292 HD
ENDBRANCH  36  38
BRANCH  35  40
ATOM     40  O   UNL     1      10.697  -5.814  -9.635  0.00  0.00    -0.503 OA
ATOM     41  H   UNL     1      10.308  -5.205 -10.277  0.00  0.00    +0.292 HD
ENDBRANCH  35  40
ENDBRANCH  31  32
ENDBRANCH  30  31
ENDBRANCH  28  30
ENDBRANCH  25  26
ENDBRANCH  24  25
ENDBRANCH   6  24
TORSDOF 9
