REMARK  Name = ZINC44464273
REMARK  7 active torsions:
REMARK  status: ('A' for Active; 'I' for Inactive)
REMARK    1  A    between atoms: C_6  and  S_7
REMARK    2  A    between atoms: S_7  and  C_8
REMARK    3  A    between atoms: C_9  and  C_16
REMARK    4  A    between atoms: C_16  and  CA_17
REMARK    5  A    between atoms: CA_17  and  C_19
REMARK    6  A    between atoms: CA_17  and  N_21
REMARK    7  A    between atoms: C_19  and  O_20
REMARK                            x       y       z     vdW  Elec       q    Type
REMARK                         _______ _______ _______ _____ _____    ______ ____
ROOT
ATOM      1  C   UNL     1      -1.005  -2.587  -0.151  0.00  0.00    +0.124 A 
ATOM      2  C   UNL     1      -1.825  -3.650  -0.293  0.00  0.00    +0.056 A 
ATOM      3  N   UNL     1      -1.024  -4.791  -0.388  0.00  0.00    -0.296 N 
ATOM      4  C   UNL     1      -1.188  -6.150  -0.539  0.00  0.00    +0.100 A 
ATOM      5  C   UNL     1      -0.133  -6.963  -0.591  0.00  0.00    +0.067 A 
ATOM      6  S   UNL     1       1.225  -5.814  -0.422  0.00  0.00    -0.058 S 
ATOM      7  C   UNL     1       0.260  -4.327  -0.295  0.00  0.00    +0.179 A 
ATOM      8  N   UNL     1       0.264  -3.030  -0.161  0.00  0.00    -0.214 NA
ENDROOT
BRANCH   1   9
ATOM      9  S   UNL     1      -1.511  -0.907   0.012  0.00  0.00    -0.068 S 
BRANCH   9  15
ATOM     10  C   UNL     1       0.593   0.360  -1.196  0.00  0.00    +0.016 A 
ATOM     11  C   UNL     1       1.778   1.068  -1.195  0.00  0.00    +0.021 A 
ATOM     12  C   UNL     1       2.379   1.414   0.003  0.00  0.00    +0.041 A 
ATOM     13  C   UNL     1       1.794   1.052   1.204  0.00  0.00    +0.021 A 
ATOM     14  C   UNL     1       0.608   0.344   1.210  0.00  0.00    +0.016 A 
ATOM     15  C   UNL     1       0.002  -0.005   0.009  0.00  0.00    +0.014 A 
ATOM     16 CL   UNL     1       3.869   2.304  -0.001  0.00  0.00    -0.084 Cl
ENDBRANCH   9  15
ENDBRANCH   1   9
BRANCH   2  17
ATOM     17  C   UNL     1      -3.331  -3.612  -0.339  0.00  0.00    +0.042 C 
BRANCH  17  18
ATOM     18  CA  UNL     1      -3.889  -3.753   1.078  0.00  0.00    -0.043 C 
BRANCH  18  19
ATOM     19  N   UNL     1      -3.495  -2.585   1.878  0.00  0.00    +0.382 N 
ATOM     20  H1  UNL     1      -2.489  -2.527   1.916  0.00  0.00    -0.090 HD
ATOM     21  H2  UNL     1      -3.864  -1.747   1.453  0.00  0.00    -0.090 HD
ATOM     22  H3  UNL     1      -3.863  -2.678   2.813  0.00  0.00    -0.090 HD
ENDBRANCH  18  19
BRANCH  18  23
ATOM     23  C   UNL     1      -5.415  -3.840   1.020  0.00  0.00    +0.140 C 
BRANCH  23  24
ATOM     24  O   UNL     1      -5.929  -4.088   2.330  0.00  0.00    -0.397 OA
ATOM     25  H   UNL     1      -6.893  -4.155   2.368  0.00  0.00    +0.209 HD
ENDBRANCH  23  24
ENDBRANCH  18  23
ENDBRANCH  17  18
ENDBRANCH   2  17
TORSDOF 7
