REMARK  Name = ZINC51992880
REMARK  6 active torsions:
REMARK  status: ('A' for Active; 'I' for Inactive)
REMARK    1  A    between atoms: C_1  and  C_2
REMARK    2  A    between atoms: C_5  and  N_21
REMARK    3  A    between atoms: C_7  and  S_8
REMARK    4  A    between atoms: S_8  and  N_11
REMARK    5  A    between atoms: N_11  and  C_12
REMARK    6  A    between atoms: C_18  and  O_20
REMARK                            x       y       z     vdW  Elec       q    Type
REMARK                         _______ _______ _______ _____ _____    ______ ____
ROOT
ATOM      1  S   UNL     1      -0.233   0.175   3.054  0.00  0.00    +0.059 S 
ATOM      2  O   UNL     1      -1.260   1.121   3.318  0.00  0.00    -0.153 OA
ATOM      3  O   UNL     1       0.041  -0.915   3.922  0.00  0.00    -0.153 OA
ENDROOT
BRANCH   1  10
ATOM      4  C   UNL     1       1.536  -1.838   1.656  0.00  0.00    +0.046 C 
ATOM      5  C   UNL     1       0.291  -1.432   0.911  0.00  0.00    -0.024 A 
ATOM      6  C   UNL     1       0.019  -1.982  -0.329  0.00  0.00    +0.007 A 
ATOM      7  C   UNL     1      -1.121  -1.613  -1.014  0.00  0.00    +0.023 A 
ATOM      8  C   UNL     1      -1.996  -0.688  -0.457  0.00  0.00    +0.026 A 
ATOM      9  C   UNL     1      -1.720  -0.138   0.788  0.00  0.00    +0.051 A 
ATOM     10  C   UNL     1      -0.580  -0.516   1.471  0.00  0.00    +0.110 A 
BRANCH   8  11
ATOM     11  N   UNL     1      -3.150  -0.312  -1.148  0.00  0.00    -0.358 N 
ATOM     12  H   UNL     1      -3.342  -0.697  -2.018  0.00  0.00    +0.142 HD
ATOM     13  H   UNL     1      -3.760   0.334  -0.758  0.00  0.00    +0.142 HD
ENDBRANCH   8  11
ENDBRANCH   1  10
BRANCH   1  14
ATOM     14  N   UNL     1       1.177   1.034   2.914  0.00  0.00    -0.184 NA
ATOM     15  H   UNL     1       1.975   0.734   3.376  0.00  0.00    +0.148 HD
BRANCH  14  16
ATOM     16  C   UNL     1       1.217   2.247   2.094  0.00  0.00    +0.105 C 
ATOM     17  C   UNL     1       2.107   2.007   0.872  0.00  0.00    +0.023 C 
ATOM     18  C   UNL     1       3.523   1.656   1.334  0.00  0.00    +0.002 C 
ATOM     19  C   UNL     1       4.091   2.812   2.160  0.00  0.00    +0.003 C 
ATOM     20  C   UNL     1       3.201   3.052   3.381  0.00  0.00    +0.033 C 
ATOM     21  C   UNL     1       1.785   3.403   2.920  0.00  0.00    +0.133 C 
BRANCH  21  22
ATOM     22  O   UNL     1       0.954   3.627   4.060  0.00  0.00    -0.390 OA
ATOM     23  H   UNL     1       1.255   4.347   4.631  0.00  0.00    +0.210 HD
ENDBRANCH  21  22
ENDBRANCH  14  16
ENDBRANCH   1  14
TORSDOF 5
