REMARK  Name = ZINC54621264
REMARK  8 active torsions:
REMARK  status: ('A' for Active; 'I' for Inactive)
REMARK    1  A    between atoms: C_1  and  C_2
REMARK    2  A    between atoms: C_8  and  C_13
REMARK    3  A    between atoms: C_9  and  O_12
REMARK    4  A    between atoms: C_13  and  C_15
REMARK    5  A    between atoms: C_13  and  N_22
REMARK    6  A    between atoms: N_22  and  C_23
REMARK    7  A    between atoms: C_26  and  S_29
REMARK    8  A    between atoms: S_29  and  N_32
REMARK                            x       y       z     vdW  Elec       q    Type
REMARK                         _______ _______ _______ _____ _____    ______ ____
ROOT
ATOM      1  C   UNL     1       0.086  -4.769   3.747  0.00  0.00    +0.135 C 
ENDROOT
BRANCH   1   9
ATOM      2  C   UNL     1       0.209   1.361  -0.218  0.00  0.00    +0.065 C 
ATOM      3  C   UNL     1       0.271  -0.144  -0.166  0.00  0.00    +0.039 A 
ATOM      4  C   UNL     1       0.421  -0.858  -1.353  0.00  0.00    +0.023 A 
ATOM      5  C   UNL     1       0.479  -2.222  -1.325  0.00  0.00    +0.012 A 
ATOM      6  C   UNL     1       0.383  -2.865  -0.077  0.00  0.00    +0.004 A 
ATOM      7  C   UNL     1       0.435  -4.265   0.031  0.00  0.00    +0.010 A 
ATOM      8  C   UNL     1       0.339  -4.852   1.255  0.00  0.00    +0.010 A 
ATOM      9  C   UNL     1       0.189  -4.085   2.408  0.00  0.00    +0.021 A 
ATOM     10  C   UNL     1       0.135  -2.722   2.343  0.00  0.00    +0.148 A 
ATOM     11  C   UNL     1       0.231  -2.079   1.091  0.00  0.00    +0.113 A 
ATOM     12  N   UNL     1       0.187  -0.747   0.995  0.00  0.00    -0.248 NA
BRANCH  10  13
ATOM     13  O   UNL     1      -0.012  -1.990   3.478  0.00  0.00    -0.504 OA
ATOM     14  H   UNL     1       0.824  -1.738   3.894  0.00  0.00    +0.292 HD
ENDBRANCH  10  13
ENDBRANCH   1   9
BRANCH   1  15
ATOM     15  C   UNL     1       1.457  -4.881   4.361  0.00  0.00    -0.023 A 
ATOM     16  C   UNL     1       2.319  -5.881   3.949  0.00  0.00    +0.008 A 
ATOM     17  C   UNL     1       3.577  -5.985   4.511  0.00  0.00    +0.038 A 
ATOM     18  C   UNL     1       3.974  -5.087   5.487  0.00  0.00    +0.123 A 
ATOM     19  C   UNL     1       3.111  -4.086   5.899  0.00  0.00    +0.038 A 
ATOM     20  C   UNL     1       1.855  -3.981   5.331  0.00  0.00    +0.008 A 
ATOM     21  F   UNL     1       5.204  -5.188   6.038  0.00  0.00    -0.205 F 
ENDBRANCH   1  15
BRANCH   1  22
ATOM     22  N   UNL     1      -0.481  -6.108   3.568  0.00  0.00    -0.333 N 
ATOM     23  H   UNL     1      -0.394  -6.562   2.715  0.00  0.00    +0.147 HD
BRANCH  22  24
ATOM     24  C   UNL     1      -1.146  -6.732   4.626  0.00  0.00    +0.028 A 
ATOM     25  C   UNL     1      -1.277  -6.081   5.846  0.00  0.00    +0.025 A 
ATOM     26  C   UNL     1      -1.936  -6.700   6.890  0.00  0.00    +0.030 A 
ATOM     27  C   UNL     1      -2.465  -7.967   6.722  0.00  0.00    +0.105 A 
ATOM     28  C   UNL     1      -2.337  -8.617   5.508  0.00  0.00    +0.030 A 
ATOM     29  C   UNL     1      -1.684  -8.002   4.458  0.00  0.00    +0.025 A 
BRANCH  27  30
ATOM     30  S   UNL     1      -3.304  -8.754   8.057  0.00  0.00    +0.056 S 
ATOM     31  O   UNL     1      -3.230 -10.152   7.815  0.00  0.00    -0.153 OA
ATOM     32  O   UNL     1      -2.813  -8.160   9.251  0.00  0.00    -0.153 OA
BRANCH  30  33
ATOM     33  N   UNL     1      -4.902  -8.337   7.943  0.00  0.00    -0.204 NA
ATOM     34  H   UNL     1      -5.586  -8.948   8.260  0.00  0.00    +0.144 HD
ATOM     35  H   UNL     1      -5.155  -7.483   7.560  0.00  0.00    +0.144 HD
ENDBRANCH  30  33
ENDBRANCH  27  30
ENDBRANCH  22  24
ENDBRANCH   1  22
TORSDOF 7
