REMARK  Name = ZINC43575614
REMARK  4 active torsions:
REMARK  status: ('A' for Active; 'I' for Inactive)
REMARK    1  A    between atoms: C_1  and  C_2
REMARK    2  A    between atoms: C_4  and  N_9
REMARK    3  A    between atoms: C_10  and  C_14
REMARK    4  A    between atoms: C_17  and  N_21
REMARK                            x       y       z     vdW  Elec       q    Type
REMARK                         _______ _______ _______ _____ _____    ______ ____
ROOT
ATOM      1  N   UNL     1      -0.005  -2.797  -2.408  0.00  0.00    -0.193 N 
ATOM      2  C   UNL     1       0.735  -3.897  -2.732  0.00  0.00    +0.190 A 
ATOM      3  N   UNL     1       0.468  -4.180  -3.991  0.00  0.00    -0.108 NA
ATOM      4  N   UNL     1      -0.378  -3.342  -4.471  0.00  0.00    -0.022 NA
ATOM      5  N   UNL     1      -0.718  -2.478  -3.578  0.00  0.00    -0.039 NA
ENDROOT
BRANCH   1   9
ATOM      6  C   UNL     1      -2.626  -0.579   1.113  0.00  0.00    +0.045 C 
ATOM      7  C   UNL     1      -1.307  -1.048   0.555  0.00  0.00    -0.034 A 
ATOM      8  C   UNL     1      -1.266  -1.702  -0.661  0.00  0.00    +0.032 A 
ATOM      9  C   UNL     1      -0.050  -2.133  -1.175  0.00  0.00    +0.070 A 
ATOM     10  C   UNL     1       1.121  -1.906  -0.464  0.00  0.00    +0.029 A 
ATOM     11  C   UNL     1       1.074  -1.252   0.751  0.00  0.00    +0.017 A 
ATOM     12  C   UNL     1      -0.138  -0.818   1.258  0.00  0.00    +0.021 A 
ATOM     13 BR   UNL     1      -0.198   0.084   2.919  0.00  0.00    -0.050 Br
ENDBRANCH   1   9
BRANCH   2  14
ATOM     14  C   UNL     1       1.658  -4.631  -1.841  0.00  0.00    +0.056 A 
ATOM     15  C   UNL     1       1.249  -4.995  -0.557  0.00  0.00    +0.016 A 
ATOM     16  C   UNL     1       2.111  -5.679   0.271  0.00  0.00    +0.023 A 
ATOM     17  C   UNL     1       3.389  -6.008  -0.170  0.00  0.00    +0.027 A 
ATOM     18  C   UNL     1       3.801  -5.648  -1.448  0.00  0.00    +0.061 A 
ATOM     19  C   UNL     1       2.940  -4.968  -2.285  0.00  0.00    +0.136 A 
ATOM     20  F   UNL     1       3.338  -4.623  -3.529  0.00  0.00    -0.205 F 
BRANCH  17  21
ATOM     21  N   UNL     1       4.259  -6.701   0.671  0.00  0.00    -0.358 N 
ATOM     22  H   UNL     1       3.973  -6.953   1.564  0.00  0.00    +0.142 HD
ATOM     23  H   UNL     1       5.150  -6.931   0.365  0.00  0.00    +0.142 HD
ENDBRANCH  17  21
ENDBRANCH   2  14
TORSDOF 3
