REMARK  Name = ZINC44243851
REMARK  6 active torsions:
REMARK  status: ('A' for Active; 'I' for Inactive)
REMARK    1  A    between atoms: C_1  and  C_2
REMARK    2  A    between atoms: C_2  and  C_4
REMARK    3  A    between atoms: C_2  and  N_8
REMARK    4  A    between atoms: N_5  and  O_6
REMARK    5  A    between atoms: N_8  and  S_9
REMARK    6  A    between atoms: S_9  and  C_12
REMARK                            x       y       z     vdW  Elec       q    Type
REMARK                         _______ _______ _______ _____ _____    ______ ____
ROOT
ATOM      1  N   UNL     1       0.711  -0.489   1.189  0.00  0.00    -0.180 NA
ATOM      2  H   UNL     1       1.677  -0.569   1.178  0.00  0.00    +0.149 HD
ENDROOT
BRANCH   1   3
ATOM      3  S   UNL     1      -0.139  -0.902   2.549  0.00  0.00    +0.060 S 
ATOM      4  O   UNL     1       0.814  -1.354   3.502  0.00  0.00    -0.153 OA
ATOM      5  O   UNL     1      -1.030   0.173   2.814  0.00  0.00    -0.153 OA
BRANCH   3   6
ATOM      6  C   UNL     1      -1.137  -2.294   2.137  0.00  0.00    +0.124 A 
ATOM      7  C   UNL     1      -2.418  -2.116   1.637  0.00  0.00    +0.046 A 
ATOM      8  C   UNL     1      -3.168  -3.241   1.327  0.00  0.00    +0.038 A 
ATOM      9  C   UNL     1      -2.617  -4.494   1.525  0.00  0.00    +0.126 A 
ATOM     10  N   UNL     1      -1.395  -4.625   2.002  0.00  0.00    -0.260 NA
ATOM     11  C   UNL     1      -0.652  -3.577   2.303  0.00  0.00    +0.139 A 
ATOM     12 BR   UNL     1      -4.922  -3.063   0.643  0.00  0.00    -0.049 Br
ENDBRANCH   3   6
ENDBRANCH   1   3
BRANCH   1  14
ATOM     13  C   UNL     1      -0.019   1.526   0.010  0.00  0.00    +0.034 C 
ATOM     14  C   UNL     1       0.002  -0.004   0.002  0.00  0.00    +0.140 C 
BRANCH  14  15
ATOM     15  C   UNL     1       0.707  -0.490  -1.238  0.00  0.00    +0.150 C 
ATOM     16  N   UNL     1       0.054  -0.616  -2.345  0.00  0.00    -0.075 NA
ATOM     17  N   UNL     1       2.049  -0.800  -1.190  0.00  0.00    -0.343 N 
ATOM     18  H   UNL     1       2.539  -0.705  -0.359  0.00  0.00    +0.144 HD
ATOM     19  H   UNL     1       2.503  -1.113  -1.988  0.00  0.00    +0.144 HD
BRANCH  16  20
ATOM     20  O   UNL     1       0.717  -1.073  -3.510  0.00  0.00    -0.408 OA
ATOM     21  H   UNL     1       0.146  -1.135  -4.288  0.00  0.00    +0.328 HD
ENDBRANCH  16  20
ENDBRANCH  14  15
ENDBRANCH   1  14
TORSDOF 5
