REMARK  Name = ZINC40755660
REMARK  4 active torsions:
REMARK  status: ('A' for Active; 'I' for Inactive)
REMARK    1  A    between atoms: C_6  and  N_7
REMARK    2  A    between atoms: C_9  and  N_25
REMARK    3  A    between atoms: C_10  and  N_14
REMARK    4  A    between atoms: N_14  and  C_15
REMARK                            x       y       z     vdW  Elec       q    Type
REMARK                         _______ _______ _______ _____ _____    ______ ____
ROOT
ATOM      1  N   UNL     1      -1.200  -0.721   0.008  0.00  0.00    -0.298 N 
ATOM      2  C   UNL     1      -2.410  -0.047   0.126  0.00  0.00    +0.149 A 
ATOM      3  C   UNL     1      -3.608  -0.756   0.243  0.00  0.00    +0.105 A 
ATOM      4  C   UNL     1      -4.795  -0.030   0.359  0.00  0.00    +0.145 A 
ATOM      5  N   UNL     1      -4.740   1.300   0.353  0.00  0.00    -0.219 NA
ATOM      6  C   UNL     1      -3.588   1.930   0.241  0.00  0.00    +0.225 A 
ATOM      7  N   UNL     1      -2.445   1.283   0.135  0.00  0.00    -0.219 NA
ATOM      8  H   UNL     1      -1.189  -1.687  -0.075  0.00  0.00    +0.154 HD
ENDROOT
BRANCH   1  14
ATOM      9  C   UNL     1       1.081  -0.458  -0.739  0.00  0.00    +0.027 A 
ATOM     10  C   UNL     1       2.269   0.248  -0.737  0.00  0.00    +0.051 A 
ATOM     11  C   UNL     1       2.388   1.410   0.010  0.00  0.00    +0.162 A 
ATOM     12  C   UNL     1       1.309   1.868   0.758  0.00  0.00    +0.164 A 
ATOM     13  C   UNL     1       0.117   1.159   0.757  0.00  0.00    +0.072 A 
ATOM     14  C   UNL     1       0.002  -0.005   0.009  0.00  0.00    +0.036 A 
ATOM     15  O   UNL     1       1.404   3.010   1.492  0.00  0.00    -0.485 OA
ATOM     16  C   UNL     1       2.724   3.492   1.765  0.00  0.00    +0.270 C 
ATOM     17  C   UNL     1       3.532   3.446   0.461  0.00  0.00    +0.270 C 
ATOM     18  O   UNL     1       3.568   2.090   0.003  0.00  0.00    -0.485 OA
ENDBRANCH   1  14
BRANCH   3  19
ATOM     19  N   UNL     1      -3.618  -2.160   0.244  0.00  0.00    -0.353 N 
ATOM     20  H   UNL     1      -2.785  -2.651   0.162  0.00  0.00    +0.143 HD
ATOM     21  H   UNL     1      -4.457  -2.639   0.326  0.00  0.00    +0.143 HD
ENDBRANCH   3  19
BRANCH   4  22
ATOM     22  N   UNL     1      -6.014  -0.686   0.478  0.00  0.00    -0.322 N 
ATOM     23  H   UNL     1      -6.045  -1.655   0.481  0.00  0.00    +0.148 HD
BRANCH  22  24
ATOM     24  C   UNL     1      -7.253   0.087   0.599  0.00  0.00    +0.034 C 
ATOM     25  C   UNL     1      -7.426   0.969  -0.639  0.00  0.00    +0.029 C 
ATOM     26  C   UNL     1      -8.720   1.776  -0.513  0.00  0.00    -0.008 C 
ATOM     27  C   UNL     1      -9.909   0.820  -0.397  0.00  0.00    +0.007 C 
ATOM     28  C   UNL     1      -9.735  -0.062   0.841  0.00  0.00    -0.008 C 
ATOM     29  C   UNL     1      -8.441  -0.869   0.715  0.00  0.00    +0.029 C 
ATOM     30  C   UNL     1      -9.666   0.820   2.089  0.00  0.00    +0.007 C 
ATOM     31  C   UNL     1      -8.477   1.776   1.974  0.00  0.00    -0.008 C 
ATOM     32  C   UNL     1      -8.651   2.658   0.735  0.00  0.00    +0.007 C 
ATOM     33  C   UNL     1      -7.184   0.969   1.847  0.00  0.00    +0.029 C 
ENDBRANCH  22  24
ENDBRANCH   4  22
TORSDOF 4
