REMARK  Name = ZINC16610403
REMARK  12 active torsions:
REMARK  status: ('A' for Active; 'I' for Inactive)
REMARK    1  A    between atoms: C_1  and  C_2
REMARK    2  A    between atoms: C_2  and  N_3
REMARK    3  A    between atoms: C_4  and  C_34
REMARK    4  A    between atoms: C_5  and  C_29
REMARK    5  A    between atoms: C_6  and  C_11
REMARK    6  A    between atoms: C_14  and  N_17
REMARK    7  A    between atoms: N_20  and  C_21
REMARK    8  A    between atoms: C_22  and  C_28
REMARK    9  A    between atoms: C_26  and  C_27
REMARK   10  A    between atoms: C_29  and  O_31
REMARK   11  A    between atoms: O_31  and  C_32
REMARK   12  A    between atoms: C_32  and  C_33
REMARK                            x       y       z     vdW  Elec       q    Type
REMARK                         _______ _______ _______ _____ _____    ______ ____
ROOT
ATOM      1  C   UNL     1      -2.845   0.659   1.712  0.00  0.00    -0.022 A 
ATOM      2  C   UNL     1      -1.804   1.225   2.426  0.00  0.00    +0.007 A 
ATOM      3  C   UNL     1      -2.066   2.158   3.410  0.00  0.00    +0.024 A 
ATOM      4  C   UNL     1      -3.378   2.520   3.690  0.00  0.00    +0.035 A 
ATOM      5  C   UNL     1      -4.421   1.946   2.975  0.00  0.00    +0.024 A 
ATOM      6  C   UNL     1      -4.151   1.018   1.988  0.00  0.00    +0.007 A 
ENDROOT
BRANCH   1  10
ATOM      7  N   UNL     1      -0.176  -1.720   0.274  0.00  0.00    -0.286 N 
ATOM      8  C   UNL     1      -1.116  -2.295   1.079  0.00  0.00    +0.021 C 
ATOM      9  C   UNL     1      -2.303  -1.690   1.307  0.00  0.00    +0.078 C 
ATOM     10  C   UNL     1      -2.554  -0.355   0.636  0.00  0.00    +0.141 C 
ATOM     11  N   UNL     1      -1.473   0.182  -0.208  0.00  0.00    -0.315 N 
ATOM     12  C   UNL     1      -0.343  -0.541  -0.339  0.00  0.00    +0.138 C 
ATOM     13  S   UNL     1       0.920   0.068  -1.321  0.00  0.00    -0.018 S 
ATOM     14  C   UNL     1      -0.827  -3.626   1.722  0.00  0.00    +0.061 C 
ATOM     15  H   UNL     1      -1.573   1.033  -0.661  0.00  0.00    +0.149 HD
BRANCH   7  17
ATOM     16  C   UNL     1       0.917  -3.464  -1.047  0.00  0.00    +0.025 C 
ATOM     17  C   UNL     1       1.088  -2.432   0.070  0.00  0.00    +0.109 C 
ENDBRANCH   7  17
BRANCH   9  18
ATOM     18  C   UNL     1      -3.278  -2.285   2.140  0.00  0.00    +0.339 C 
ATOM     19  O   UNL     1      -3.093  -3.399   2.594  0.00  0.00    -0.245 OA
BRANCH  18  20
ATOM     20  O   UNL     1      -4.417  -1.620   2.426  0.00  0.00    -0.462 OA
BRANCH  20  21
ATOM     21  C   UNL     1      -5.361  -2.284   3.269  0.00  0.00    +0.229 C 
ATOM     22  C   UNL     1      -6.579  -1.382   3.480  0.00  0.00    +0.048 C 
ENDBRANCH  20  21
ENDBRANCH  18  20
ENDBRANCH   9  18
ENDBRANCH   1  10
BRANCH   4  23
ATOM     23  N   UNL     1      -3.647   3.460   4.690  0.00  0.00    -0.269 N 
ATOM     24  C   UNL     1      -4.668   4.327   4.542  0.00  0.00    +0.308 C 
ATOM     25  O   UNL     1      -5.410   4.236   3.583  0.00  0.00    -0.252 OA
ATOM     26  N   UNL     1      -4.867   5.297   5.457  0.00  0.00    -0.269 N 
ATOM     27  H   UNL     1      -3.099   3.488   5.490  0.00  0.00    +0.156 HD
ATOM     28  H   UNL     1      -4.252   5.396   6.200  0.00  0.00    +0.156 HD
BRANCH  26  29
ATOM     29  C   UNL     1      -5.961   6.161   5.335  0.00  0.00    +0.041 A 
ATOM     30  C   UNL     1      -6.112   6.935   4.192  0.00  0.00    -0.029 A 
ATOM     31  C   UNL     1      -7.196   7.783   4.072  0.00  0.00    +0.005 A 
ATOM     32  C   UNL     1      -8.124   7.869   5.094  0.00  0.00    +0.001 A 
ATOM     33  C   UNL     1      -7.974   7.103   6.235  0.00  0.00    +0.005 A 
ATOM     34  C   UNL     1      -6.895   6.250   6.359  0.00  0.00    -0.029 A 
ATOM     35  C   UNL     1      -6.731   5.416   7.604  0.00  0.00    +0.045 C 
ATOM     36  C   UNL     1      -5.097   6.846   3.082  0.00  0.00    +0.045 C 
ENDBRANCH  26  29
ENDBRANCH   4  23
TORSDOF 7
