REMARK  Name = ZINC01198923
REMARK  9 active torsions:
REMARK  status: ('A' for Active; 'I' for Inactive)
REMARK    1  A    between atoms: C_1  and  C_2
REMARK    2  A    between atoms: C_2  and  N_3
REMARK    3  A    between atoms: N_3  and  C_4
REMARK    4  A    between atoms: N_3  and  C_6
REMARK    5  A    between atoms: C_4  and  C_5
REMARK    6  A    between atoms: C_9  and  C_12
REMARK    7  A    between atoms: C_14  and  C_21
REMARK    8  A    between atoms: C_15  and  C_20
REMARK    9  A    between atoms: N_23  and  C_24
REMARK                            x       y       z     vdW  Elec       q    Type
REMARK                         _______ _______ _______ _____ _____    ______ ____
ROOT
ATOM      1  C   UNL     1      -2.099   3.882  -0.189  0.00  0.00    +0.139 C 
ATOM      2  C   UNL     1      -2.759   3.757   1.170  0.00  0.00    +0.056 C 
ATOM      3  C   UNL     1      -3.919   3.071   1.245  0.00  0.00    +0.017 C 
ATOM      4  N   UNL     1      -4.479   2.510   0.133  0.00  0.00    -0.300 N 
ATOM      5  C   UNL     1      -3.940   2.589  -1.090  0.00  0.00    +0.135 C 
ATOM      6  S   UNL     1      -4.746   1.837  -2.401  0.00  0.00    -0.019 S 
ATOM      7  N   UNL     1      -2.784   3.240  -1.324  0.00  0.00    -0.315 N 
ATOM      8  C   UNL     1      -4.608   2.924   2.577  0.00  0.00    +0.061 C 
ATOM      9  H   UNL     1      -5.314   2.026   0.235  0.00  0.00    +0.154 HD
ATOM     10  H   UNL     1      -2.411   3.286  -2.218  0.00  0.00    +0.149 HD
ENDROOT
BRANCH   1  14
ATOM     11  C   UNL     1       1.827   2.217   0.095  0.00  0.00    +0.030 A 
ATOM     12  C   UNL     1       0.761   1.421  -0.305  0.00  0.00    +0.023 A 
ATOM     13  C   UNL     1      -0.506   1.964  -0.401  0.00  0.00    +0.007 A 
ATOM     14  C   UNL     1      -0.715   3.295  -0.089  0.00  0.00    -0.023 A 
ATOM     15  C   UNL     1       0.344   4.089   0.310  0.00  0.00    +0.007 A 
ATOM     16  C   UNL     1       1.614   3.554   0.403  0.00  0.00    +0.023 A 
BRANCH  11  17
ATOM     17  N   UNL     1       3.110   1.673   0.187  0.00  0.00    -0.330 N 
BRANCH  17  19
ATOM     18  C   UNL     1       4.375   2.449   2.131  0.00  0.00    +0.024 C 
ATOM     19  C   UNL     1       4.233   2.513   0.609  0.00  0.00    +0.102 C 
ENDBRANCH  17  19
BRANCH  17  20
ATOM     20  C   UNL     1       3.333   0.262  -0.139  0.00  0.00    +0.102 C 
ATOM     21  C   UNL     1       3.660   0.128  -1.627  0.00  0.00    +0.024 C 
ENDBRANCH  17  20
ENDBRANCH  11  17
ENDBRANCH   1  14
BRANCH   2  22
ATOM     22  C   UNL     1      -2.177   4.339   2.322  0.00  0.00    +0.248 C 
ATOM     23  O   UNL     1      -2.037   5.547   2.390  0.00  0.00    -0.270 OA
ATOM     24  N   UNL     1      -1.778   3.557   3.345  0.00  0.00    -0.282 N 
ATOM     25  H   UNL     1      -1.987   2.610   3.341  0.00  0.00    +0.155 HD
BRANCH  24  26
ATOM     26  C   UNL     1      -1.062   4.110   4.411  0.00  0.00    +0.034 A 
ATOM     27  C   UNL     1      -1.242   5.445   4.752  0.00  0.00    +0.023 A 
ATOM     28  C   UNL     1      -0.537   5.987   5.808  0.00  0.00    +0.002 A 
ATOM     29  C   UNL     1       0.354   5.206   6.520  0.00  0.00    +0.000 A 
ATOM     30  C   UNL     1       0.540   3.878   6.180  0.00  0.00    +0.002 A 
ATOM     31  C   UNL     1      -0.166   3.328   5.128  0.00  0.00    +0.023 A 
ENDBRANCH  24  26
ENDBRANCH   2  22
TORSDOF 6
