REMARK  Name = ZINC20919321
REMARK  10 active torsions:
REMARK  status: ('A' for Active; 'I' for Inactive)
REMARK    1  A    between atoms: C_4  and  C_7
REMARK    2  A    between atoms: C_7  and  C_8
REMARK    3  A    between atoms: C_8  and  C_28
REMARK    4  A    between atoms: N_9  and  N_10
REMARK    5  A    between atoms: C_14  and  S_17
REMARK    6  A    between atoms: N_15  and  N_16
REMARK    7  A    between atoms: S_17  and  C_18
REMARK    8  A    between atoms: C_18  and  C_19
REMARK    9  A    between atoms: N_21  and  C_22
REMARK   10  A    between atoms: C_28  and  C_29
REMARK                            x       y       z     vdW  Elec       q    Type
REMARK                         _______ _______ _______ _____ _____    ______ ____
ROOT
ATOM      1  N   UNL     1       4.518  -2.552   3.005  0.00  0.00    -0.204 N 
ATOM      2  C   UNL     1       4.564  -3.893   3.360  0.00  0.00    +0.254 A 
ATOM      3  N   UNL     1       4.168  -4.900   2.620  0.00  0.00    -0.109 NA
ATOM      4  N   UNL     1       4.385  -6.080   3.342  0.00  0.00    -0.119 NA
ATOM      5  C   UNL     1       4.907  -5.756   4.501  0.00  0.00    +0.210 A 
ATOM      6  N   UNL     1       5.037  -4.397   4.540  0.00  0.00    -0.211 N 
ATOM      7  H   UNL     1       4.772  -1.871   3.648  0.00  0.00    +0.177 HD
ENDROOT
BRANCH   6   8
ATOM      8  N   UNL     1       5.547  -3.668   5.576  0.00  0.00    -0.294 N 
ATOM      9  H   UNL     1       4.837  -3.478   6.268  0.00  0.00    +0.163 HD
ATOM     10  H   UNL     1       6.340  -4.135   5.991  0.00  0.00    +0.163 HD
ENDBRANCH   6   8
BRANCH   1  12
ATOM     11  C   UNL     1       4.162  -0.955   1.357  0.00  0.00    +0.045 C 
ATOM     12  N   UNL     1       4.104  -2.181   1.719  0.00  0.00    -0.188 NA
BRANCH  11  13
ATOM     13  C   UNL     1       3.802  -0.568  -0.055  0.00  0.00    +0.088 C 
BRANCH  13  17
ATOM     14  C   UNL     1       0.310   1.892  -0.013  0.00  0.00    +0.000 A 
ATOM     15  C   UNL     1       1.564   2.469   0.072  0.00  0.00    +0.000 A 
ATOM     16  C   UNL     1       2.694   1.673   0.059  0.00  0.00    +0.004 A 
ATOM     17  C   UNL     1       2.570   0.300  -0.039  0.00  0.00    -0.042 A 
ATOM     18  C   UNL     1       1.317  -0.277  -0.124  0.00  0.00    +0.004 A 
ATOM     19  C   UNL     1       0.187   0.519  -0.113  0.00  0.00    +0.000 A 
ENDBRANCH  13  17
ENDBRANCH  11  13
BRANCH  11  20
ATOM     20  C   UNL     1       4.590   0.103   2.342  0.00  0.00    +0.088 C 
BRANCH  20  21
ATOM     21  C   UNL     1       6.080   0.309   2.241  0.00  0.00    -0.042 A 
ATOM     22  C   UNL     1       6.940  -0.501   2.957  0.00  0.00    +0.004 A 
ATOM     23  C   UNL     1       8.306  -0.311   2.864  0.00  0.00    +0.000 A 
ATOM     24  C   UNL     1       8.812   0.689   2.055  0.00  0.00    +0.000 A 
ATOM     25  C   UNL     1       7.952   1.498   1.338  0.00  0.00    +0.000 A 
ATOM     26  C   UNL     1       6.585   1.306   1.427  0.00  0.00    +0.004 A 
ENDBRANCH  20  21
ENDBRANCH  11  20
ENDBRANCH   1  12
BRANCH   5  27
ATOM     27  S   UNL     1       5.367  -6.877   5.780  0.00  0.00    -0.075 S 
BRANCH  27  28
ATOM     28  C   UNL     1       4.949  -8.508   5.105  0.00  0.00    +0.173 C 
BRANCH  28  29
ATOM     29  C   UNL     1       5.297  -9.573   6.113  0.00  0.00    +0.224 C 
ATOM     30  O   UNL     1       5.779  -9.262   7.181  0.00  0.00    -0.275 OA
ATOM     31  N   UNL     1       5.072 -10.871   5.827  0.00  0.00    -0.312 N 
ATOM     32  H   UNL     1       4.686 -11.120   4.973  0.00  0.00    +0.149 HD
BRANCH  31  33
ATOM     33  C   UNL     1       5.410 -11.906   6.807  0.00  0.00    +0.073 C 
ATOM     34  C   UNL     1       4.251 -12.074   7.792  0.00  0.00    +0.022 C 
ATOM     35  C   UNL     1       4.604 -13.155   8.815  0.00  0.00    +0.002 C 
ATOM     36  C   UNL     1       4.855 -14.480   8.092  0.00  0.00    +0.000 C 
ATOM     37  C   UNL     1       6.014 -14.312   7.107  0.00  0.00    +0.002 C 
ATOM     38  C   UNL     1       5.660 -13.231   6.083  0.00  0.00    +0.022 C 
ENDBRANCH  31  33
ENDBRANCH  28  29
ENDBRANCH  27  28
ENDBRANCH   5  27
TORSDOF 10
