REMARK  Name = ZINC27249505
REMARK  11 active torsions:
REMARK  status: ('A' for Active; 'I' for Inactive)
REMARK    1  A    between atoms: C_1  and  C_2
REMARK    2  A    between atoms: C_5  and  C_8
REMARK    3  A    between atoms: N_10  and  C_11
REMARK    4  A    between atoms: C_11  and  C_13
REMARK    5  A    between atoms: C_11  and  C_16
REMARK    6  A    between atoms: C_13  and  C_14
REMARK    7  A    between atoms: C_13  and  C_15
REMARK    8  A    between atoms: N_18  and  N_19
REMARK    9  A    between atoms: N_19  and  C_20
REMARK   10  A    between atoms: C_20  and  N_22
REMARK   11  A    between atoms: N_22  and  C_23
REMARK                            x       y       z     vdW  Elec       q    Type
REMARK                         _______ _______ _______ _____ _____    ______ ____
ROOT
ATOM      1  C   UNL     1       4.298   3.313   4.801  0.00  0.00    +0.163 C 
ENDROOT
BRANCH   1   4
ATOM      2  C   UNL     1       6.202   4.206   6.032  0.00  0.00    +0.245 C 
ATOM      3  O   UNL     1       6.617   4.678   4.992  0.00  0.00    -0.270 OA
ATOM      4  N   UNL     1       5.051   3.506   6.043  0.00  0.00    -0.300 N 
ATOM      5  H   UNL     1       4.675   3.079   6.985  0.00  0.00    +0.150 HD
BRANCH   2  10
ATOM      6  C   UNL     1       9.155   4.964  10.913  0.00  0.00    +0.044 C 
ATOM      7  C   UNL     1       8.382   4.765   9.635  0.00  0.00    -0.050 A 
ATOM      8  C   UNL     1       8.857   5.303   8.452  0.00  0.00    +0.004 A 
ATOM      9  C   UNL     1       8.154   5.125   7.278  0.00  0.00    +0.013 A 
ATOM     10  C   UNL     1       6.961   4.400   7.286  0.00  0.00    +0.037 A 
ATOM     11  C   UNL     1       6.485   3.865   8.484  0.00  0.00    +0.013 A 
ATOM     12  C   UNL     1       7.200   4.046   9.650  0.00  0.00    +0.004 A 
ENDBRANCH   2  10
ENDBRANCH   1   4
BRANCH   1  13
ATOM     13  C   UNL     1       2.845   3.078   5.125  0.00  0.00    +0.250 C 
ATOM     14  O   UNL     1       2.533   2.581   6.186  0.00  0.00    -0.272 OA
ATOM     15  N   UNL     1       1.893   3.421   4.235  0.00  0.00    -0.234 N 
ATOM     16  H   UNL     1       2.169   3.942   3.306  0.00  0.00    +0.173 HD
BRANCH  15  17
ATOM     17  N   UNL     1       0.550   3.114   4.493  0.00  0.00    -0.246 N 
ATOM     18  H   UNL     1       0.274   2.594   5.422  0.00  0.00    +0.172 HD
BRANCH  17  19
ATOM     19  C   UNL     1      -0.402   3.457   3.603  0.00  0.00    +0.147 C 
ATOM     20  S   UNL     1      -2.043   3.082   3.918  0.00  0.00    -0.017 S 
BRANCH  19  21
ATOM     21  N   UNL     1      -0.063   4.095   2.465  0.00  0.00    -0.323 N 
ATOM     22  H   UNL     1       0.991   4.336   2.263  0.00  0.00    +0.148 HD
BRANCH  21  23
ATOM     23  C   UNL     1      -1.099   4.467   1.498  0.00  0.00    +0.072 C 
ATOM     24  C   UNL     1      -0.497   4.590   0.083  0.00  0.00    +0.022 C 
ATOM     25  C   UNL     1      -1.201   5.780  -0.593  0.00  0.00    +0.002 C 
ATOM     26  C   UNL     1      -2.207   6.338   0.434  0.00  0.00    +0.002 C 
ATOM     27  C   UNL     1      -1.643   5.886   1.804  0.00  0.00    +0.022 C 
ENDBRANCH  21  23
ENDBRANCH  19  21
ENDBRANCH  17  19
ENDBRANCH  15  17
ENDBRANCH   1  13
BRANCH   1  28
ATOM     28  C   UNL     1       4.856   2.103   4.050  0.00  0.00    +0.012 C 
ATOM     29  C   UNL     1       4.104   1.933   2.728  0.00  0.00    +0.009 C 
ATOM     30  C   UNL     1       6.344   2.319   3.766  0.00  0.00    +0.009 C 
ENDBRANCH   1  28
TORSDOF 8
