REMARK  Name = ZINC67193419
REMARK  11 active torsions:
REMARK  status: ('A' for Active; 'I' for Inactive)
REMARK    1  A    between atoms: C_1  and  C_2
REMARK    2  A    between atoms: C_5  and  C_12
REMARK    3  A    between atoms: C_8  and  C_10
REMARK    4  A    between atoms: C_8  and  C_11
REMARK    5  A    between atoms: C_12  and  C_13
REMARK    6  A    between atoms: N_15  and  N_16
REMARK    7  A    between atoms: N_16  and  C_17
REMARK    8  A    between atoms: C_17  and  N_19
REMARK    9  A    between atoms: N_19  and  C_20
REMARK   10  A    between atoms: C_24  and  N_26
REMARK   11  A    between atoms: C_27  and  C_29
REMARK                            x       y       z     vdW  Elec       q    Type
REMARK                         _______ _______ _______ _____ _____    ______ ____
ROOT
ATOM      1  N   UNL     1       1.982   0.261  -6.066  0.00  0.00    -0.246 N 
ATOM      2  H   UNL     1       1.243   0.866  -5.895  0.00  0.00    +0.172 HD
ENDROOT
BRANCH   1   5
ATOM      3  C   UNL     1       2.295  -0.062  -3.728  0.00  0.00    +0.229 C 
ATOM      4  O   UNL     1       1.371   0.694  -3.514  0.00  0.00    -0.274 OA
ATOM      5  N   UNL     1       2.665  -0.331  -4.996  0.00  0.00    -0.235 N 
ATOM      6  H   UNL     1       3.405  -0.935  -5.167  0.00  0.00    +0.173 HD
BRANCH   3   7
ATOM      7  C   UNL     1       3.030  -0.699  -2.577  0.00  0.00    +0.101 C 
BRANCH   7  11
ATOM      8  C   UNL     1      -0.031   1.184   0.086  0.00  0.00    +0.007 C 
ATOM      9  C   UNL     1       0.331  -0.299   0.144  0.00  0.00    -0.013 C 
ATOM     10  C   UNL     1       0.979  -0.745  -1.159  0.00  0.00    +0.007 C 
ATOM     11  C   UNL     1       2.414  -0.228  -1.254  0.00  0.00    -0.001 C 
ATOM     12  C   UNL     1       3.223  -0.801  -0.093  0.00  0.00    +0.010 C 
ATOM     13  C   UNL     1       2.652  -0.342   1.244  0.00  0.00    -0.034 C 
ATOM     14  C   UNL     1       1.165  -0.626   1.367  0.00  0.00    +0.009 C 
ATOM     15  C   UNL     1       3.380  -1.123   2.359  0.00  0.00    +0.011 C 
ATOM     16  C   UNL     1       2.948   1.145   1.458  0.00  0.00    +0.011 C 
ENDBRANCH   7  11
ENDBRANCH   3   7
ENDBRANCH   1   5
BRANCH   1  17
ATOM     17  C   UNL     1       2.352  -0.008  -7.334  0.00  0.00    +0.151 C 
ATOM     18  S   UNL     1       1.518   0.716  -8.641  0.00  0.00    -0.017 S 
BRANCH  17  19
ATOM     19  N   UNL     1       3.380  -0.848  -7.572  0.00  0.00    -0.296 N 
ATOM     20  H   UNL     1       3.904  -1.194  -6.833  0.00  0.00    +0.154 HD
BRANCH  19  21
ATOM     21  C   UNL     1       3.688  -1.220  -8.884  0.00  0.00    +0.034 A 
ATOM     22  C   UNL     1       5.015  -1.302  -9.290  0.00  0.00    +0.023 A 
ATOM     23  C   UNL     1       5.321  -1.670 -10.586  0.00  0.00    +0.004 A 
ATOM     24  C   UNL     1       4.310  -1.958 -11.482  0.00  0.00    +0.023 A 
ATOM     25  C   UNL     1       2.982  -1.878 -11.083  0.00  0.00    +0.035 A 
ATOM     26  C   UNL     1       2.671  -1.514  -9.781  0.00  0.00    +0.046 A 
BRANCH  25  27
ATOM     27  N   UNL     1       1.958  -2.170 -11.992  0.00  0.00    -0.286 N 
ATOM     28  C   UNL     1       2.137  -3.127 -12.924  0.00  0.00    +0.214 C 
ATOM     29  O   UNL     1       3.212  -3.679 -13.027  0.00  0.00    -0.276 OA
ATOM     30  C   UNL     1       1.002  -3.510 -13.838  0.00  0.00    +0.109 C 
ATOM     31  H   UNL     1       1.120  -1.684 -11.951  0.00  0.00    +0.155 HD
ENDBRANCH  25  27
ENDBRANCH  19  21
ENDBRANCH  17  19
ENDBRANCH   1  17
TORSDOF 7
