REMARK  Name = ZINC11691125
REMARK  15 active torsions:
REMARK  status: ('A' for Active; 'I' for Inactive)
REMARK    1  A    between atoms: C_1  and  C_2
REMARK    2  A    between atoms: C_2  and  O_3
REMARK    3  A    between atoms: O_3  and  C_4
REMARK    4  A    between atoms: C_4  and  C_6
REMARK    5  A    between atoms: N_19  and  C_34
REMARK    6  A    between atoms: N_21  and  C_22
REMARK    7  A    between atoms: C_22  and  C_24
REMARK    8  A    between atoms: C_27  and  C_30
REMARK    9  A    between atoms: C_30  and  C_31
REMARK   10  A    between atoms: C_30  and  C_32
REMARK   11  A    between atoms: C_30  and  C_33
REMARK   12  A    between atoms: C_34  and  C_35
REMARK   13  A    between atoms: C_35  and  C_36
REMARK   14  A    between atoms: C_36  and  O_37
REMARK   15  A    between atoms: O_37  and  C_38
REMARK                            x       y       z     vdW  Elec       q    Type
REMARK                         _______ _______ _______ _____ _____    ______ ____
ROOT
ATOM      1  C   UNL     1       2.400  -3.083  -8.509  0.00  0.00    +0.100 A 
ATOM      2  C   UNL     1       3.230  -3.398  -9.585  0.00  0.00    +0.035 A 
ATOM      3  C   UNL     1       4.598  -3.136  -9.485  0.00  0.00    +0.083 A 
ATOM      4  C   UNL     1       5.130  -2.559  -8.305  0.00  0.00    +0.150 A 
ATOM      5  N   UNL     1       6.430  -2.319  -8.234  0.00  0.00    -0.211 NA
ATOM      6  C   UNL     1       7.263  -2.602  -9.236  0.00  0.00    +0.143 A 
ATOM      7  C   UNL     1       8.632  -2.315  -9.076  0.00  0.00    +0.047 A 
ATOM      8  C   UNL     1       9.503  -2.595 -10.087  0.00  0.00    +0.005 A 
ATOM      9  C   UNL     1       9.024  -3.167 -11.273  0.00  0.00    +0.018 A 
ATOM     10  C   UNL     1       7.707  -3.437 -11.411  0.00  0.00    +0.096 A 
ATOM     11  N   UNL     1       6.829  -3.160 -10.406  0.00  0.00    -0.268 N 
ATOM     12  C   UNL     1       5.518  -3.445 -10.581  0.00  0.00    +0.268 A 
ATOM     13  O   UNL     1       5.115  -3.942 -11.617  0.00  0.00    -0.267 OA
ATOM     14  N   UNL     1       4.298  -2.251  -7.260  0.00  0.00    -0.311 N 
ATOM     15  C   UNL     1       2.956  -2.506  -7.341  0.00  0.00    +0.142 A 
ATOM     16  N   UNL     1       2.165  -2.205  -6.314  0.00  0.00    -0.158 NA
ENDROOT
BRANCH   1  17
ATOM     17  C   UNL     1       0.958  -3.348  -8.587  0.00  0.00    +0.343 C 
ATOM     18  O   UNL     1       0.237  -3.073  -7.647  0.00  0.00    -0.245 OA
BRANCH  17  19
ATOM     19  O   UNL     1       0.432  -3.897  -9.701  0.00  0.00    -0.461 OA
BRANCH  19  21
ATOM     20  C   UNL     1      -1.409  -4.754 -11.044  0.00  0.00    +0.048 C 
ATOM     21  C   UNL     1      -1.001  -4.131  -9.708  0.00  0.00    +0.229 C 
ENDBRANCH  19  21
ENDBRANCH  17  19
ENDBRANCH   1  17
BRANCH  16  22
ATOM     22  C   UNL     1       2.631  -2.290  -5.064  0.00  0.00    +0.269 C 
ATOM     23  O   UNL     1       3.111  -3.335  -4.662  0.00  0.00    -0.268 OA
BRANCH  22  24
ATOM     24  C   UNL     1       2.564  -1.113  -4.167  0.00  0.00    +0.039 A 
ATOM     25  C   UNL     1       3.153  -1.161  -2.904  0.00  0.00    +0.013 A 
ATOM     26  C   UNL     1       3.088  -0.061  -2.073  0.00  0.00    +0.005 A 
ATOM     27  C   UNL     1       2.440   1.088  -2.491  0.00  0.00    -0.042 A 
ATOM     28  C   UNL     1       1.850   1.140  -3.742  0.00  0.00    +0.005 A 
ATOM     29  C   UNL     1       1.913   0.049  -4.583  0.00  0.00    +0.013 A 
BRANCH  27  30
ATOM     30  C   UNL     1       2.373   2.286  -1.579  0.00  0.00    -0.013 C 
ATOM     31  C   UNL     1       3.782   2.836  -1.355  0.00  0.00    +0.015 C 
ATOM     32  C   UNL     1       1.767   1.871  -0.237  0.00  0.00    +0.015 C 
ATOM     33  C   UNL     1       1.499   3.366  -2.221  0.00  0.00    +0.015 C 
ENDBRANCH  27  30
ENDBRANCH  22  24
ENDBRANCH  16  22
BRANCH  14  34
ATOM     34  C   UNL     1       4.850  -1.650  -6.044  0.00  0.00    +0.127 C 
BRANCH  34  35
ATOM     35  C   UNL     1       4.642  -0.134  -6.085  0.00  0.00    +0.050 C 
BRANCH  35  36
ATOM     36  C   UNL     1       5.355   0.511  -4.895  0.00  0.00    +0.161 C 
BRANCH  36  37
ATOM     37  O   UNL     1       5.105   1.918  -4.895  0.00  0.00    -0.383 OA
ATOM     38  C   UNL     1       5.845   2.640  -3.909  0.00  0.00    +0.193 C 
ENDBRANCH  36  37
ENDBRANCH  35  36
ENDBRANCH  34  35
ENDBRANCH  14  34
TORSDOF 10
