REMARK  Name = ZINC21348699
REMARK  7 active torsions:
REMARK  status: ('A' for Active; 'I' for Inactive)
REMARK    1  A    between atoms: C_1  and  O_2
REMARK    2  A    between atoms: O_2  and  C_3
REMARK    3  A    between atoms: C_6  and  N_9
REMARK    4  A    between atoms: N_12  and  C_13
REMARK    5  A    between atoms: C_16  and  S_19
REMARK    6  A    between atoms: S_19  and  C_20
REMARK    7  A    between atoms: C_21  and  N_32
REMARK                            x       y       z     vdW  Elec       q    Type
REMARK                         _______ _______ _______ _____ _____    ______ ____
ROOT
ATOM      1  C   UNL     1       3.698  -4.723   0.432  0.00  0.00    +0.035 A 
ATOM      2  C   UNL     1       4.875  -3.990   0.338  0.00  0.00    +0.024 A 
ATOM      3  C   UNL     1       6.086  -4.642   0.227  0.00  0.00    +0.017 A 
ATOM      4  C   UNL     1       6.128  -6.031   0.199  0.00  0.00    +0.013 A 
ATOM      5  C   UNL     1       4.950  -6.764   0.288  0.00  0.00    +0.017 A 
ATOM      6  C   UNL     1       3.740  -6.111   0.404  0.00  0.00    +0.024 A 
ENDROOT
BRANCH   1  10
ATOM      7  N   UNL     1       0.262  -4.025   1.310  0.00  0.00    -0.269 N 
ATOM      8  C   UNL     1       1.476  -4.609   1.279  0.00  0.00    +0.308 C 
ATOM      9  O   UNL     1       1.677  -5.630   1.909  0.00  0.00    -0.252 OA
ATOM     10  N   UNL     1       2.469  -4.062   0.550  0.00  0.00    -0.269 N 
ATOM     11  H   UNL     1       0.056  -3.152   0.674  0.00  0.00    +0.156 HD
ATOM     12  H   UNL     1       2.314  -3.096   0.047  0.00  0.00    +0.156 HD
BRANCH   7  16
ATOM     13  C   UNL     1      -2.711  -5.530   3.817  0.00  0.00    +0.120 A 
ATOM     14  C   UNL     1      -1.382  -5.582   4.209  0.00  0.00    +0.047 A 
ATOM     15  C   UNL     1      -0.397  -5.083   3.380  0.00  0.00    +0.027 A 
ATOM     16  C   UNL     1      -0.737  -4.530   2.152  0.00  0.00    +0.035 A 
ATOM     17  C   UNL     1      -2.068  -4.479   1.760  0.00  0.00    +0.027 A 
ATOM     18  C   UNL     1      -3.052  -4.977   2.591  0.00  0.00    +0.047 A 
BRANCH  13  20
ATOM     19  C   UNL     1      -5.028  -5.935   4.166  0.00  0.00    +0.277 C 
ATOM     20  O   UNL     1      -3.681  -6.021   4.634  0.00  0.00    -0.495 OA
ENDBRANCH  13  20
ENDBRANCH   7  16
ENDBRANCH   1  10
BRANCH   4  21
ATOM     21  S   UNL     1       7.675  -6.863   0.051  0.00  0.00    -0.084 S 
BRANCH  21  22
ATOM     22  C   UNL     1       8.774  -5.494   0.196  0.00  0.00    +0.084 C 
ATOM     23  C   UNL     1       9.541  -5.130  -0.869  0.00  0.00    +0.090 C 
ATOM     24  C   UNL     1      10.461  -3.990  -0.775  0.00  0.00    +0.208 C 
ATOM     25  O   UNL     1      11.138  -3.672  -1.735  0.00  0.00    -0.285 OA
ATOM     26  C   UNL     1      10.569  -3.231   0.491  0.00  0.00    +0.034 A 
ATOM     27  C   UNL     1      11.437  -2.152   0.601  0.00  0.00    +0.012 A 
ATOM     28  C   UNL     1      11.522  -1.454   1.795  0.00  0.00    +0.001 A 
ATOM     29  C   UNL     1      10.749  -1.824   2.878  0.00  0.00    +0.001 A 
ATOM     30  C   UNL     1       9.878  -2.899   2.784  0.00  0.00    +0.012 A 
ATOM     31  C   UNL     1       9.782  -3.608   1.594  0.00  0.00    +0.034 A 
ATOM     32  C   UNL     1       8.858  -4.758   1.470  0.00  0.00    +0.202 C 
ATOM     33  O   UNL     1       8.172  -5.094   2.415  0.00  0.00    -0.286 OA
BRANCH  23  34
ATOM     34  N   UNL     1       9.448  -5.844  -2.061  0.00  0.00    -0.354 N 
ATOM     35  H   UNL     1      10.065  -5.555  -2.925  0.00  0.00    +0.142 HD
ATOM     36  H   UNL     1       8.758  -6.697  -2.139  0.00  0.00    +0.142 HD
ENDBRANCH  23  34
ENDBRANCH  21  22
ENDBRANCH   4  21
TORSDOF 6
