REMARK  Name = ZINC13432937
REMARK  14 active torsions:
REMARK  status: ('A' for Active; 'I' for Inactive)
REMARK    1  A    between atoms: C_1  and  C_2
REMARK    2  A    between atoms: C_4  and  O_31
REMARK    3  A    between atoms: C_5  and  C_11
REMARK    4  A    between atoms: C_6  and  O_10
REMARK    5  A    between atoms: C_7  and  C_8
REMARK    6  A    between atoms: C_11  and  C_12
REMARK    7  A    between atoms: C_13  and  C_14
REMARK    8  A    between atoms: C_13  and  C_15
REMARK    9  A    between atoms: C_15  and  C_17
REMARK   10  A    between atoms: C_15  and  O_30
REMARK   11  A    between atoms: C_17  and  C_18
REMARK   12  A    between atoms: C_18  and  C_29
REMARK   13  A    between atoms: C_19  and  C_28
REMARK   14  A    between atoms: C_25  and  C_27
REMARK                            x       y       z     vdW  Elec       q    Type
REMARK                         _______ _______ _______ _____ _____    ______ ____
ROOT
ATOM      1  C   UNL     1       4.745   1.474   2.693  0.00  0.00    -0.021 C 
ATOM      2  C   UNL     1       4.214   0.807   1.698  0.00  0.00    -0.048 C 
ATOM      3  C   UNL     1       4.818   0.900   0.321  0.00  0.00    +0.041 C 
ENDROOT
BRANCH   1   4
ATOM      4  C   UNL     1       5.885   2.427   2.438  0.00  0.00    +0.069 C 
BRANCH   4   9
ATOM      5  C   UNL     1       4.444   7.714   4.330  0.00  0.00    +0.045 C 
ATOM      6  C   UNL     1       4.817   6.341   3.834  0.00  0.00    -0.033 A 
ATOM      7  C   UNL     1       5.435   5.458   4.670  0.00  0.00    +0.050 A 
ATOM      8  C   UNL     1       5.783   4.187   4.221  0.00  0.00    +0.124 A 
ATOM      9  C   UNL     1       5.505   3.804   2.917  0.00  0.00    +0.040 A 
ATOM     10  C   UNL     1       4.884   4.690   2.055  0.00  0.00    +0.134 A 
ATOM     11  C   UNL     1       4.528   5.972   2.513  0.00  0.00    +0.059 A 
BRANCH  11  12
ATOM     12  C   UNL     1       3.864   6.918   1.613  0.00  0.00    +0.262 C 
ATOM     13  O   UNL     1       3.615   6.595   0.470  0.00  0.00    -0.296 OA
ENDBRANCH  11  12
BRANCH  10  14
ATOM     14  O   UNL     1       4.614   4.324   0.777  0.00  0.00    -0.506 OA
ATOM     15  H   UNL     1       3.747   3.912   0.661  0.00  0.00    +0.292 HD
ENDBRANCH  10  14
BRANCH   8  16
ATOM     16  O   UNL     1       6.398   3.318   5.063  0.00  0.00    -0.506 OA
ATOM     17  H   UNL     1       7.363   3.374   5.049  0.00  0.00    +0.292 HD
ENDBRANCH   8  16
ENDBRANCH   4   9
ENDBRANCH   1   4
BRANCH   2  18
ATOM     18  C   UNL     1       2.999  -0.054   1.932  0.00  0.00    +0.141 C 
BRANCH  18  19
ATOM     19  O   UNL     1       3.266  -1.385   1.488  0.00  0.00    -0.387 OA
ATOM     20  H   UNL     1       3.485  -1.450   0.548  0.00  0.00    +0.210 HD
ENDBRANCH  18  19
BRANCH  18  21
ATOM     21  C   UNL     1       1.813   0.516   1.152  0.00  0.00    +0.043 C 
BRANCH  21  22
ATOM     22  C   UNL     1       0.539  -0.280   1.499  0.00  0.00    -0.018 C 
ATOM     23  C   UNL     1      -0.588   0.207   0.606  0.00  0.00    -0.007 C 
ATOM     24  C   UNL     1      -1.966  -0.273   1.035  0.00  0.00    +0.011 C 
ATOM     25  C   UNL     1      -2.256   0.128   2.482  0.00  0.00    +0.075 C 
ATOM     26  C   UNL     1      -1.153  -0.439   3.346  0.00  0.00    +0.137 C 
ATOM     27  O   UNL     1      -1.422  -1.124   4.308  0.00  0.00    -0.297 OA
ATOM     28  C   UNL     1       0.279  -0.139   2.992  0.00  0.00    +0.058 C 
ATOM     29  C   UNL     1       0.675   1.249   3.496  0.00  0.00    +0.016 C 
ATOM     30  C   UNL     1      -0.570   1.730   0.469  0.00  0.00    +0.008 C 
ATOM     31  C   UNL     1       0.821  -1.760   1.184  0.00  0.00    +0.012 C 
ENDBRANCH  21  22
ENDBRANCH  18  21
ENDBRANCH   2  18
TORSDOF 9
