REMARK  Name = ZINC08582673
REMARK  13 active torsions:
REMARK  status: ('A' for Active; 'I' for Inactive)
REMARK    1  A    between atoms: C_1  and  C_2
REMARK    2  A    between atoms: C_2  and  C_3
REMARK    3  A    between atoms: C_3  and  C_5
REMARK    4  A    between atoms: C_3  and  N_66
REMARK    5  A    between atoms: N_9  and  C_10
REMARK    6  A    between atoms: C_10  and  C_11
REMARK    7  A    between atoms: C_16  and  C_17
REMARK    8  A    between atoms: C_16  and  N_66
REMARK    9  A    between atoms: C_17  and  C_18
REMARK   10  A    between atoms: C_24  and  C_25
REMARK   11  A    between atoms: C_24  and  N_66
REMARK   12  A    between atoms: C_31  and  C_36
REMARK   13  A    between atoms: C_34  and  O_35
REMARK                            x       y       z     vdW  Elec       q    Type
REMARK                         _______ _______ _______ _____ _____    ______ ____
ROOT
ATOM      1  N   UNL     1      -4.407   6.798   1.780  0.00  0.00    +0.389 N 
ATOM      2  H   UNL     1      -3.855   7.440   2.361  0.00  0.00    -0.080 HD
ENDROOT
BRANCH   1   3
ATOM      3  C   UNL     1      -5.599   7.511   1.276  0.00  0.00    +0.003 C 
BRANCH   3   4
ATOM      4  C   UNL     1      -5.218   8.939   0.982  0.00  0.00    +0.139 A 
ATOM      5  N   UNL     1      -4.152   9.347   0.336  0.00  0.00    -0.115 NA
ATOM      6  N   UNL     1      -4.183  10.634   0.290  0.00  0.00    -0.023 NA
ATOM      7  N   UNL     1      -5.241  11.058   0.890  0.00  0.00    -0.044 NA
ATOM      8  N   UNL     1      -5.907  10.042   1.325  0.00  0.00    -0.223 N 
BRANCH   8   9
ATOM      9  C   UNL     1      -7.175  10.083   2.059  0.00  0.00    +0.221 C 
BRANCH   9  10
ATOM     10  C   UNL     1      -6.897  10.160   3.538  0.00  0.00    +0.126 A 
ATOM     11  C   UNL     1      -6.745  11.290   4.252  0.00  0.00    +0.046 A 
ATOM     12  C   UNL     1      -6.504  10.900   5.589  0.00  0.00    +0.041 A 
ATOM     13  C   UNL     1      -6.515   9.555   5.611  0.00  0.00    +0.195 A 
ATOM     14  O   UNL     1      -6.754   9.112   4.366  0.00  0.00    -0.466 OA
ENDBRANCH   9  10
ENDBRANCH   8   9
ENDBRANCH   3   4
BRANCH   3  16
ATOM     15  C   UNL     1      -6.645   5.449   0.327  0.00  0.00    +0.002 C 
ATOM     16  C   UNL     1      -6.118   6.848  -0.002  0.00  0.00    -0.011 C 
ENDBRANCH   3  16
ENDBRANCH   1   3
BRANCH   1  17
ATOM     17  C   UNL     1      -4.820   5.641   2.603  0.00  0.00    -0.073 C 
BRANCH  17  18
ATOM     18  C   UNL     1      -5.336   6.155   3.948  0.00  0.00    +0.016 C 
BRANCH  18  19
ATOM     19  C   UNL     1      -5.622   4.986   4.856  0.00  0.00    -0.049 A 
ATOM     20  C   UNL     1      -6.878   4.408   4.863  0.00  0.00    +0.003 A 
ATOM     21  C   UNL     1      -7.139   3.333   5.692  0.00  0.00    +0.000 A 
ATOM     22  C   UNL     1      -6.147   2.843   6.521  0.00  0.00    +0.000 A 
ATOM     23  C   UNL     1      -4.893   3.424   6.518  0.00  0.00    +0.000 A 
ATOM     24  C   UNL     1      -4.631   4.496   5.685  0.00  0.00    +0.003 A 
ENDBRANCH  18  19
ENDBRANCH  17  18
ENDBRANCH   1  17
BRANCH   1  25
ATOM     25  C   UNL     1      -3.575   6.340   0.647  0.00  0.00    -0.037 C 
BRANCH  25  26
ATOM     26  C   UNL     1      -2.220   5.941   1.171  0.00  0.00    -0.002 A 
ATOM     27  C   UNL     1      -1.886   4.622   1.266  0.00  0.00    +0.017 A 
ATOM     28  C   UNL     1      -0.609   4.292   1.761  0.00  0.00    +0.001 A 
ATOM     29  C   UNL     1      -0.197   2.955   1.880  0.00  0.00    +0.010 A 
ATOM     30  C   UNL     1       1.043   2.674   2.368  0.00  0.00    +0.001 A 
ATOM     31  C   UNL     1       1.913   3.696   2.741  0.00  0.00    +0.005 A 
ATOM     32  C   UNL     1       1.547   5.003   2.634  0.00  0.00    -0.024 A 
ATOM     33  C   UNL     1       0.273   5.333   2.140  0.00  0.00    +0.078 A 
ATOM     34  N   UNL     1      -0.112   6.608   2.024  0.00  0.00    -0.213 NA
ATOM     35  C   UNL     1      -1.302   6.923   1.562  0.00  0.00    +0.214 A 
ATOM     36  C   UNL     1       2.505   6.092   3.045  0.00  0.00    +0.046 C 
BRANCH  35  37
ATOM     37  O   UNL     1      -1.649   8.230   1.462  0.00  0.00    -0.492 OA
ATOM     38  H   UNL     1      -1.425   8.633   0.613  0.00  0.00    +0.294 HD
ENDBRANCH  35  37
ENDBRANCH  25  26
ENDBRANCH   1  25
TORSDOF 11
