REMARK  Name = ZINC10295726
REMARK  12 active torsions:
REMARK  status: ('A' for Active; 'I' for Inactive)
REMARK    1  A    between atoms: C_1  and  C_2
REMARK    2  A    between atoms: C_2  and  C_3
REMARK    3  A    between atoms: C_3  and  C_5
REMARK    4  A    between atoms: C_3  and  O_6
REMARK    5  A    between atoms: O_6  and  C_7
REMARK    6  A    between atoms: C_10  and  C_13
REMARK    7  A    between atoms: N_15  and  C_16
REMARK    8  A    between atoms: C_16  and  N_18
REMARK    9  A    between atoms: N_18  and  N_19
REMARK   10  A    between atoms: C_20  and  C_22
REMARK   11  A    between atoms: C_25  and  N_28
REMARK   12  A    between atoms: C_29  and  C_31
REMARK                            x       y       z     vdW  Elec       q    Type
REMARK                         _______ _______ _______ _____ _____    ______ ____
ROOT
ATOM      1  N   UNL     1       2.182  -4.527   1.288  0.00  0.00    -0.231 N 
ATOM      2  C   UNL     1       0.935  -4.024   1.371  0.00  0.00    +0.260 C 
ATOM      3  O   UNL     1       0.015  -4.733   1.730  0.00  0.00    -0.269 OA
ATOM      4  H   UNL     1       2.916  -3.961   1.002  0.00  0.00    +0.173 HD
ENDROOT
BRANCH   2   5
ATOM      5  C   UNL     1       0.685  -2.610   1.027  0.00  0.00    +0.038 A 
ATOM      6  C   UNL     1      -0.608  -2.087   1.113  0.00  0.00    +0.015 A 
ATOM      7  C   UNL     1      -0.838  -0.768   0.791  0.00  0.00    +0.024 A 
ATOM      8  C   UNL     1       0.216   0.043   0.381  0.00  0.00    +0.033 A 
ATOM      9  C   UNL     1       1.503  -0.476   0.289  0.00  0.00    +0.024 A 
ATOM     10  C   UNL     1       1.741  -1.793   0.614  0.00  0.00    +0.015 A 
BRANCH   8  11
ATOM     11  N   UNL     1      -0.020   1.379   0.056  0.00  0.00    -0.285 N 
ATOM     12  C   UNL     1       0.897   2.318   0.360  0.00  0.00    +0.220 C 
ATOM     13  O   UNL     1       1.963   1.993   0.837  0.00  0.00    -0.275 OA
ATOM     14  H   UNL     1      -0.842   1.631  -0.393  0.00  0.00    +0.155 HD
BRANCH  12  15
ATOM     15  C   UNL     1       0.597   3.774   0.107  0.00  0.00    +0.075 C 
ATOM     16  C   UNL     1       0.329   3.987  -1.384  0.00  0.00    +0.013 C 
ATOM     17  C   UNL     1       0.025   5.464  -1.641  0.00  0.00    +0.001 C 
ATOM     18  C   UNL     1       1.222   6.314  -1.211  0.00  0.00    +0.000 C 
ATOM     19  C   UNL     1       1.490   6.101   0.280  0.00  0.00    +0.001 C 
ATOM     20  C   UNL     1       1.794   4.623   0.537  0.00  0.00    +0.013 C 
ENDBRANCH  12  15
ENDBRANCH   8  11
ENDBRANCH   2   5
BRANCH   1  21
ATOM     21  N   UNL     1       2.419  -5.869   1.615  0.00  0.00    -0.245 N 
ATOM     22  H   UNL     1       1.686  -6.435   1.902  0.00  0.00    +0.172 HD
BRANCH  21  23
ATOM     23  C   UNL     1       3.667  -6.372   1.532  0.00  0.00    +0.153 C 
ATOM     24  S   UNL     1       3.956  -8.011   1.932  0.00  0.00    -0.017 S 
BRANCH  23  27
ATOM     25  C   UNL     1       5.933  -6.089   1.051  0.00  0.00    +0.250 C 
ATOM     26  O   UNL     1       6.139  -7.253   1.334  0.00  0.00    -0.270 OA
ATOM     27  N   UNL     1       4.686  -5.585   1.134  0.00  0.00    -0.263 N 
ATOM     28  H   UNL     1       4.522  -4.656   0.907  0.00  0.00    +0.157 HD
BRANCH  25  32
ATOM     29  C   UNL     1       9.144  -3.610  -0.203  0.00  0.00    +0.121 A 
ATOM     30  C   UNL     1       9.382  -4.940   0.121  0.00  0.00    +0.046 A 
ATOM     31  C   UNL     1       8.343  -5.748   0.528  0.00  0.00    +0.016 A 
ATOM     32  C   UNL     1       7.049  -5.227   0.615  0.00  0.00    +0.037 A 
ATOM     33  C   UNL     1       6.813  -3.890   0.282  0.00  0.00    +0.016 A 
ATOM     34  C   UNL     1       7.858  -3.088  -0.118  0.00  0.00    +0.046 A 
BRANCH  29  35
ATOM     35  O   UNL     1      10.170  -2.817  -0.604  0.00  0.00    -0.489 OA
BRANCH  35  36
ATOM     36  C   UNL     1      11.443  -3.443  -0.781  0.00  0.00    +0.170 C 
ATOM     37  C   UNL     1      12.173  -3.504   0.562  0.00  0.00    +0.052 C 
BRANCH  36  39
ATOM     38  C   UNL     1      11.607  -2.678  -3.154  0.00  0.00    +0.007 C 
ATOM     39  C   UNL     1      12.275  -2.634  -1.778  0.00  0.00    +0.041 C 
ENDBRANCH  36  39
ENDBRANCH  35  36
ENDBRANCH  29  35
ENDBRANCH  25  32
ENDBRANCH  23  27
ENDBRANCH  21  23
ENDBRANCH   1  21
TORSDOF 10
