REMARK  Name = ZINC20906519
REMARK  10 active torsions:
REMARK  status: ('A' for Active; 'I' for Inactive)
REMARK    1  A    between atoms: C_1  and  C_2
REMARK    2  A    between atoms: C_2  and  S_3
REMARK    3  A    between atoms: S_3  and  C_4
REMARK    4  A    between atoms: C_9  and  N_13
REMARK    5  A    between atoms: C_14  and  C_16
REMARK    6  A    between atoms: C_16  and  S_17
REMARK    7  A    between atoms: S_17  and  C_18
REMARK    8  A    between atoms: N_23  and  N_24
REMARK    9  A    between atoms: C_25  and  C_26
REMARK   10  A    between atoms: C_30  and  O_32
REMARK                            x       y       z     vdW  Elec       q    Type
REMARK                         _______ _______ _______ _____ _____    ______ ____
ROOT
ATOM      1  S   UNL     1      -1.437  -1.075  -0.375  0.00  0.00    -0.075 S 
ENDROOT
BRANCH   1   2
ATOM      2  C   UNL     1      -0.037  -0.004  -0.353  0.00  0.00    +0.211 A 
ATOM      3  N   UNL     1      -0.065   1.356  -0.483  0.00  0.00    -0.186 NA
ATOM      4  C   UNL     1       1.222   1.813  -0.413  0.00  0.00    +0.232 A 
ATOM      5  N   UNL     1       2.011   0.779  -0.248  0.00  0.00    -0.245 N 
ATOM      6  N   UNL     1       1.213  -0.372  -0.210  0.00  0.00    -0.144 NA
ATOM      7  N   UNL     1       1.622   3.139  -0.503  0.00  0.00    -0.205 N 
ATOM      8  H   UNL     1       0.872   3.931  -0.642  0.00  0.00    +0.177 HD
ATOM      9  H   UNL     1       3.098   0.925  -0.167  0.00  0.00    +0.192 HD
BRANCH   7  10
ATOM     10  N   UNL     1       2.981   3.467  -0.415  0.00  0.00    -0.188 NA
ATOM     11  C   UNL     1       3.355   4.708  -0.498  0.00  0.00    +0.138 C 
BRANCH  11  12
ATOM     12  C   UNL     1       4.786   5.054  -0.406  0.00  0.00    -0.002 A 
ATOM     13  C   UNL     1       5.741   4.049  -0.229  0.00  0.00    +0.010 A 
ATOM     14  C   UNL     1       7.078   4.377  -0.144  0.00  0.00    +0.004 A 
ATOM     15  C   UNL     1       7.478   5.698  -0.233  0.00  0.00    +0.045 A 
ATOM     16  C   UNL     1       6.537   6.703  -0.410  0.00  0.00    +0.117 A 
ATOM     17  C   UNL     1       5.192   6.386  -0.501  0.00  0.00    +0.054 A 
BRANCH  16  18
ATOM     18  O   UNL     1       6.936   8.000  -0.497  0.00  0.00    -0.507 OA
ATOM     19  H   UNL     1       6.191   8.796  -0.637  0.00  0.00    +0.292 HD
ENDBRANCH  16  18
ENDBRANCH  11  12
ENDBRANCH   7  10
ENDBRANCH   1   2
BRANCH   1  20
ATOM     20  C   UNL     1      -0.726  -2.730  -0.158  0.00  0.00    +0.173 C 
BRANCH  20  22
ATOM     21  N   UNL     1      -1.537  -5.062  -0.011  0.00  0.00    -0.285 N 
ATOM     22  C   UNL     1      -1.830  -3.755  -0.158  0.00  0.00    +0.227 C 
ATOM     23  O   UNL     1      -2.984  -3.404  -0.291  0.00  0.00    -0.275 OA
ATOM     24  H   UNL     1      -0.487  -5.389   0.023  0.00  0.00    +0.155 HD
BRANCH  21  30
ATOM     25  C   UNL     1      -6.801  -8.313   1.084  0.00  0.00    +0.136 A 
ATOM     26  N   UNL     1      -5.705  -8.720   0.485  0.00  0.00    -0.233 NA
ATOM     27  C   UNL     1      -4.632  -7.915   0.311  0.00  0.00    +0.080 A 
ATOM     28  C   UNL     1      -3.401  -8.227  -0.312  0.00  0.00    +0.031 A 
ATOM     29  C   UNL     1      -2.406  -7.290  -0.408  0.00  0.00    +0.025 A 
ATOM     30  C   UNL     1      -2.568  -6.003   0.100  0.00  0.00    +0.035 A 
ATOM     31  C   UNL     1      -3.763  -5.667   0.723  0.00  0.00    +0.040 A 
ATOM     32  C   UNL     1      -4.763  -6.602   0.816  0.00  0.00    +0.042 A 
ATOM     33  S   UNL     1      -6.404  -6.620   1.498  0.00  0.00    -0.061 S 
BRANCH  25  34
ATOM     34  S   UNL     1      -8.285  -9.209   1.399  0.00  0.00    -0.099 S 
BRANCH  34  36
ATOM     35  C   UNL     1      -9.021 -11.777   0.827  0.00  0.00    +0.016 C 
ATOM     36  C   UNL     1      -7.849 -10.806   0.668  0.00  0.00    +0.073 C 
ENDBRANCH  34  36
ENDBRANCH  25  34
ENDBRANCH  21  30
ENDBRANCH  20  22
ENDBRANCH   1  20
TORSDOF 9
