REMARK  Name = ZINC28359393
REMARK  10 active torsions:
REMARK  status: ('A' for Active; 'I' for Inactive)
REMARK    1  A    between atoms: C_1  and  C_2
REMARK    2  A    between atoms: C_2  and  C_4
REMARK    3  A    between atoms: C_2  and  N_18
REMARK    4  A    between atoms: N_6  and  C_7
REMARK    5  A    between atoms: C_10  and  O_13
REMARK    6  A    between atoms: O_13  and  C_14
REMARK    7  A    between atoms: N_18  and  C_19
REMARK    8  A    between atoms: C_22  and  O_25
REMARK    9  A    between atoms: O_25  and  C_26
REMARK   10  A    between atoms: C_26  and  C_27
REMARK                            x       y       z     vdW  Elec       q    Type
REMARK                         _______ _______ _______ _____ _____    ______ ____
ROOT
ATOM      1  C   UNL     1      -0.876  -0.518  -1.288  0.00  0.00    +0.038 C 
ATOM      2  C   UNL     1       0.013   0.009  -0.160  0.00  0.00    +0.154 C 
ENDROOT
BRANCH   2   3
ATOM      3  C   UNL     1      -0.024   1.516  -0.154  0.00  0.00    +0.237 C 
ATOM      4  O   UNL     1       0.999   2.148  -0.310  0.00  0.00    -0.273 OA
ATOM      5  N   UNL     1      -1.195   2.161   0.019  0.00  0.00    -0.284 N 
ATOM      6  H   UNL     1      -2.134   1.591   0.072  0.00  0.00    +0.155 HD
BRANCH   5   7
ATOM      7  C   UNL     1      -1.215   3.557   0.133  0.00  0.00    +0.034 A 
ATOM      8  C   UNL     1      -0.159   4.220   0.743  0.00  0.00    +0.027 A 
ATOM      9  C   UNL     1      -0.177   5.597   0.850  0.00  0.00    +0.048 A 
ATOM     10  C   UNL     1      -1.257   6.316   0.358  0.00  0.00    +0.130 A 
ATOM     11  C   UNL     1      -2.315   5.654  -0.247  0.00  0.00    +0.048 A 
ATOM     12  C   UNL     1      -2.295   4.278  -0.359  0.00  0.00    +0.027 A 
BRANCH  10  13
ATOM     13  O   UNL     1      -1.277   7.671   0.468  0.00  0.00    -0.406 OA
BRANCH  13  14
ATOM     14  C   UNL     1      -0.154   8.287   1.102  0.00  0.00    +0.575 C 
ATOM     15  F   UNL     1       1.009   7.986   0.386  0.00  0.00    -0.133 F 
ATOM     16  F   UNL     1      -0.338   9.674   1.131  0.00  0.00    -0.133 F 
ATOM     17  F   UNL     1      -0.035   7.806   2.410  0.00  0.00    -0.133 F 
ENDBRANCH  13  14
ENDBRANCH  10  13
ENDBRANCH   5   7
ENDBRANCH   2   3
BRANCH   2  18
ATOM     18  N   UNL     1       1.390  -0.444  -0.371  0.00  0.00    -0.333 N 
ATOM     19  H   UNL     1       2.111   0.206  -0.888  0.00  0.00    +0.147 HD
BRANCH  18  20
ATOM     20  C   UNL     1       1.789  -1.706   0.086  0.00  0.00    +0.028 A 
ATOM     21  C   UNL     1       0.881  -2.525   0.744  0.00  0.00    +0.026 A 
ATOM     22  C   UNL     1       1.274  -3.772   1.188  0.00  0.00    +0.047 A 
ATOM     23  C   UNL     1       2.577  -4.201   0.989  0.00  0.00    +0.121 A 
ATOM     24  C   UNL     1       3.486  -3.381   0.337  0.00  0.00    +0.047 A 
ATOM     25  C   UNL     1       3.094  -2.136  -0.114  0.00  0.00    +0.026 A 
BRANCH  23  26
ATOM     26  O   UNL     1       2.965  -5.427   1.432  0.00  0.00    -0.483 OA
BRANCH  26  27
ATOM     27  C   UNL     1       1.977  -6.219   2.095  0.00  0.00    +0.324 C 
BRANCH  27  28
ATOM     28  C   UNL     1       2.584  -7.534   2.512  0.00  0.00    +0.248 C 
ATOM     29  O   UNL     1       3.748  -7.770   2.266  0.00  0.00    -0.272 OA
ATOM     30  N   UNL     1       1.834  -8.448   3.158  0.00  0.00    -0.327 N 
ATOM     31  H   UNL     1       2.277  -9.408   3.463  0.00  0.00    +0.145 HD
ATOM     32  H   UNL     1       0.778  -8.235   3.381  0.00  0.00    +0.145 HD
ENDBRANCH  27  28
ENDBRANCH  26  27
ENDBRANCH  23  26
ENDBRANCH  18  20
ENDBRANCH   2  18
TORSDOF 9
