REMARK  Name = ZINC59385383
REMARK  7 active torsions:
REMARK  status: ('A' for Active; 'I' for Inactive)
REMARK    1  A    between atoms: C_1  and  C_2
REMARK    2  A    between atoms: C_3  and  C_18
REMARK    3  A    between atoms: C_4  and  C_10
REMARK    4  A    between atoms: C_15  and  O_16
REMARK    5  A    between atoms: O_16  and  C_17
REMARK    6  A    between atoms: N_20  and  N_21
REMARK    7  A    between atoms: C_22  and  C_23
REMARK                            x       y       z     vdW  Elec       q    Type
REMARK                         _______ _______ _______ _____ _____    ______ ____
ROOT
ATOM      1  C   UNL     1       0.418   1.347   0.274  0.00  0.00    +0.061 C 
ATOM      2  C   UNL     1       0.261  -0.142   0.104  0.00  0.00    +0.017 C 
ATOM      3  C   UNL     1      -0.975  -0.685   0.114  0.00  0.00    +0.057 C 
ATOM      4  C   UNL     1      -1.087  -2.186  -0.061  0.00  0.00    +0.143 C 
ATOM      5  N   UNL     1       0.170  -2.934  -0.229  0.00  0.00    -0.315 N 
ATOM      6  C   UNL     1       1.330  -2.249  -0.218  0.00  0.00    +0.135 C 
ATOM      7  S   UNL     1       2.800  -3.107  -0.412  0.00  0.00    -0.019 S 
ATOM      8  N   UNL     1       1.371  -0.920  -0.064  0.00  0.00    -0.300 N 
ATOM      9  H   UNL     1       0.163  -3.897  -0.345  0.00  0.00    +0.149 HD
ATOM     10  H   UNL     1       2.239  -0.485  -0.069  0.00  0.00    +0.154 HD
ENDROOT
BRANCH   4  11
ATOM     11  C   UNL     1      -1.949  -2.449  -1.269  0.00  0.00    +0.019 A 
ATOM     12  C   UNL     1      -2.155  -1.452  -2.202  0.00  0.00    +0.009 A 
ATOM     13  C   UNL     1      -2.946  -1.692  -3.310  0.00  0.00    +0.001 A 
ATOM     14  C   UNL     1      -3.533  -2.932  -3.488  0.00  0.00    +0.004 A 
ATOM     15  C   UNL     1      -3.329  -3.933  -2.558  0.00  0.00    +0.046 A 
ATOM     16  C   UNL     1      -2.531  -3.696  -1.448  0.00  0.00    +0.125 A 
BRANCH  16  17
ATOM     17  O   UNL     1      -2.325  -4.681  -0.535  0.00  0.00    -0.495 OA
ATOM     18  C   UNL     1      -2.863  -5.969  -0.838  0.00  0.00    +0.277 C 
ENDBRANCH  16  17
ENDBRANCH   4  11
BRANCH   3  19
ATOM     19  C   UNL     1      -2.127   0.121   0.283  0.00  0.00    +0.263 C 
ATOM     20  O   UNL     1      -2.010   1.315   0.489  0.00  0.00    -0.269 OA
ATOM     21  N   UNL     1      -3.353  -0.434   0.216  0.00  0.00    -0.203 N 
ATOM     22  H   UNL     1      -3.446  -1.396   0.134  0.00  0.00    +0.178 HD
BRANCH  21  23
ATOM     23  N   UNL     1      -4.494   0.378   0.266  0.00  0.00    -0.187 NA
ATOM     24  C   UNL     1      -5.673  -0.161   0.300  0.00  0.00    +0.139 C 
BRANCH  24  25
ATOM     25  C   UNL     1      -6.875   0.691   0.241  0.00  0.00    +0.013 A 
ATOM     26  C   UNL     1      -8.147   0.114   0.283  0.00  0.00    +0.011 A 
ATOM     27  C   UNL     1      -9.267   0.917   0.228  0.00  0.00    +0.001 A 
ATOM     28  C   UNL     1      -9.134   2.291   0.131  0.00  0.00    +0.001 A 
ATOM     29  C   UNL     1      -7.878   2.870   0.088  0.00  0.00    +0.020 A 
ATOM     30  C   UNL     1      -6.748   2.080   0.148  0.00  0.00    +0.050 A 
ATOM     31 CL   UNL     1      -5.173   2.808   0.102  0.00  0.00    -0.083 Cl
ENDBRANCH  24  25
ENDBRANCH  21  23
ENDBRANCH   3  19
TORSDOF 5
