REMARK  Name = ZINC63569339
REMARK  4 active torsions:
REMARK  status: ('A' for Active; 'I' for Inactive)
REMARK    1  A    between atoms: C_1  and  C_2
REMARK    2  A    between atoms: C_5  and  N_8
REMARK    3  A    between atoms: C_9  and  C_11
REMARK    4  A    between atoms: C_14  and  C_17
REMARK                            x       y       z     vdW  Elec       q    Type
REMARK                         _______ _______ _______ _____ _____    ______ ____
ROOT
ATOM      1  C   UNL     1      -1.941  -2.293   4.845  0.00  0.00    +0.238 C 
ATOM      2  C   UNL     1      -1.137  -1.200   5.526  0.00  0.00    +0.040 C 
ATOM      3  C   UNL     1      -0.851  -1.715   6.737  0.00  0.00    +0.092 C 
ATOM      4  N   UNL     1      -1.378  -2.962   6.858  0.00  0.00    -0.153 NA
ATOM      5  N   UNL     1      -1.996  -3.357   5.862  0.00  0.00    -0.170 NA
ENDROOT
BRANCH   3   6
ATOM      6  C   UNL     1      -0.070  -1.020   7.790  0.00  0.00    +0.002 A 
ATOM      7  C   UNL     1       0.422   0.264   7.563  0.00  0.00    +0.011 A 
ATOM      8  C   UNL     1       1.147   0.906   8.545  0.00  0.00    +0.016 A 
ATOM      9  C   UNL     1       1.387   0.277   9.755  0.00  0.00    +0.018 A 
ATOM     10  C   UNL     1       0.900  -0.998   9.986  0.00  0.00    +0.016 A 
ATOM     11  C   UNL     1       0.169  -1.647   9.011  0.00  0.00    +0.011 A 
ATOM     12 BR   UNL     1       2.382   1.163  11.097  0.00  0.00    -0.050 Br
ENDBRANCH   3   6
BRANCH   1  14
ATOM     13  N   UNL     1      -1.358  -2.098   2.449  0.00  0.00    -0.310 N 
ATOM     14  C   UNL     1      -1.235  -2.779   3.606  0.00  0.00    +0.244 C 
ATOM     15  O   UNL     1      -0.557  -3.784   3.648  0.00  0.00    -0.273 OA
ATOM     16  H   UNL     1      -1.901  -1.294   2.415  0.00  0.00    +0.149 HD
BRANCH  13  21
ATOM     17  C   UNL     1      -0.019   1.526   0.010  0.00  0.00    +0.007 C 
ATOM     18  C   UNL     1       0.002  -0.004   0.002  0.00  0.00    -0.014 C 
ATOM     19  C   UNL     1      -1.433  -0.534   0.013  0.00  0.00    +0.005 C 
ATOM     20  C   UNL     1      -1.413  -2.063   0.004  0.00  0.00    +0.022 C 
ATOM     21  C   UNL     1      -0.673  -2.570   1.244  0.00  0.00    +0.073 C 
ATOM     22  C   UNL     1       0.763  -2.041   1.233  0.00  0.00    +0.022 C 
ATOM     23  C   UNL     1       0.742  -0.511   1.242  0.00  0.00    +0.005 C 
ENDBRANCH  13  21
ENDBRANCH   1  14
TORSDOF 3
