REMARK  Name = ZINC01424840
REMARK  7 active torsions:
REMARK  status: ('A' for Active; 'I' for Inactive)
REMARK    1  A    between atoms: C_4  and  O_7
REMARK    2  A    between atoms: O_7  and  C_8
REMARK    3  A    between atoms: C_11  and  O_30
REMARK    4  A    between atoms: C_12  and  C_14
REMARK    5  A    between atoms: C_14  and  C_15
REMARK    6  A    between atoms: C_14  and  C_25
REMARK    7  A    between atoms: C_14  and  O_29
REMARK                            x       y       z     vdW  Elec       q    Type
REMARK                         _______ _______ _______ _____ _____    ______ ____
ROOT
ATOM      1  C   UNL     1       4.836   2.573   0.001  0.00  0.00    +0.247 C 
ENDROOT
BRANCH   1   2
ATOM      2  C   UNL     1       3.334   2.662   0.082  0.00  0.00    +0.154 A 
ATOM      3  N   UNL     1       2.498   1.600   0.234  0.00  0.00    -0.339 N 
ATOM      4  H   UNL     1       2.767   0.640   0.312  0.00  0.00    +0.167 HD
ATOM      5  C   UNL     1       1.208   2.094   0.263  0.00  0.00    +0.066 A 
ATOM      6  C   UNL     1      -0.046   1.514   0.393  0.00  0.00    +0.028 A 
ATOM      7  C   UNL     1      -1.171   2.310   0.377  0.00  0.00    +0.002 A 
ATOM      8  C   UNL     1      -1.057   3.686   0.242  0.00  0.00    +0.002 A 
ATOM      9  C   UNL     1       0.169   4.274   0.112  0.00  0.00    +0.030 A 
ATOM     10  C   UNL     1       1.323   3.487   0.120  0.00  0.00    +0.089 A 
ATOM     11  N   UNL     1       2.648   3.766   0.015  0.00  0.00    -0.229 NA
ENDBRANCH   1   2
BRANCH   1  16
ATOM     12  C   UNL     1       6.902   5.623   0.847  0.00  0.00    +0.129 A 
ATOM     13  C   UNL     1       6.491   6.517  -0.131  0.00  0.00    +0.050 A 
ATOM     14  C   UNL     1       5.547   6.134  -1.064  0.00  0.00    +0.049 A 
ATOM     15  C   UNL     1       5.013   4.854  -1.025  0.00  0.00    +0.124 A 
ATOM     16  C   UNL     1       5.420   3.962  -0.044  0.00  0.00    +0.045 A 
ATOM     17  C   UNL     1       6.364   4.345   0.889  0.00  0.00    +0.057 A 
BRANCH  15  18
ATOM     18  O   UNL     1       4.088   4.475  -1.946  0.00  0.00    -0.506 OA
ATOM     19  H   UNL     1       3.174   4.654  -1.683  0.00  0.00    +0.292 HD
ENDBRANCH  15  18
BRANCH  12  20
ATOM     20  O   UNL     1       7.831   6.000   1.765  0.00  0.00    -0.456 OA
BRANCH  20  24
ATOM     21  C   UNL     1       9.082   9.931   1.755  0.00  0.00    +0.000 A 
ATOM     22  C   UNL     1       7.779   9.622   2.097  0.00  0.00    +0.004 A 
ATOM     23  C   UNL     1       7.357   8.307   2.102  0.00  0.00    +0.046 A 
ATOM     24  C   UNL     1       8.243   7.295   1.761  0.00  0.00    +0.128 A 
ATOM     25  C   UNL     1       9.552   7.606   1.423  0.00  0.00    +0.046 A 
ATOM     26  C   UNL     1       9.967   8.924   1.415  0.00  0.00    +0.004 A 
ENDBRANCH  20  24
ENDBRANCH  12  20
ENDBRANCH   1  16
BRANCH   1  27
ATOM     27  C   UNL     1       5.235   1.811  -1.264  0.00  0.00    +0.430 C 
ATOM     28  F   UNL     1       4.622   2.400  -2.376  0.00  0.00    -0.167 F 
ATOM     29  F   UNL     1       6.625   1.858  -1.419  0.00  0.00    -0.167 F 
ATOM     30  F   UNL     1       4.822   0.479  -1.156  0.00  0.00    -0.167 F 
ENDBRANCH   1  27
BRANCH   1  31
ATOM     31  O   UNL     1       5.335   1.884   1.149  0.00  0.00    -0.369 OA
ATOM     32  H   UNL     1       5.119   2.312   1.989  0.00  0.00    +0.212 HD
ENDBRANCH   1  31
TORSDOF 7
