REMARK  Name = ZINC63808354
REMARK  9 active torsions:
REMARK  status: ('A' for Active; 'I' for Inactive)
REMARK    1  A    between atoms: C_1  and  C_2
REMARK    2  A    between atoms: N_4  and  C_5
REMARK    3  A    between atoms: C_10  and  O_11
REMARK    4  A    between atoms: O_11  and  C_12
REMARK    5  A    between atoms: C_12  and  C_13
REMARK    6  A    between atoms: C_16  and  C_20
REMARK    7  A    between atoms: N_22  and  C_23
REMARK    8  A    between atoms: C_23  and  C_24
REMARK    9  A    between atoms: C_24  and  C_25
REMARK                            x       y       z     vdW  Elec       q    Type
REMARK                         _______ _______ _______ _____ _____    ______ ____
ROOT
ATOM      1  C   UNL     1      -5.881  -2.191  -0.252  0.00  0.00    +0.188 C 
ATOM      2  N   UNL     1      -5.858  -1.225  -1.376  0.00  0.00    -0.263 NA
ATOM      3  C   UNL     1      -6.437   0.015  -0.795  0.00  0.00    +0.297 C 
ATOM      4  O   UNL     1      -5.904   0.034   0.548  0.00  0.00    -0.270 OA
ATOM      5  N   UNL     1      -5.917  -1.377   0.981  0.00  0.00    -0.178 NA
ATOM      6  H   UNL     1      -4.915  -1.067  -1.698  0.00  0.00    +0.126 HD
ATOM      7  H   UNL     1      -5.125  -1.582   1.572  0.00  0.00    +0.156 HD
ENDROOT
BRANCH   3   8
ATOM      8  C   UNL     1      -5.982   1.226  -1.568  0.00  0.00    +0.259 C 
ATOM      9  O   UNL     1      -6.772   1.838  -2.255  0.00  0.00    -0.271 OA
ATOM     10  N   UNL     1      -4.698   1.629  -1.496  0.00  0.00    -0.312 N 
ATOM     11  H   UNL     1      -4.066   1.139  -0.946  0.00  0.00    +0.149 HD
BRANCH  10  12
ATOM     12  C   UNL     1      -4.256   2.806  -2.247  0.00  0.00    +0.108 C 
BRANCH  12  13
ATOM     13  C   UNL     1      -2.767   3.044  -1.992  0.00  0.00    +0.052 C 
BRANCH  13  14
ATOM     14  C   UNL     1      -2.312   4.256  -2.765  0.00  0.00    -0.040 C 
ATOM     15  C   UNL     1      -2.219   5.525  -2.307  0.00  0.00    +0.000 A 
ATOM     16  C   UNL     1      -2.502   6.134  -1.002  0.00  0.00    +0.030 A 
ATOM     17  C   UNL     1      -2.308   7.464  -0.842  0.00  0.00    +0.042 A 
ATOM     18  C   UNL     1      -1.844   8.272  -1.890  0.00  0.00    +0.022 A 
ATOM     19  C   UNL     1      -1.562   7.784  -3.117  0.00  0.00    +0.027 A 
ATOM     20  C   UNL     1      -1.730   6.400  -3.396  0.00  0.00    +0.043 A 
ATOM     21  N   UNL     1      -1.529   5.699  -4.486  0.00  0.00    -0.380 N 
ATOM     22  C   UNL     1      -1.861   4.297  -4.208  0.00  0.00    +0.144 C 
ATOM     23 CL   UNL     1      -2.642   8.188   0.700  0.00  0.00    -0.084 Cl
ATOM     24  H   UNL     1      -1.210   6.048  -5.332  0.00  0.00    +0.160 HD
ENDBRANCH  13  14
ENDBRANCH  12  13
ENDBRANCH  10  12
ENDBRANCH   3   8
BRANCH   1  25
ATOM     25  C   UNL     1      -4.621  -3.059  -0.276  0.00  0.00    +0.265 C 
BRANCH  25  26
ATOM     26  O   UNL     1      -3.466  -2.224  -0.177  0.00  0.00    -0.487 OA
BRANCH  26  32
ATOM     27  C   UNL     1      -1.086  -2.090  -0.091  0.00  0.00    +0.076 A 
ATOM     28  C   UNL     1       0.146  -2.726  -0.093  0.00  0.00    +0.027 A 
ATOM     29  C   UNL     1       0.212  -4.103  -0.192  0.00  0.00    +0.002 A 
ATOM     30  C   UNL     1      -0.948  -4.849  -0.290  0.00  0.00    +0.004 A 
ATOM     31  C   UNL     1      -2.180  -4.222  -0.289  0.00  0.00    +0.047 A 
ATOM     32  C   UNL     1      -2.255  -2.842  -0.184  0.00  0.00    +0.142 A 
BRANCH  27  36
ATOM     33  C   UNL     1      -0.165   1.498   0.586  0.00  0.00    +0.109 C 
ATOM     34  C   UNL     1      -0.150  -0.009   0.589  0.00  0.00    +0.214 C 
ATOM     35  O   UNL     1       0.768  -0.606   1.112  0.00  0.00    -0.276 OA
ATOM     36  N   UNL     1      -1.156  -0.694   0.009  0.00  0.00    -0.283 N 
ATOM     37  H   UNL     1      -1.928  -0.220  -0.338  0.00  0.00    +0.155 HD
ENDBRANCH  27  36
ENDBRANCH  26  32
ENDBRANCH  25  26
ENDBRANCH   1  25
TORSDOF 8
