REMARK  Name = ZINC00053457
REMARK  4 active torsions:
REMARK  status: ('A' for Active; 'I' for Inactive)
REMARK    1  A    between atoms: C_3  and  C_9
REMARK    2  A    between atoms: C_4  and  O_8
REMARK    3  A    between atoms: C_5  and  O_7
REMARK    4  A    between atoms: C_11  and  C_15
REMARK                            x       y       z     vdW  Elec       q    Type
REMARK                         _______ _______ _______ _____ _____    ______ ____
ROOT
ATOM      1  C   UNK     1       4.872   2.724  -3.288  0.00  0.00    +0.004 A 
ATOM      2  C   UNK     1       4.056   2.283  -2.264  0.00  0.00    +0.006 A 
ATOM      3  C   UNK     1       4.605   1.898  -1.055  0.00  0.00    -0.007 A 
ATOM      4  C   UNK     1       5.976   1.959  -0.866  0.00  0.00    +0.161 A 
ATOM      5  C   UNK     1       6.799   2.398  -1.899  0.00  0.00    +0.158 A 
ATOM      6  C   UNK     1       6.242   2.783  -3.108  0.00  0.00    +0.049 A 
ENDROOT
BRANCH   3   7
ATOM      7  C   UNK     1       3.711   1.417   0.059  0.00  0.00    +0.024 C 
ATOM      8  C   UNK     1       1.280   1.975   0.000  0.00  0.00    +0.055 C 
ATOM      9  C   UNK     1       1.568   2.509   1.434  0.00  0.00    +0.063 C 
ATOM     10  S   UNK     1       3.391   2.771   1.267  0.00  0.00    -0.173 S 
ATOM     11  N   UNK     1       2.353   1.063  -0.483  0.00  0.00    +0.399 N 
ATOM     12  H   UNK     1       2.124   0.105  -0.192  0.00  0.00    -0.083 HD
ATOM     13  H   UNK     1       2.387   1.111  -1.508  0.00  0.00    -0.083 HD
BRANCH   8  14
ATOM     14  C   UNK     1      -0.014   1.204   0.009  0.00  0.00    +0.343 C 
ATOM     15  O   UNK     1       0.002  -0.004   0.002  0.00  0.00    -0.248 OA
ATOM     16  O   UNK     1      -1.186   1.859   0.018  0.00  0.00    -0.248 OA
ENDBRANCH   8  14
ENDBRANCH   3   7
BRANCH   5  17
ATOM     17  O   UNK     1       8.146   2.456  -1.720  0.00  0.00    -0.503 OA
ATOM     18  H   UNK     1       8.460   3.301  -1.370  0.00  0.00    +0.292 HD
ENDBRANCH   5  17
BRANCH   4  19
ATOM     19  O   UNK     1       6.517   1.586   0.324  0.00  0.00    -0.503 OA
ATOM     20  H   UNK     1       6.752   0.649   0.373  0.00  0.00    +0.292 HD
ENDBRANCH   4  19
TORSDOF 4
