REMARK  Name = ZINC13037955
REMARK  9 active torsions:
REMARK  status: ('A' for Active; 'I' for Inactive)
REMARK    1  A    between atoms: C_1  and  C_2
REMARK    2  A    between atoms: C_2  and  C_4
REMARK    3  A    between atoms: C_2  and  N_11
REMARK    4  A    between atoms: N_11  and  C_12
REMARK    5  A    between atoms: C_12  and  C_14
REMARK    6  A    between atoms: C_12  and  C_15
REMARK    7  A    between atoms: N_17  and  C_18
REMARK    8  A    between atoms: C_21  and  S_24
REMARK    9  A    between atoms: S_24  and  N_27
REMARK                            x       y       z     vdW  Elec       q    Type
REMARK                         _______ _______ _______ _____ _____    ______ ____
ROOT
ATOM      1  C   UNL     1      -2.953  -1.367  -1.855  0.00  0.00    +0.234 C 
ATOM      2  O   UNL     1      -3.302  -2.127  -0.976  0.00  0.00    -0.274 OA
ATOM      3  N   UNL     1      -3.482  -1.476  -3.089  0.00  0.00    -0.284 N 
ATOM      4  H   UNL     1      -3.149  -0.919  -3.810  0.00  0.00    +0.155 HD
ENDROOT
BRANCH   3   5
ATOM      5  C   UNL     1      -4.513  -2.391  -3.330  0.00  0.00    +0.034 A 
ATOM      6  C   UNL     1      -4.614  -3.015  -4.567  0.00  0.00    +0.025 A 
ATOM      7  C   UNL     1      -5.632  -3.918  -4.802  0.00  0.00    +0.030 A 
ATOM      8  C   UNL     1      -6.551  -4.201  -3.807  0.00  0.00    +0.105 A 
ATOM      9  C   UNL     1      -6.453  -3.581  -2.575  0.00  0.00    +0.030 A 
ATOM     10  C   UNL     1      -5.433  -2.682  -2.332  0.00  0.00    +0.025 A 
BRANCH   8  11
ATOM     11  S   UNL     1      -7.848  -5.354  -4.111  0.00  0.00    +0.056 S 
ATOM     12  O   UNL     1      -8.895  -5.035  -3.204  0.00  0.00    -0.153 OA
ATOM     13  O   UNL     1      -8.043  -5.385  -5.518  0.00  0.00    -0.153 OA
BRANCH  11  14
ATOM     14  N   UNL     1      -7.286  -6.850  -3.678  0.00  0.00    -0.204 NA
ATOM     15  H   UNL     1      -7.902  -7.524  -3.351  0.00  0.00    +0.144 HD
ATOM     16  H   UNL     1      -6.340  -7.052  -3.751  0.00  0.00    +0.144 HD
ENDBRANCH  11  14
ENDBRANCH   8  11
ENDBRANCH   3   5
BRANCH   1  17
ATOM     17  C   UNL     1      -1.927  -0.302  -1.566  0.00  0.00    +0.138 C 
ATOM     18  C   UNL     1      -2.535   1.077  -1.829  0.00  0.00    +0.034 C 
BRANCH  17  19
ATOM     19  N   UNL     1      -1.509  -0.392  -0.160  0.00  0.00    -0.299 NA
ATOM     20  H   UNL     1      -1.561  -1.343   0.172  0.00  0.00    +0.123 HD
BRANCH  19  22
ATOM     21  C   UNL     1       0.061   0.482   1.503  0.00  0.00    +0.029 C 
ATOM     22  C   UNL     1      -0.159   0.157   0.024  0.00  0.00    +0.082 C 
BRANCH  22  23
ATOM     23  C   UNL     1       0.861  -0.857  -0.425  0.00  0.00    -0.017 A 
ATOM     24  C   UNL     1       0.558  -2.205  -0.388  0.00  0.00    +0.006 A 
ATOM     25  C   UNL     1       1.494  -3.135  -0.800  0.00  0.00    +0.000 A 
ATOM     26  C   UNL     1       2.733  -2.718  -1.250  0.00  0.00    +0.001 A 
ATOM     27  C   UNL     1       3.036  -1.370  -1.288  0.00  0.00    +0.015 A 
ATOM     28  C   UNL     1       2.098  -0.438  -0.880  0.00  0.00    +0.023 A 
ATOM     29 BR   UNL     1       2.510   1.406  -0.938  0.00  0.00    -0.050 Br
ENDBRANCH  22  23
ENDBRANCH  19  22
ENDBRANCH  17  19
ENDBRANCH   1  17
TORSDOF 7
