REMARK  Name = ZINC08926777
REMARK  9 active torsions:
REMARK  status: ('A' for Active; 'I' for Inactive)
REMARK    1  A    between atoms: C_1  and  C_2
REMARK    2  A    between atoms: C_7  and  O_8
REMARK    3  A    between atoms: O_8  and  C_9
REMARK    4  A    between atoms: C_9  and  C_10
REMARK    5  A    between atoms: C_12  and  C_16
REMARK    6  A    between atoms: C_14  and  C_15
REMARK    7  A    between atoms: C_19  and  C_30
REMARK    8  A    between atoms: C_25  and  N_29
REMARK    9  A    between atoms: C_26  and  C_27
REMARK                            x       y       z     vdW  Elec       q    Type
REMARK                         _______ _______ _______ _____ _____    ______ ____
ROOT
ATOM      1  C   UNL     1       3.713  -0.859  -0.035  0.00  0.00    -0.000 A 
ATOM      2  C   UNL     1       4.804  -0.011  -0.047  0.00  0.00    +0.019 A 
ATOM      3  C   UNL     1       6.051  -0.543  -0.055  0.00  0.00    +0.003 A 
ATOM      4  S   UNL     1       5.705  -2.294  -0.060  0.00  0.00    -0.097 S 
ATOM      5  C   UNL     1       3.922  -2.199  -0.043  0.00  0.00    -0.007 A 
ATOM      6  C   UNL     1       2.912  -3.317  -0.039  0.00  0.00    +0.052 C 
ENDROOT
BRANCH   3   7
ATOM      7  C   UNL     1       7.383   0.161  -0.065  0.00  0.00    +0.108 C 
ATOM      8  C   UNL     1       8.189  -0.258   1.138  0.00  0.00    +0.049 A 
ATOM      9  C   UNL     1       8.023   0.056   2.432  0.00  0.00    +0.041 A 
ATOM     10  N   UNL     1       8.999  -0.566   3.134  0.00  0.00    -0.278 N 
ATOM     11  H   UNL     1       9.131  -0.519   4.124  0.00  0.00    +0.189 HD
ATOM     12  N   UNL     1       9.792  -1.290   2.229  0.00  0.00    -0.135 NA
ATOM     13  C   UNL     1       9.312  -1.108   1.034  0.00  0.00    +0.245 A 
ATOM     14  O   UNL     1       9.737  -1.597  -0.162  0.00  0.00    -0.421 OA
ATOM     15  C   UNL     1       9.227  -1.039  -1.278  0.00  0.00    +0.201 C 
ATOM     16  C   UNL     1       8.153  -0.223  -1.303  0.00  0.00    +0.099 C 
ATOM     17  C   UNL     1       6.946   0.943   3.001  0.00  0.00    +0.065 C 
BRANCH  15  18
ATOM     18  N   UNL     1       9.843  -1.320  -2.472  0.00  0.00    -0.328 N 
ATOM     19  H   UNL     1       9.504  -0.936  -3.295  0.00  0.00    +0.145 HD
ATOM     20  H   UNL     1      10.619  -1.903  -2.492  0.00  0.00    +0.145 HD
ENDBRANCH  15  18
BRANCH  16  21
ATOM     21  C   UNL     1       7.724   0.303  -2.564  0.00  0.00    +0.101 C 
ATOM     22  N   UNL     1       7.384   0.720  -3.564  0.00  0.00    -0.191 NA
ENDBRANCH  16  21
ENDBRANCH   3   7
BRANCH   1  23
ATOM     23  C   UNL     1       2.312  -0.304  -0.020  0.00  0.00    +0.265 C 
BRANCH  23  24
ATOM     24  O   UNL     1       2.366   1.124  -0.014  0.00  0.00    -0.487 OA
BRANCH  24  31
ATOM     25  C   UNL     1       2.451   3.947  -0.000  0.00  0.00    +0.047 C 
ATOM     26  C   UNL     1       1.158   3.173   0.008  0.00  0.00    -0.007 A 
ATOM     27  C   UNL     1      -0.050   3.844   0.022  0.00  0.00    +0.027 A 
ATOM     28  C   UNL     1      -1.237   3.134   0.030  0.00  0.00    +0.041 A 
ATOM     29  C   UNL     1      -1.218   1.750   0.017  0.00  0.00    +0.023 A 
ATOM     30  C   UNL     1      -0.013   1.076   0.008  0.00  0.00    +0.047 A 
ATOM     31  C   UNL     1       1.179   1.786   0.000  0.00  0.00    +0.124 A 
ATOM     32 CL   UNL     1      -2.753   3.980   0.049  0.00  0.00    -0.084 Cl
ENDBRANCH  24  31
ENDBRANCH  23  24
ENDBRANCH   1  23
TORSDOF 6
