REMARK  Name = ZINC40551026
REMARK  4 active torsions:
REMARK  status: ('A' for Active; 'I' for Inactive)
REMARK    1  A    between atoms: C_1  and  C_2
REMARK    2  A    between atoms: C_8  and  N_10
REMARK    3  A    between atoms: N_13  and  C_14
REMARK    4  A    between atoms: C_14  and  C_19
REMARK                            x       y       z     vdW  Elec       q    Type
REMARK                         _______ _______ _______ _____ _____    ______ ____
ROOT
ATOM      1  N   UNL     1       2.116  -0.004   1.231  0.00  0.00    -0.296 N 
ATOM      2  C   UNL     1       2.795   0.128   2.388  0.00  0.00    +0.301 C 
ATOM      3  O   UNL     1       2.266  -0.174   3.441  0.00  0.00    -0.253 OA
ATOM      4  N   UNL     1       4.059   0.594   2.379  0.00  0.00    -0.284 N 
ATOM      5  H   UNL     1       2.538   0.237   0.392  0.00  0.00    +0.151 HD
ATOM      6  H   UNL     1       4.481   0.835   1.539  0.00  0.00    +0.151 HD
ENDROOT
BRANCH   1  13
ATOM      7  C   UNL     1      -0.019   1.526   0.010  0.00  0.00    +0.009 C 
ATOM      8  C   UNL     1       0.002  -0.004   0.002  0.00  0.00    +0.006 C 
ATOM      9  C   UNL     1      -1.433  -0.534   0.013  0.00  0.00    +0.005 C 
ATOM     10  C   UNL     1      -1.413  -2.063   0.004  0.00  0.00    +0.000 C 
ATOM     11  C   UNL     1      -0.673  -2.570   1.244  0.00  0.00    +0.002 C 
ATOM     12  C   UNL     1       0.763  -2.041   1.233  0.00  0.00    +0.022 C 
ATOM     13  C   UNL     1       0.742  -0.511   1.242  0.00  0.00    +0.077 C 
ENDBRANCH   1  13
BRANCH   4  14
ATOM     14  C   UNL     1       4.797   0.737   3.636  0.00  0.00    +0.137 C 
ATOM     15  C   UNL     1       4.982  -0.643   4.300  0.00  0.00    +0.037 C 
ATOM     16  C   UNL     1       6.389  -1.100   3.841  0.00  0.00    +0.003 C 
ATOM     17  C   UNL     1       7.202   0.219   3.866  0.00  0.00    +0.003 C 
ATOM     18  C   UNL     1       6.208   1.285   3.361  0.00  0.00    +0.037 C 
BRANCH  14  19
ATOM     19  C   UNL     1       4.056   1.663   4.566  0.00  0.00    +0.379 C 
ATOM     20  O   UNL     1       3.008   2.175   4.210  0.00  0.00    -0.244 OA
ATOM     21  O   UNL     1       4.505   1.901   5.675  0.00  0.00    -0.244 OA
ENDBRANCH  14  19
ENDBRANCH   4  14
TORSDOF 3
