REMARK  Name = ZINC04546421
REMARK  6 active torsions:
REMARK  status: ('A' for Active; 'I' for Inactive)
REMARK    1  A    between atoms: C_9  and  O_11
REMARK    2  A    between atoms: O_11  and  C_12
REMARK    3  A    between atoms: C_14  and  O_27
REMARK    4  A    between atoms: C_16  and  O_26
REMARK    5  A    between atoms: C_18  and  O_25
REMARK    6  A    between atoms: C_20  and  C_23
REMARK                            x       y       z     vdW  Elec       q    Type
REMARK                         _______ _______ _______ _____ _____    ______ ____
ROOT
ATOM      1  C   UNL     1      -2.390   1.238   0.020  0.00  0.00    +0.340 C 
ATOM      2  C   UNL     1      -3.610   2.152   0.155  0.00  0.00    +0.214 C 
ATOM      3  C   UNL     1      -3.675   3.087  -1.056  0.00  0.00    +0.180 C 
ATOM      4  C   UNL     1      -3.718   2.245  -2.335  0.00  0.00    +0.186 C 
ATOM      5  C   UNL     1      -2.494   1.327  -2.374  0.00  0.00    +0.266 C 
ATOM      6  O   UNL     1      -2.478   0.507  -1.204  0.00  0.00    -0.322 OA
ENDROOT
BRANCH   5   7
ATOM      7  C   UNL     1      -2.559   0.454  -3.600  0.00  0.00    +0.387 C 
ATOM      8  O   UNL     1      -2.681  -0.743  -3.484  0.00  0.00    -0.243 OA
ATOM      9  O   UNL     1      -2.483   1.004  -4.822  0.00  0.00    -0.243 OA
ENDBRANCH   5   7
BRANCH   4  10
ATOM     10  O   UNL     1      -4.908   1.455  -2.347  0.00  0.00    -0.386 OA
ATOM     11  H   UNL     1      -4.999   0.892  -3.127  0.00  0.00    +0.210 HD
ENDBRANCH   4  10
BRANCH   3  12
ATOM     12  O   UNL     1      -4.851   3.895  -0.976  0.00  0.00    -0.386 OA
ATOM     13  H   UNL     1      -4.890   4.455  -0.188  0.00  0.00    +0.210 HD
ENDBRANCH   3  12
BRANCH   2  14
ATOM     14  O   UNL     1      -4.798   1.359   0.210  0.00  0.00    -0.383 OA
ATOM     15  H   UNL     1      -4.823   0.740   0.952  0.00  0.00    +0.210 HD
ENDBRANCH   2  14
BRANCH   1  16
ATOM     16  O   UNL     1      -1.200   2.029   0.019  0.00  0.00    -0.459 OA
BRANCH  16  25
ATOM     17  C   UNL     1       1.205  -0.705  -0.013  0.00  0.00    +0.004 A 
ATOM     18  C   UNL     1       2.398  -0.048  -0.021  0.00  0.00    +0.010 A 
ATOM     19  C   UNL     1       2.420   1.356  -0.014  0.00  0.00    +0.004 A 
ATOM     20  C   UNL     1       3.633   2.070  -0.023  0.00  0.00    +0.011 A 
ATOM     21  C   UNL     1       3.578   3.435  -0.016  0.00  0.00    +0.020 A 
ATOM     22  C   UNL     1       2.343   4.080  -0.001  0.00  0.00    +0.111 A 
ATOM     23  N   UNL     1       1.215   3.412   0.007  0.00  0.00    -0.251 NA
ATOM     24  C   UNL     1       1.200   2.076   0.002  0.00  0.00    +0.113 A 
ATOM     25  C   UNL     1      -0.016   1.362   0.009  0.00  0.00    +0.150 A 
ATOM     26  C   UNL     1       0.002  -0.004   0.002  0.00  0.00    +0.048 A 
ENDBRANCH  16  25
ENDBRANCH   1  16
TORSDOF 6
