REMARK  Name = ZINC03273566
REMARK  12 active torsions:
REMARK  status: ('A' for Active; 'I' for Inactive)
REMARK    1  A    between atoms: C_1  and  N_2
REMARK    2  A    between atoms: N_2  and  C_3
REMARK    3  A    between atoms: N_2  and  S_11
REMARK    4  A    between atoms: C_8  and  O_9
REMARK    5  A    between atoms: O_9  and  C_10
REMARK    6  A    between atoms: S_11  and  C_14
REMARK    7  A    between atoms: C_17  and  C_20
REMARK    8  A    between atoms: C_20  and  O_22
REMARK    9  A    between atoms: O_22  and  C_23
REMARK   10  A    between atoms: C_23  and  C_25
REMARK   11  A    between atoms: C_23  and  C_31
REMARK   12  A    between atoms: C_31  and  C_33
REMARK                            x       y       z     vdW  Elec       q    Type
REMARK                         _______ _______ _______ _____ _____    ______ ____
ROOT
ATOM      1  C   UNL     1      -5.821  -0.436  -1.841  0.00  0.00    +0.109 A 
ATOM      2  C   UNL     1      -4.930  -1.345  -2.383  0.00  0.00    +0.029 A 
ATOM      3  C   UNL     1      -5.396  -2.482  -3.009  0.00  0.00    +0.017 A 
ATOM      4  C   UNL     1      -6.770  -2.711  -3.103  0.00  0.00    +0.059 A 
ATOM      5  C   UNL     1      -7.663  -1.786  -2.557  0.00  0.00    +0.017 A 
ATOM      6  C   UNL     1      -7.184  -0.655  -1.930  0.00  0.00    +0.029 A 
ENDROOT
BRANCH   1   7
ATOM      7  S   UNL     1      -5.217   1.012  -1.038  0.00  0.00    +0.075 S 
ATOM      8  O   UNL     1      -6.260   1.976  -1.100  0.00  0.00    -0.150 OA
ATOM      9  O   UNL     1      -3.920   1.258  -1.565  0.00  0.00    -0.150 OA
BRANCH   7  11
ATOM     10  C   UNL     1      -6.116   0.836   1.507  0.00  0.00    +0.158 C 
ATOM     11  N   UNL     1      -5.014   0.636   0.562  0.00  0.00    -0.203 N 
BRANCH  11  12
ATOM     12  C   UNL     1      -3.790   0.128   1.012  0.00  0.00    +0.092 A 
ATOM     13  C   UNL     1      -3.603  -1.242   1.120  0.00  0.00    +0.028 A 
ATOM     14  C   UNL     1      -2.393  -1.741   1.564  0.00  0.00    +0.002 A 
ATOM     15  C   UNL     1      -1.367  -0.878   1.901  0.00  0.00    +0.004 A 
ATOM     16  C   UNL     1      -1.544   0.489   1.791  0.00  0.00    +0.047 A 
ATOM     17  C   UNL     1      -2.756   0.997   1.352  0.00  0.00    +0.143 A 
BRANCH  17  18
ATOM     18  O   UNL     1      -2.933   2.342   1.248  0.00  0.00    -0.493 OA
ATOM     19  C   UNL     1      -1.829   3.172   1.615  0.00  0.00    +0.277 C 
ENDBRANCH  17  18
ENDBRANCH  11  12
ENDBRANCH   7  11
ENDBRANCH   1   7
BRANCH   4  20
ATOM     20  C   UNL     1      -7.276  -3.924  -3.776  0.00  0.00    +0.340 C 
ATOM     21  O   UNL     1      -8.472  -4.120  -3.855  0.00  0.00    -0.245 OA
BRANCH  20  22
ATOM     22  O   UNL     1      -6.411  -4.814  -4.301  0.00  0.00    -0.445 OA
BRANCH  22  23
ATOM     23  C   UNL     1      -6.980  -5.983  -4.947  0.00  0.00    +0.277 C 
BRANCH  23  24
ATOM     24  C   UNL     1      -7.208  -5.689  -6.407  0.00  0.00    +0.000 A 
ATOM     25  C   UNL     1      -6.259  -4.989  -7.128  0.00  0.00    +0.008 A 
ATOM     26  C   UNL     1      -6.466  -4.723  -8.468  0.00  0.00    +0.000 A 
ATOM     27  C   UNL     1      -7.628  -5.149  -9.086  0.00  0.00    +0.000 A 
ATOM     28  C   UNL     1      -8.580  -5.844  -8.364  0.00  0.00    +0.000 A 
ATOM     29  C   UNL     1      -8.370  -6.114  -7.024  0.00  0.00    +0.008 A 
ENDBRANCH  23  24
BRANCH  23  30
ATOM     30  C   UNL     1      -6.028  -7.144  -4.811  0.00  0.00    +0.208 C 
ATOM     31  O   UNL     1      -4.855  -6.943  -4.581  0.00  0.00    -0.288 OA
BRANCH  30  32
ATOM     32  C   UNL     1      -6.524  -8.522  -4.958  0.00  0.00    +0.022 A 
ATOM     33  C   UNL     1      -7.894  -8.766  -5.096  0.00  0.00    +0.011 A 
ATOM     34  C   UNL     1      -8.349 -10.059  -5.239  0.00  0.00    +0.001 A 
ATOM     35  C   UNL     1      -7.455 -11.116  -5.235  0.00  0.00    +0.000 A 
ATOM     36  C   UNL     1      -6.098 -10.884  -5.094  0.00  0.00    +0.001 A 
ATOM     37  C   UNL     1      -5.627  -9.595  -4.955  0.00  0.00    +0.011 A 
ENDBRANCH  30  32
ENDBRANCH  23  30
ENDBRANCH  22  23
ENDBRANCH  20  22
ENDBRANCH   4  20
TORSDOF 10
