REMARK  Name = ZINC67262984
REMARK  9 active torsions:
REMARK  status: ('A' for Active; 'I' for Inactive)
REMARK    1  A    between atoms: C_1  and  C_2
REMARK    2  A    between atoms: C_2  and  O_3
REMARK    3  A    between atoms: O_3  and  C_4
REMARK    4  A    between atoms: C_9  and  C_10
REMARK    5  A    between atoms: C_11  and  C_12
REMARK    6  A    between atoms: N_14  and  C_15
REMARK    7  A    between atoms: C_18  and  C_21
REMARK    8  A    between atoms: C_21  and  N_22
REMARK    9  A    between atoms: C_27  and  C_30
REMARK                            x       y       z     vdW  Elec       q    Type
REMARK                         _______ _______ _______ _____ _____    ______ ____
ROOT
ATOM      1  C   UNL     1       3.259  -1.107   5.513  0.00  0.00    +0.241 C 
ATOM      2  O   UNL     1       3.168   0.101   5.386  0.00  0.00    -0.270 OA
ATOM      3  N   UNL     1       3.896  -1.626   6.581  0.00  0.00    -0.282 N 
ATOM      4  H   UNL     1       3.911  -2.587   6.717  0.00  0.00    +0.155 HD
ENDROOT
BRANCH   3   5
ATOM      5  C   UNL     1       4.535  -0.781   7.493  0.00  0.00    +0.034 A 
ATOM      6  C   UNL     1       5.717  -1.182   8.104  0.00  0.00    +0.023 A 
ATOM      7  C   UNL     1       6.346  -0.345   9.005  0.00  0.00    +0.007 A 
ATOM      8  C   UNL     1       5.800   0.892   9.298  0.00  0.00    -0.030 A 
ATOM      9  C   UNL     1       4.624   1.294   8.692  0.00  0.00    +0.007 A 
ATOM     10  C   UNL     1       3.994   0.464   7.786  0.00  0.00    +0.023 A 
BRANCH   8  11
ATOM     11  C   UNL     1       6.489   1.803  10.282  0.00  0.00    +0.141 C 
BRANCH  11  12
ATOM     12  N   UNL     1       7.438   2.662   9.569  0.00  0.00    -0.295 N 
ATOM     13  C   UNL     1       8.172   3.564  10.251  0.00  0.00    +0.297 C 
ATOM     14  O   UNL     1       8.048   3.664  11.456  0.00  0.00    -0.253 OA
ATOM     15  N   UNL     1       9.045   4.355   9.595  0.00  0.00    -0.313 N 
ATOM     16  H   UNL     1       7.537   2.583   8.608  0.00  0.00    +0.151 HD
ATOM     17  H   UNL     1       9.144   4.276   8.634  0.00  0.00    +0.146 HD
ATOM     18  H   UNL     1       9.574   5.004  10.085  0.00  0.00    +0.146 HD
ENDBRANCH  11  12
ENDBRANCH   8  11
ENDBRANCH   3   5
BRANCH   1  20
ATOM     19  C   UNL     1       2.040  -1.473   3.436  0.00  0.00    +0.017 C 
ATOM     20  C   UNL     1       2.678  -1.993   4.506  0.00  0.00    +0.068 C 
BRANCH  19  26
ATOM     21  C   UNL     1       0.792  -1.824   1.311  0.00  0.00    +0.128 A 
ATOM     22  C   UNL     1       0.245  -2.676   0.364  0.00  0.00    +0.053 A 
ATOM     23  C   UNL     1       0.351  -4.041   0.518  0.00  0.00    +0.001 A 
ATOM     24  C   UNL     1       1.008  -4.593   1.614  0.00  0.00    +0.125 A 
ATOM     25  C   UNL     1       1.555  -3.749   2.571  0.00  0.00    +0.057 A 
ATOM     26  C   UNL     1       1.456  -2.364   2.424  0.00  0.00    +0.020 A 
ATOM     27  O   UNL     1       1.012  -5.954   1.551  0.00  0.00    -0.488 OA
ATOM     28  C   UNL     1      -0.021  -6.389   0.650  0.00  0.00    +0.175 C 
ATOM     29  C   UNL     1      -0.147  -5.197  -0.328  0.00  0.00    +0.083 C 
ATOM     30  C   UNL     1      -1.334  -6.619   1.402  0.00  0.00    +0.052 C 
BRANCH  21  31
ATOM     31  O   UNL     1       0.692  -0.478   1.160  0.00  0.00    -0.492 OA
BRANCH  31  33
ATOM     32  C   UNL     1      -0.009   1.525   0.004  0.00  0.00    +0.048 C 
ATOM     33  C   UNL     1       0.002  -0.005   0.002  0.00  0.00    +0.226 C 
ENDBRANCH  31  33
ENDBRANCH  21  31
ENDBRANCH  19  26
ENDBRANCH   1  20
TORSDOF 7
