REMARK  Name = ZINC36580891
REMARK  15 active torsions:
REMARK  status: ('A' for Active; 'I' for Inactive)
REMARK    1  A    between atoms: C_1  and  C_2
REMARK    2  A    between atoms: C_2  and  C_3
REMARK    3  A    between atoms: C_2  and  C_4
REMARK    4  A    between atoms: C_2  and  N_5
REMARK    5  A    between atoms: N_5  and  C_6
REMARK    6  A    between atoms: C_6  and  C_8
REMARK    7  A    between atoms: C_6  and  C_17
REMARK    8  A    between atoms: C_9  and  O_16
REMARK    9  A    between atoms: C_11  and  O_15
REMARK   10  A    between atoms: C_13  and  O_14
REMARK   11  A    between atoms: N_19  and  C_20
REMARK   12  A    between atoms: C_26  and  C_28
REMARK   13  A    between atoms: C_28  and  C_30
REMARK   14  A    between atoms: C_28  and  O_36
REMARK   15  A    between atoms: O_36  and  C_37
REMARK                            x       y       z     vdW  Elec       q    Type
REMARK                         _______ _______ _______ _____ _____    ______ ____
ROOT
ATOM      1  C   UNL     1       2.094   1.760  -0.876  0.00  0.00    +0.200 C 
ENDROOT
BRANCH   1   2
ATOM      2  C   UNL     1       1.485   3.132  -0.742  0.00  0.00    +0.065 A 
ATOM      3  C   UNL     1       0.501   3.365   0.207  0.00  0.00    +0.129 A 
ATOM      4  C   UNL     1      -0.060   4.627   0.330  0.00  0.00    +0.091 A 
ATOM      5  C   UNL     1       0.364   5.658  -0.496  0.00  0.00    +0.124 A 
ATOM      6  C   UNL     1       1.349   5.426  -1.444  0.00  0.00    +0.091 A 
ATOM      7  C   UNL     1       1.913   4.164  -1.564  0.00  0.00    +0.129 A 
BRANCH   7   8
ATOM      8  O   UNL     1       2.881   3.938  -2.491  0.00  0.00    -0.506 OA
ATOM      9  H   UNL     1       2.543   3.656  -3.352  0.00  0.00    +0.292 HD
ENDBRANCH   7   8
BRANCH   5  10
ATOM     10  O   UNL     1      -0.185   6.895  -0.376  0.00  0.00    -0.507 OA
ATOM     11  H   UNL     1       0.276   7.471   0.250  0.00  0.00    +0.292 HD
ENDBRANCH   5  10
BRANCH   3  12
ATOM     12  O   UNL     1       0.085   2.355   1.016  0.00  0.00    -0.506 OA
ATOM     13  H   UNL     1       0.533   2.328   1.873  0.00  0.00    +0.292 HD
ENDBRANCH   3  12
ENDBRANCH   1   2
BRANCH   1  14
ATOM     14  C   UNL     1       2.820   1.407   0.396  0.00  0.00    +0.239 C 
ATOM     15  O   UNL     1       2.454   0.462   1.061  0.00  0.00    -0.273 OA
ATOM     16  N   UNL     1       3.877   2.142   0.795  0.00  0.00    -0.311 N 
ATOM     17  H   UNL     1       4.171   2.898   0.263  0.00  0.00    +0.149 HD
BRANCH  16  18
ATOM     18  C   UNL     1       4.584   1.798   2.031  0.00  0.00    +0.073 C 
ATOM     19  C   UNL     1       3.872   2.445   3.222  0.00  0.00    +0.022 C 
ATOM     20  C   UNL     1       4.610   2.086   4.513  0.00  0.00    +0.002 C 
ATOM     21  C   UNL     1       6.049   2.601   4.439  0.00  0.00    +0.000 C 
ATOM     22  C   UNL     1       6.760   1.954   3.248  0.00  0.00    +0.002 C 
ATOM     23  C   UNL     1       6.023   2.313   1.957  0.00  0.00    +0.022 C 
ENDBRANCH  16  18
ENDBRANCH   1  14
BRANCH   1  24
ATOM     24  N   UNL     1       1.035   0.778  -1.123  0.00  0.00    -0.278 N 
ATOM     25  C   UNL     1      -0.255   1.168  -1.141  0.00  0.00    +0.250 C 
ATOM     26  O   UNL     1      -0.531   2.347  -1.203  0.00  0.00    -0.272 OA
BRANCH  24  28
ATOM     27  C   UNL     1       2.856  -0.851  -1.021  0.00  0.00    +0.031 C 
ATOM     28  C   UNL     1       1.379  -0.628  -1.350  0.00  0.00    +0.030 C 
ATOM     29  C   UNL     1       1.123  -0.985  -2.815  0.00  0.00    +0.031 C 
ATOM     30  C   UNL     1       0.516  -1.515  -0.451  0.00  0.00    +0.031 C 
ENDBRANCH  24  28
BRANCH  25  31
ATOM     31  C   UNL     1      -1.354   0.139  -1.083  0.00  0.00    +0.233 C 
BRANCH  31  32
ATOM     32  C   UNL     1      -1.526  -0.489  -2.442  0.00  0.00    -0.010 A 
ATOM     33  C   UNL     1      -1.554   0.306  -3.572  0.00  0.00    +0.006 A 
ATOM     34  C   UNL     1      -1.712  -0.270  -4.819  0.00  0.00    +0.000 A 
ATOM     35  C   UNL     1      -1.840  -1.641  -4.936  0.00  0.00    +0.000 A 
ATOM     36  C   UNL     1      -1.810  -2.437  -3.806  0.00  0.00    +0.000 A 
ATOM     37  C   UNL     1      -1.649  -1.861  -2.559  0.00  0.00    +0.006 A 
ENDBRANCH  31  32
BRANCH  31  38
ATOM     38  O   UNL     1      -2.576   0.768  -0.691  0.00  0.00    -0.366 OA
ATOM     39  C   UNL     1      -2.790   0.792   0.721  0.00  0.00    +0.195 C 
ENDBRANCH  31  38
ENDBRANCH  25  31
ENDBRANCH   1  24
TORSDOF 11
