REMARK  Name = ZINC12604786
REMARK  10 active torsions:
REMARK  status: ('A' for Active; 'I' for Inactive)
REMARK    1  A    between atoms: C_1  and  C_2
REMARK    2  A    between atoms: C_2  and  O_3
REMARK    3  A    between atoms: O_3  and  C_4
REMARK    4  A    between atoms: N_6  and  N_7
REMARK    5  A    between atoms: C_8  and  C_10
REMARK    6  A    between atoms: C_13  and  S_16
REMARK    7  A    between atoms: S_16  and  N_19
REMARK    8  A    between atoms: N_19  and  C_20
REMARK    9  A    between atoms: C_23  and  C_27
REMARK   10  A    between atoms: C_24  and  C_26
REMARK                            x       y       z     vdW  Elec       q    Type
REMARK                         _______ _______ _______ _____ _____    ______ ____
ROOT
ATOM      1  C   UNL     1       4.101   3.280  -0.018  0.00  0.00    +0.038 A 
ATOM      2  C   UNL     1       3.367   3.173  -1.200  0.00  0.00    +0.015 A 
ATOM      3  C   UNL     1       2.081   2.675  -1.166  0.00  0.00    +0.029 A 
ATOM      4  C   UNL     1       1.519   2.282   0.035  0.00  0.00    +0.109 A 
ATOM      5  C   UNL     1       2.239   2.391   1.212  0.00  0.00    +0.029 A 
ATOM      6  C   UNL     1       3.528   2.882   1.191  0.00  0.00    +0.015 A 
ENDROOT
BRANCH   1   8
ATOM      7  N   UNL     1       6.187   3.915   1.097  0.00  0.00    -0.228 N 
ATOM      8  C   UNL     1       5.480   3.812  -0.046  0.00  0.00    +0.260 C 
ATOM      9  O   UNL     1       5.977   4.158  -1.101  0.00  0.00    -0.269 OA
ATOM     10  H   UNL     1       5.791   3.639   1.938  0.00  0.00    +0.173 HD
BRANCH   7  13
ATOM     11  C   UNL     1       8.200   4.521   2.213  0.00  0.00    +0.417 C 
ATOM     12  O   UNL     1       9.334   4.959   2.190  0.00  0.00    -0.225 OA
ATOM     13  N   UNL     1       7.494   4.419   1.070  0.00  0.00    -0.199 N 
ATOM     14  H   UNL     1       7.890   4.695   0.229  0.00  0.00    +0.176 HD
BRANCH  11  15
ATOM     15  O   UNL     1       7.650   4.139   3.381  0.00  0.00    -0.450 OA
BRANCH  15  17
ATOM     16  C   UNL     1       7.681   3.796   5.792  0.00  0.00    +0.048 C 
ATOM     17  C   UNL     1       8.469   4.277   4.572  0.00  0.00    +0.230 C 
ENDBRANCH  15  17
ENDBRANCH  11  15
ENDBRANCH   7  13
ENDBRANCH   1   8
BRANCH   4  18
ATOM     18  S   UNL     1      -0.124   1.646   0.069  0.00  0.00    +0.072 S 
ATOM     19  O   UNL     1      -0.819   2.258  -1.009  0.00  0.00    -0.150 OA
ATOM     20  O   UNL     1      -0.570   1.744   1.415  0.00  0.00    -0.150 OA
BRANCH  18  21
ATOM     21  N   UNL     1      -0.032   0.031  -0.283  0.00  0.00    -0.216 N 
ATOM     22  H   UNL     1      -0.449  -0.315  -1.087  0.00  0.00    +0.174 HD
BRANCH  21  23
ATOM     23  C   UNL     1       0.647  -0.834   0.579  0.00  0.00    +0.048 A 
ATOM     24  C   UNL     1       1.901  -1.320   0.232  0.00  0.00    +0.025 A 
ATOM     25  C   UNL     1       2.571  -2.171   1.089  0.00  0.00    +0.005 A 
ATOM     26  C   UNL     1       1.990  -2.547   2.286  0.00  0.00    -0.047 A 
ATOM     27  C   UNL     1       0.740  -2.070   2.632  0.00  0.00    -0.046 A 
ATOM     28  C   UNL     1       0.066  -1.214   1.783  0.00  0.00    +0.028 A 
ATOM     29  C   UNL     1       0.111  -2.483   3.938  0.00  0.00    +0.044 C 
ATOM     30  C   UNL     1       2.722  -3.481   3.216  0.00  0.00    +0.044 C 
ENDBRANCH  21  23
ENDBRANCH  18  21
ENDBRANCH   4  18
TORSDOF 7
