REMARK  Name = ZINC01921281
REMARK  6 active torsions:
REMARK  status: ('A' for Active; 'I' for Inactive)
REMARK    1  A    between atoms: C_1  and  C_2
REMARK    2  A    between atoms: C_5  and  N_8
REMARK    3  A    between atoms: C_9  and  N_17
REMARK    4  A    between atoms: C_18  and  C_20
REMARK    5  A    between atoms: C_20  and  S_21
REMARK    6  A    between atoms: S_21  and  C_22
REMARK                            x       y       z     vdW  Elec       q    Type
REMARK                         _______ _______ _______ _____ _____    ______ ____
ROOT
ATOM      1  N   UNL     1       6.133   6.847  -0.011  0.00  0.00    -0.250 N 
ATOM      2  C   UNL     1       6.542   5.697  -0.646  0.00  0.00    +0.119 A 
ATOM      3  C   UNL     1       7.873   5.407  -0.716  0.00  0.00    +0.112 A 
ATOM      4  C   UNL     1       8.796   6.290  -0.129  0.00  0.00    +0.256 A 
ATOM      5  O   UNL     1       9.991   6.051  -0.179  0.00  0.00    -0.268 OA
ATOM      6  N   UNL     1       8.353   7.403   0.489  0.00  0.00    -0.275 N 
ATOM      7  H   UNL     1       9.008   8.033   0.907  0.00  0.00    +0.173 HD
ATOM      8  C   UNL     1       7.036   7.673   0.547  0.00  0.00    +0.335 A 
ATOM      9  O   UNL     1       6.657   8.682   1.110  0.00  0.00    -0.246 OA
ENDROOT
BRANCH   1  14
ATOM     10  C   UNL     1       0.605   8.097   0.275  0.00  0.00    +0.044 C 
ATOM     11  C   UNL     1       2.073   7.765   0.199  0.00  0.00    -0.050 A 
ATOM     12  C   UNL     1       2.852   8.307  -0.807  0.00  0.00    +0.005 A 
ATOM     13  C   UNL     1       4.198   8.005  -0.879  0.00  0.00    +0.026 A 
ATOM     14  C   UNL     1       4.769   7.156   0.060  0.00  0.00    +0.053 A 
ATOM     15  C   UNL     1       3.983   6.609   1.066  0.00  0.00    +0.026 A 
ATOM     16  C   UNL     1       2.639   6.919   1.135  0.00  0.00    +0.005 A 
ENDBRANCH   1  14
BRANCH   2  17
ATOM     17  N   UNL     1       5.614   4.849  -1.213  0.00  0.00    -0.271 N 
ATOM     18  C   UNL     1       5.334   4.939  -2.528  0.00  0.00    +0.229 C 
ATOM     19  O   UNL     1       5.962   5.701  -3.231  0.00  0.00    -0.275 OA
ATOM     20  H   UNL     1       5.163   4.188  -0.664  0.00  0.00    +0.156 HD
BRANCH  18  21
ATOM     21  C   UNL     1       4.240   4.091  -3.124  0.00  0.00    +0.173 C 
BRANCH  21  22
ATOM     22  S   UNL     1       3.990   4.559  -4.855  0.00  0.00    -0.083 S 
BRANCH  22  23
ATOM     23  C   UNL     1       2.733   3.476  -5.277  0.00  0.00    +0.154 C 
ATOM     24  N   UNL     1       2.197   2.596  -4.451  0.00  0.00    -0.151 NA
ATOM     25  C   UNL     1       1.244   1.905  -5.084  0.00  0.00    +0.324 C 
ATOM     26  O   UNL     1       0.551   1.019  -4.621  0.00  0.00    -0.263 OA
ATOM     27  C   UNL     1       1.209   2.441  -6.486  0.00  0.00    +0.307 C 
ATOM     28  O   UNL     1       0.487   2.085  -7.393  0.00  0.00    -0.265 OA
ATOM     29  N   UNL     1       2.152   3.409  -6.518  0.00  0.00    -0.259 N 
ATOM     30  H   UNL     1       2.381   3.956  -7.285  0.00  0.00    +0.157 HD
ENDBRANCH  22  23
ENDBRANCH  21  22
ENDBRANCH  18  21
ENDBRANCH   2  17
TORSDOF 5
