REMARK  Name = ZINC19681046
REMARK  10 active torsions:
REMARK  status: ('A' for Active; 'I' for Inactive)
REMARK    1  A    between atoms: C_1  and  C_2
REMARK    2  A    between atoms: C_2  and  C_3
REMARK    3  A    between atoms: C_6  and  S_9
REMARK    4  A    between atoms: S_9  and  N_12
REMARK    5  A    between atoms: N_12  and  C_13
REMARK    6  A    between atoms: C_18  and  C_19
REMARK    7  A    between atoms: C_19  and  C_25
REMARK    8  A    between atoms: N_20  and  N_21
REMARK    9  A    between atoms: N_21  and  C_22
REMARK   10  A    between atoms: C_22  and  N_24
REMARK                            x       y       z     vdW  Elec       q    Type
REMARK                         _______ _______ _______ _____ _____    ______ ____
ROOT
ATOM      1  C   UNL     1      -0.379   2.860   6.433  0.00  0.00    +0.057 A 
ATOM      2  C   UNL     1       0.177   4.103   6.164  0.00  0.00    +0.025 A 
ATOM      3  C   UNL     1       1.528   4.315   6.363  0.00  0.00    +0.002 A 
ATOM      4  C   UNL     1       2.335   3.292   6.832  0.00  0.00    +0.001 A 
ATOM      5  C   UNL     1       1.798   2.051   7.104  0.00  0.00    +0.012 A 
ATOM      6  C   UNL     1       0.435   1.825   6.913  0.00  0.00    +0.025 A 
ENDROOT
BRANCH   1   7
ATOM      7  N   UNL     1      -1.741   2.644   6.233  0.00  0.00    -0.216 N 
ATOM      8  H   UNL     1      -2.300   1.987   6.915  0.00  0.00    +0.174 HD
BRANCH   7   9
ATOM      9  S   UNL     1      -2.519   3.378   4.968  0.00  0.00    +0.072 S 
ATOM     10  O   UNL     1      -2.235   4.767   5.067  0.00  0.00    -0.150 OA
ATOM     11  O   UNL     1      -3.846   2.871   4.959  0.00  0.00    -0.150 OA
BRANCH   9  15
ATOM     12  C   UNL     1      -0.551   1.923   1.160  0.00  0.00    -0.048 A 
ATOM     13  C   UNL     1      -0.074   3.054   1.796  0.00  0.00    +0.005 A 
ATOM     14  C   UNL     1      -0.677   3.500   2.957  0.00  0.00    +0.029 A 
ATOM     15  C   UNL     1      -1.752   2.811   3.486  0.00  0.00    +0.109 A 
ATOM     16  C   UNL     1      -2.226   1.677   2.853  0.00  0.00    +0.029 A 
ATOM     17  C   UNL     1      -1.625   1.233   1.690  0.00  0.00    +0.005 A 
BRANCH  12  19
ATOM     18  C   UNL     1      -0.579   2.087  -1.314  0.00  0.00    +0.009 C 
ATOM     19  C   UNL     1       0.104   1.439  -0.108  0.00  0.00    +0.032 C 
ENDBRANCH  12  19
ENDBRANCH   9  15
ENDBRANCH   7   9
ENDBRANCH   1   7
BRANCH   6  20
ATOM     20  C   UNL     1      -0.147   0.498   7.210  0.00  0.00    +0.098 C 
ATOM     21  N   UNL     1      -1.403   0.260   6.936  0.00  0.00    -0.180 NA
BRANCH  20  22
ATOM     22  C   UNL     1       0.692  -0.560   7.816  0.00  0.00    +0.003 A 
ATOM     23  C   UNL     1       0.284  -1.189   8.993  0.00  0.00    +0.010 A 
ATOM     24  C   UNL     1       1.069  -2.178   9.551  0.00  0.00    +0.001 A 
ATOM     25  C   UNL     1       2.262  -2.539   8.951  0.00  0.00    +0.000 A 
ATOM     26  C   UNL     1       2.675  -1.915   7.787  0.00  0.00    +0.001 A 
ATOM     27  C   UNL     1       1.897  -0.928   7.217  0.00  0.00    +0.010 A 
ENDBRANCH  20  22
BRANCH  21  28
ATOM     28  N   UNL     1      -1.921  -1.032   7.094  0.00  0.00    -0.218 N 
ATOM     29  H   UNL     1      -1.293  -1.829   7.521  0.00  0.00    +0.176 HD
BRANCH  28  30
ATOM     30  C   UNL     1      -3.189  -1.300   6.723  0.00  0.00    +0.147 C 
ATOM     31  S   UNL     1      -3.822  -2.879   6.916  0.00  0.00    -0.017 S 
BRANCH  30  32
ATOM     32  N   UNL     1      -3.958  -0.325   6.200  0.00  0.00    -0.339 N 
ATOM     33  H   UNL     1      -4.993  -0.543   5.898  0.00  0.00    +0.144 HD
ATOM     34  H   UNL     1      -3.551   0.690   6.077  0.00  0.00    +0.144 HD
ENDBRANCH  30  32
ENDBRANCH  28  30
ENDBRANCH  21  28
ENDBRANCH   6  20
TORSDOF 9
