REMARK  Name = ZINC20611642
REMARK  7 active torsions:
REMARK  status: ('A' for Active; 'I' for Inactive)
REMARK    1  A    between atoms: C_1  and  C_2
REMARK    2  A    between atoms: C_2  and  C_3
REMARK    3  A    between atoms: C_3  and  C_4
REMARK    4  A    between atoms: C_4  and  C_5
REMARK    5  A    between atoms: C_8  and  N_11
REMARK    6  A    between atoms: C_16  and  C_34
REMARK    7  A    between atoms: C_34  and  C_35
REMARK                            x       y       z     vdW  Elec       q    Type
REMARK                         _______ _______ _______ _____ _____    ______ ____
ROOT
ATOM      1  N   UNL     1       3.396  -3.858  -5.935  0.00  0.00    -0.210 N 
ATOM      2  C   UNL     1       2.744  -4.184  -7.057  0.00  0.00    +0.232 C 
ATOM      3  O   UNL     1       1.543  -4.128  -7.211  0.00  0.00    -0.274 OA
ATOM      4  C   UNL     1       3.738  -4.636  -8.102  0.00  0.00    +0.108 C 
ATOM      5  C   UNL     1       3.772  -3.607  -9.252  0.00  0.00    +0.076 C 
ATOM      6  N   UNL     1       4.762  -2.585  -8.821  0.00  0.00    -0.295 NA
ATOM      7  C   UNL     1       5.824  -3.366  -8.160  0.00  0.00    +0.136 C 
ATOM      8  C   UNL     1       5.107  -4.495  -7.379  0.00  0.00    +0.123 C 
ATOM      9  C   UNL     1       4.725  -3.993  -6.005  0.00  0.00    +0.233 C 
ATOM     10  O   UNL     1       5.502  -3.752  -5.106  0.00  0.00    -0.274 OA
ATOM     11  C   UNL     1       6.800  -3.925  -9.157  0.00  0.00    +0.005 A 
ATOM     12  C   UNL     1       6.672  -4.769 -10.237  0.00  0.00    +0.027 A 
ATOM     13  C   UNL     1       7.786  -5.111 -10.984  0.00  0.00    +0.041 A 
ATOM     14  C   UNL     1       9.027  -4.603 -10.642  0.00  0.00    +0.022 A 
ATOM     15  C   UNL     1       9.159  -3.758  -9.560  0.00  0.00    +0.025 A 
ATOM     16  C   UNL     1       8.043  -3.408  -8.804  0.00  0.00    +0.039 A 
ATOM     17  N   UNL     1       7.922  -2.583  -7.683  0.00  0.00    -0.283 N 
ATOM     18  C   UNL     1       6.651  -2.504  -7.245  0.00  0.00    +0.243 C 
ATOM     19  O   UNL     1       6.250  -1.863  -6.296  0.00  0.00    -0.273 OA
ATOM     20 CL   UNL     1       7.627  -6.175 -12.347  0.00  0.00    -0.084 Cl
ATOM     21  H   UNL     1       5.127  -2.077  -9.613  0.00  0.00    +0.124 HD
ATOM     22  H   UNL     1       8.667  -2.120  -7.268  0.00  0.00    +0.155 HD
ENDROOT
BRANCH   1  26
ATOM     23  C   UNL     1       1.444  -2.512  -2.506  0.00  0.00    -0.047 A 
ATOM     24  C   UNL     1       2.261  -1.652  -3.217  0.00  0.00    +0.005 A 
ATOM     25  C   UNL     1       2.909  -2.095  -4.354  0.00  0.00    +0.024 A 
ATOM     26  C   UNL     1       2.739  -3.405  -4.782  0.00  0.00    +0.044 A 
ATOM     27  C   UNL     1       1.919  -4.266  -4.065  0.00  0.00    +0.024 A 
ATOM     28  C   UNL     1       1.277  -3.818  -2.927  0.00  0.00    +0.005 A 
BRANCH  23  29
ATOM     29  C   UNL     1       0.738  -2.025  -1.267  0.00  0.00    +0.035 C 
BRANCH  29  30
ATOM     30  C   UNL     1       1.629  -2.263  -0.046  0.00  0.00    +0.004 C 
BRANCH  30  32
ATOM     31  C   UNL     1       1.804  -2.006   2.433  0.00  0.00    +0.004 C 
ATOM     32  C   UNL     1       0.913  -1.768   1.212  0.00  0.00    -0.003 C 
ENDBRANCH  30  32
ENDBRANCH  29  30
ENDBRANCH  23  29
ENDBRANCH   1  26
BRANCH   5  33
ATOM     33  C   UNL     1       2.393  -2.971  -9.438  0.00  0.00    +0.115 C 
BRANCH  33  34
ATOM     34  C   UNL     1       2.417  -2.064 -10.641  0.00  0.00    +0.212 C 
ATOM     35  O   UNL     1       3.437  -1.938 -11.286  0.00  0.00    -0.276 OA
ATOM     36  N   UNL     1       1.306  -1.391 -11.000  0.00  0.00    -0.329 N 
ATOM     37  H   UNL     1       0.490  -1.492 -10.485  0.00  0.00    +0.145 HD
ATOM     38  H   UNL     1       1.321  -0.807 -11.775  0.00  0.00    +0.145 HD
ENDBRANCH  33  34
ENDBRANCH   5  33
TORSDOF 6
