REMARK  Name = ZINC56803108
REMARK  7 active torsions:
REMARK  status: ('A' for Active; 'I' for Inactive)
REMARK    1  A    between atoms: C_6  and  C_7
REMARK    2  A    between atoms: C_7  and  C_13
REMARK    3  A    between atoms: C_13  and  N_14
REMARK    4  A    between atoms: N_17  and  N_18
REMARK    5  A    between atoms: N_18  and  C_19
REMARK    6  A    between atoms: C_19  and  N_21
REMARK    7  A    between atoms: N_21  and  C_22
REMARK                            x       y       z     vdW  Elec       q    Type
REMARK                         _______ _______ _______ _____ _____    ______ ____
ROOT
ATOM      1  N   UNL     1      -2.423   0.894   1.396  0.00  0.00    -0.297 N 
ATOM      2  C   UNL     1      -3.002   1.378   2.513  0.00  0.00    +0.316 C 
ATOM      3  O   UNL     1      -3.201   0.643   3.461  0.00  0.00    -0.251 OA
ATOM      4  N   UNL     1      -3.359   2.675   2.579  0.00  0.00    -0.219 N 
ATOM      5  H   UNL     1      -2.264   1.480   0.639  0.00  0.00    +0.150 HD
ATOM      6  H   UNL     1      -3.776   3.023   3.383  0.00  0.00    +0.174 HD
ENDROOT
BRANCH   4   7
ATOM      7  N   UNL     1      -3.130   3.522   1.486  0.00  0.00    -0.245 N 
ATOM      8  H   UNL     1      -2.713   3.174   0.682  0.00  0.00    +0.172 HD
BRANCH   7   9
ATOM      9  C   UNL     1      -3.487   4.820   1.553  0.00  0.00    +0.147 C 
ATOM     10  S   UNL     1      -3.207   5.854   0.218  0.00  0.00    -0.017 S 
BRANCH   9  11
ATOM     11  N   UNL     1      -4.066   5.303   2.670  0.00  0.00    -0.323 N 
ATOM     12  H   UNL     1      -4.225   4.717   3.426  0.00  0.00    +0.148 HD
BRANCH  11  13
ATOM     13  C   UNL     1      -4.455   6.714   2.742  0.00  0.00    +0.072 C 
ATOM     14  C   UNL     1      -5.882   6.898   2.185  0.00  0.00    +0.022 C 
ATOM     15  C   UNL     1      -6.787   6.864   3.441  0.00  0.00    +0.002 C 
ATOM     16  C   UNL     1      -5.942   7.624   4.492  0.00  0.00    +0.002 C 
ATOM     17  C   UNL     1      -4.493   7.176   4.209  0.00  0.00    +0.022 C 
ENDBRANCH  11  13
ENDBRANCH   9  11
ENDBRANCH   7   9
ENDBRANCH   4   7
BRANCH   1  18
ATOM     18  C   UNL     1      -2.034  -0.516   1.324  0.00  0.00    +0.117 C 
BRANCH  18  19
ATOM     19  C   UNL     1      -1.362  -0.792  -0.023  0.00  0.00    +0.015 C 
ATOM     20  C   UNL     1      -2.362  -0.545  -1.157  0.00  0.00    +0.041 C 
ATOM     21  C   UNL     1      -3.526  -1.531  -1.023  0.00  0.00    +0.160 C 
ATOM     22  O   UNL     1      -3.023  -2.868  -1.048  0.00  0.00    -0.380 OA
ATOM     23  C   UNL     1      -2.119  -3.170   0.017  0.00  0.00    +0.160 C 
ATOM     24  C   UNL     1      -0.898  -2.251  -0.075  0.00  0.00    +0.041 C 
BRANCH  19  30
ATOM     25  C   UNL     1      -0.176   1.079  -1.187  0.00  0.00    +0.007 A 
ATOM     26  C   UNL     1       0.912   1.917  -1.342  0.00  0.00    +0.038 A 
ATOM     27  C   UNL     1       2.004   1.796  -0.498  0.00  0.00    +0.123 A 
ATOM     28  C   UNL     1       2.003   0.837   0.500  0.00  0.00    +0.038 A 
ATOM     29  C   UNL     1       0.914  -0.000   0.652  0.00  0.00    +0.007 A 
ATOM     30  C   UNL     1      -0.175   0.121  -0.191  0.00  0.00    -0.039 A 
ATOM     31  F   UNL     1       3.068   2.615  -0.648  0.00  0.00    -0.205 F 
ENDBRANCH  19  30
ENDBRANCH  18  19
ENDBRANCH   1  18
TORSDOF 7
