REMARK  Name = ZINC20916509
REMARK  9 active torsions:
REMARK  status: ('A' for Active; 'I' for Inactive)
REMARK    1  A    between atoms: C_1  and  O_2
REMARK    2  A    between atoms: O_2  and  C_3
REMARK    3  A    between atoms: C_7  and  C_9
REMARK    4  A    between atoms: C_9  and  S_10
REMARK    5  A    between atoms: S_10  and  C_11
REMARK    6  A    between atoms: N_15  and  N_16
REMARK    7  A    between atoms: N_17  and  N_18
REMARK    8  A    between atoms: C_19  and  C_20
REMARK    9  A    between atoms: C_29  and  O_30
REMARK                            x       y       z     vdW  Elec       q    Type
REMARK                         _______ _______ _______ _____ _____    ______ ____
ROOT
ATOM      1  C   UNL     1      -0.994   3.644   8.068  0.00  0.00    +0.210 A 
ATOM      2  N   UNL     1      -1.920   2.911   8.637  0.00  0.00    -0.119 NA
ATOM      3  N   UNL     1      -2.337   3.568   9.802  0.00  0.00    -0.109 NA
ATOM      4  C   UNL     1      -1.651   4.681   9.907  0.00  0.00    +0.254 A 
ATOM      5  N   UNL     1      -0.799   4.754   8.840  0.00  0.00    -0.211 N 
ATOM      6  N   UNL     1      -1.766   5.617  10.924  0.00  0.00    -0.204 N 
ATOM      7  H   UNL     1      -1.139   6.521  10.913  0.00  0.00    +0.177 HD
ENDROOT
BRANCH   5   8
ATOM      8  N   UNL     1       0.088   5.762   8.588  0.00  0.00    -0.294 N 
ATOM      9  H   UNL     1       0.163   6.614   9.280  0.00  0.00    +0.163 HD
ATOM     10  H   UNL     1       0.727   5.721   7.694  0.00  0.00    +0.163 HD
ENDBRANCH   5   8
BRANCH   6  11
ATOM     11  N   UNL     1      -2.681   5.411  11.965  0.00  0.00    -0.187 NA
ATOM     12  C   UNL     1      -2.789   6.289  12.918  0.00  0.00    +0.142 C 
BRANCH  12  13
ATOM     13  C   UNL     1      -3.748   6.073  14.010  0.00  0.00    +0.044 A 
ATOM     14  C   UNL     1      -3.878   7.046  15.093  0.00  0.00    -0.006 A 
ATOM     15  C   UNL     1      -3.099   8.209  15.128  0.00  0.00    +0.009 A 
ATOM     16  C   UNL     1      -3.251   9.091  16.156  0.00  0.00    +0.001 A 
ATOM     17  C   UNL     1      -4.171   8.852  17.174  0.00  0.00    +0.001 A 
ATOM     18  C   UNL     1      -4.952   7.736  17.166  0.00  0.00    +0.008 A 
ATOM     19  C   UNL     1      -4.819   6.802  16.124  0.00  0.00    -0.017 A 
ATOM     20  C   UNL     1      -5.596   5.631  16.090  0.00  0.00    +0.012 A 
ATOM     21  C   UNL     1      -5.459   4.734  15.078  0.00  0.00    +0.046 A 
ATOM     22  C   UNL     1      -4.551   4.933  14.039  0.00  0.00    +0.126 A 
BRANCH  22  23
ATOM     23  O   UNL     1      -4.447   4.010  13.048  0.00  0.00    -0.506 OA
ATOM     24  H   UNL     1      -5.078   3.109  13.067  0.00  0.00    +0.292 HD
ENDBRANCH  22  23
ENDBRANCH  12  13
ENDBRANCH   6  11
BRANCH   1  25
ATOM     25  S   UNL     1      -0.143   3.261   6.573  0.00  0.00    -0.080 S 
BRANCH  25  26
ATOM     26  C   UNL     1      -0.852   1.671   6.060  0.00  0.00    +0.112 C 
BRANCH  26  31
ATOM     27  C   UNL     1      -0.149   1.182   2.380  0.00  0.00    +0.120 A 
ATOM     28  C   UNL     1       0.994   0.397   2.421  0.00  0.00    +0.045 A 
ATOM     29  C   UNL     1       1.534   0.028   3.637  0.00  0.00    +0.004 A 
ATOM     30  C   UNL     1       0.936   0.440   4.814  0.00  0.00    +0.005 A 
ATOM     31  C   UNL     1      -0.203   1.223   4.776  0.00  0.00    -0.034 A 
ATOM     32  C   UNL     1      -0.744   1.599   3.561  0.00  0.00    +0.050 A 
BRANCH  27  34
ATOM     33  C   UNL     1      -0.013   1.086   0.008  0.00  0.00    +0.277 C 
ATOM     34  O   UNL     1      -0.682   1.547   1.184  0.00  0.00    -0.495 OA
ENDBRANCH  27  34
ENDBRANCH  26  31
ENDBRANCH  25  26
ENDBRANCH   1  25
TORSDOF 8
