REMARK  Name = ZINC57531276
REMARK  6 active torsions:
REMARK  status: ('A' for Active; 'I' for Inactive)
REMARK    1  A    between atoms: C_4  and  C_7
REMARK    2  A    between atoms: C_7  and  C_9
REMARK    3  A    between atoms: C_11  and  C_23
REMARK    4  A    between atoms: C_17  and  C_18
REMARK    5  A    between atoms: C_17  and  O_22
REMARK    6  A    between atoms: C_32  and  O_33
REMARK                            x       y       z     vdW  Elec       q    Type
REMARK                         _______ _______ _______ _____ _____    ______ ____
ROOT
ATOM      1  C   UNL     1       3.999  -2.454  -0.349  0.00  0.00    +0.144 C 
ATOM      2  C   UNL     1       4.881  -2.802   0.855  0.00  0.00    +0.124 C 
ATOM      3  N   UNL     1       6.159  -2.098   0.733  0.00  0.00    -0.292 N 
ATOM      4  C   UNL     1       6.672  -1.786  -0.467  0.00  0.00    +0.302 C 
ATOM      5  O   UNL     1       7.742  -1.210  -0.512  0.00  0.00    -0.253 OA
ATOM      6  N   UNL     1       6.052  -2.085  -1.618  0.00  0.00    -0.264 N 
ATOM      7  C   UNL     1       4.764  -2.790  -1.633  0.00  0.00    +0.243 C 
ATOM      8  H   UNL     1       6.644  -1.851   1.536  0.00  0.00    +0.151 HD
ATOM      9  H   UNL     1       6.463  -1.830  -2.459  0.00  0.00    +0.153 HD
ENDROOT
BRANCH   2  10
ATOM     10  C   UNL     1       5.126  -4.288   0.888  0.00  0.00    +0.023 A 
ATOM     11  C   UNL     1       4.119  -5.160   1.335  0.00  0.00    -0.009 A 
ATOM     12  C   UNL     1       2.870  -4.674   1.760  0.00  0.00    +0.009 A 
ATOM     13  C   UNL     1       1.917  -5.547   2.187  0.00  0.00    +0.001 A 
ATOM     14  C   UNL     1       2.160  -6.919   2.211  0.00  0.00    +0.001 A 
ATOM     15  C   UNL     1       3.358  -7.425   1.807  0.00  0.00    +0.008 A 
ATOM     16  C   UNL     1       4.366  -6.555   1.359  0.00  0.00    -0.017 A 
ATOM     17  C   UNL     1       5.614  -7.043   0.935  0.00  0.00    +0.012 A 
ATOM     18  C   UNL     1       6.568  -6.174   0.507  0.00  0.00    +0.046 A 
ATOM     19  C   UNL     1       6.325  -4.797   0.478  0.00  0.00    +0.122 A 
BRANCH  19  20
ATOM     20  O   UNL     1       7.296  -3.953   0.040  0.00  0.00    -0.506 OA
ATOM     21  H   UNL     1       7.888  -3.640   0.737  0.00  0.00    +0.292 HD
ENDBRANCH  19  20
ENDBRANCH   2  10
BRANCH   7  22
ATOM     22  C   UNL     1       3.946  -2.346  -2.847  0.00  0.00    +0.436 C 
ATOM     23  F   UNL     1       3.838  -0.951  -2.852  0.00  0.00    -0.166 F 
ATOM     24  F   UNL     1       4.582  -2.769  -4.019  0.00  0.00    -0.166 F 
ATOM     25  F   UNL     1       2.668  -2.912  -2.780  0.00  0.00    -0.166 F 
ENDBRANCH   7  22
BRANCH   1  26
ATOM     26  C   UNL     1       3.668  -0.984  -0.326  0.00  0.00    +0.173 C 
ATOM     27  O   UNL     1       4.554  -0.162  -0.422  0.00  0.00    -0.292 OA
BRANCH  26  31
ATOM     28  C   UNL     1      -0.362   0.277   0.073  0.00  0.00    +0.000 A 
ATOM     29  C   UNL     1       0.656   1.214   0.080  0.00  0.00    +0.001 A 
ATOM     30  C   UNL     1       1.969   0.812  -0.049  0.00  0.00    +0.011 A 
ATOM     31  C   UNL     1       2.270  -0.546  -0.187  0.00  0.00    +0.018 A 
ATOM     32  C   UNL     1       1.235  -1.487  -0.193  0.00  0.00    +0.011 A 
ATOM     33  C   UNL     1      -0.072  -1.069  -0.063  0.00  0.00    +0.001 A 
ENDBRANCH  26  31
ENDBRANCH   1  26
BRANCH   7  34
ATOM     34  O   UNL     1       4.993  -4.199  -1.699  0.00  0.00    -0.364 OA
ATOM     35  H   UNL     1       5.474  -4.483  -2.488  0.00  0.00    +0.212 HD
ENDBRANCH   7  34
TORSDOF 6
