REMARK  Name = ZINC51336441
REMARK  7 active torsions:
REMARK  status: ('A' for Active; 'I' for Inactive)
REMARK    1  A    between atoms: C_1  and  C_2
REMARK    2  A    between atoms: C_9  and  O_20
REMARK    3  A    between atoms: C_12  and  C_14
REMARK    4  A    between atoms: C_23  and  C_29
REMARK    5  A    between atoms: C_23  and  O_30
REMARK    6  A    between atoms: C_24  and  C_25
REMARK    7  A    between atoms: C_24  and  C_26
REMARK                            x       y       z     vdW  Elec       q    Type
REMARK                         _______ _______ _______ _____ _____    ______ ____
ROOT
ATOM      1  C   UNL     1       0.139   1.559   0.068  0.00  0.00    +0.014 C 
ATOM      2  C   UNL     1       0.083   0.005   0.064  0.00  0.00    +0.004 C 
ATOM      3  C   UNL     1       0.771  -0.416  -1.208  0.00  0.00    +0.010 C 
ATOM      4  C   UNL     1       1.303  -1.847  -1.179  0.00  0.00    +0.006 C 
ATOM      5  C   UNL     1       2.276  -1.954  -0.002  0.00  0.00    +0.014 C 
ATOM      6  C   UNL     1       1.462  -1.798   1.282  0.00  0.00    +0.026 C 
ATOM      7  C   UNL     1       0.776  -0.442   1.355  0.00  0.00    +0.075 C 
ATOM      8  C   UNL     1      -0.378  -0.545   2.391  0.00  0.00    +0.036 C 
ATOM      9  C   UNL     1      -1.609  -0.966   1.566  0.00  0.00    +0.011 C 
ATOM     10  C   UNL     1      -1.396  -0.358   0.166  0.00  0.00    +0.027 C 
ATOM     11  C   UNL     1       0.481  -2.958   1.410  0.00  0.00    +0.009 C 
ATOM     12  C   UNL     1       1.267  -4.270   1.490  0.00  0.00    +0.036 C 
ATOM     13  C   UNL     1       2.116  -4.465   0.238  0.00  0.00    +0.079 C 
ATOM     14  C   UNL     1       3.035  -3.272  -0.009  0.00  0.00    +0.101 C 
ATOM     15  C   UNL     1       4.123  -3.244   1.078  0.00  0.00    +0.026 C 
ATOM     16  C   UNL     1       2.983  -5.721   0.422  0.00  0.00    +0.042 C 
ENDROOT
BRANCH  10  17
ATOM     17  C   UNL     1      -1.864  -1.312  -0.902  0.00  0.00    -0.022 C 
ATOM     18  C   UNL     1      -2.083  -2.618  -0.760  0.00  0.00    +0.094 C 
ATOM     19  C   UNL     1      -2.529  -3.171  -2.042  0.00  0.00    +0.332 C 
ATOM     20  O   UNL     1      -2.810  -4.336  -2.241  0.00  0.00    -0.246 OA
ATOM     21  O   UNL     1      -2.580  -2.193  -2.966  0.00  0.00    -0.457 OA
ATOM     22  C   UNL     1      -2.181  -0.970  -2.339  0.00  0.00    +0.264 C 
ENDBRANCH  10  17
BRANCH  14  23
ATOM     23  C   UNL     1       3.734  -3.463  -1.337  0.00  0.00    +0.365 C 
ATOM     24  O   UNL     1       4.894  -3.111  -1.472  0.00  0.00    -0.246 OA
ATOM     25  O   UNL     1       3.138  -3.969  -2.273  0.00  0.00    -0.246 OA
ENDBRANCH  14  23
BRANCH   7  26
ATOM     26  O   UNL     1       1.729   0.565   1.775  0.00  0.00    -0.388 OA
ATOM     27  H   UNL     1       2.203   0.344   2.588  0.00  0.00    +0.210 HD
ENDBRANCH   7  26
BRANCH  13  28
ATOM     28  O   UNL     1       1.268  -4.670  -0.895  0.00  0.00    -0.388 OA
ATOM     29  H   UNL     1       0.693  -5.443  -0.821  0.00  0.00    +0.210 HD
ENDBRANCH  13  28
TORSDOF 4
