REMARK  Name = ZINC02862264
REMARK  7 active torsions:
REMARK  status: ('A' for Active; 'I' for Inactive)
REMARK    1  A    between atoms: C_1  and  O_2
REMARK    2  A    between atoms: O_2  and  C_3
REMARK    3  A    between atoms: C_8  and  C_9
REMARK    4  A    between atoms: N_11  and  C_12
REMARK    5  A    between atoms: C_12  and  N_14
REMARK    6  A    between atoms: N_14  and  N_15
REMARK    7  A    between atoms: C_16  and  C_18
REMARK                            x       y       z     vdW  Elec       q    Type
REMARK                         _______ _______ _______ _____ _____    ______ ____
ROOT
ATOM      1  N   UNL     1      -0.378  -6.263  -0.820  0.00  0.00    -0.245 N 
ATOM      2  H   UNL     1      -0.782  -6.798  -1.521  0.00  0.00    +0.172 HD
ENDROOT
BRANCH   1   3
ATOM      3  N   UNL     1       0.267  -6.889   0.255  0.00  0.00    -0.231 N 
ATOM      4  C   UNL     1       0.325  -8.234   0.315  0.00  0.00    +0.268 C 
ATOM      5  O   UNL     1      -0.182  -8.905  -0.564  0.00  0.00    -0.268 OA
ATOM      6  H   UNL     1       0.672  -6.354   0.956  0.00  0.00    +0.173 HD
BRANCH   4   7
ATOM      7  C   UNL     1       1.001  -8.890   1.442  0.00  0.00    +0.095 A 
ATOM      8  C   UNL     1       1.167 -10.221   1.673  0.00  0.00    +0.068 A 
ATOM      9  C   UNL     1       1.852 -10.652   2.825  0.00  0.00    +0.008 A 
ATOM     10  C   UNL     1       2.124 -11.982   3.238  0.00  0.00    +0.010 A 
ATOM     11  C   UNL     1       2.803 -12.227   4.388  0.00  0.00    +0.001 A 
ATOM     12  C   UNL     1       3.256 -11.194   5.200  0.00  0.00    +0.001 A 
ATOM     13  C   UNL     1       3.014  -9.886   4.835  0.00  0.00    +0.016 A 
ATOM     14  C   UNL     1       2.325  -9.622   3.670  0.00  0.00    +0.021 A 
ATOM     15  S   UNL     1       1.815  -8.138   2.841  0.00  0.00    -0.082 S 
ATOM     16 CL   UNL     1       0.533 -11.384   0.551  0.00  0.00    -0.082 Cl
ENDBRANCH   4   7
ENDBRANCH   1   3
BRANCH   1  17
ATOM     17  C   UNL     1      -0.436  -4.918  -0.880  0.00  0.00    +0.153 C 
ATOM     18  S   UNL     1      -1.224  -4.154  -2.194  0.00  0.00    -0.017 S 
BRANCH  17  21
ATOM     19  C   UNL     1       0.068  -2.830   0.033  0.00  0.00    +0.253 C 
ATOM     20  O   UNL     1      -0.492  -2.287  -0.900  0.00  0.00    -0.270 OA
ATOM     21  N   UNL     1       0.126  -4.175   0.093  0.00  0.00    -0.263 N 
ATOM     22  H   UNL     1       0.573  -4.608   0.838  0.00  0.00    +0.157 HD
BRANCH  19  28
ATOM     23  C   UNL     1       0.625  -0.617   1.040  0.00  0.00    +0.132 A 
ATOM     24  C   UNL     1       1.202   0.138   2.050  0.00  0.00    +0.046 A 
ATOM     25  C   UNL     1       1.835  -0.488   3.106  0.00  0.00    +0.004 A 
ATOM     26  C   UNL     1       1.899  -1.871   3.165  0.00  0.00    +0.001 A 
ATOM     27  C   UNL     1       1.331  -2.636   2.170  0.00  0.00    +0.017 A 
ATOM     28  C   UNL     1       0.683  -2.017   1.098  0.00  0.00    +0.079 A 
BRANCH  23  30
ATOM     29  C   UNL     1      -0.017   1.425   0.010  0.00  0.00    +0.277 C 
ATOM     30  O   UNL     1       0.002  -0.004   0.002  0.00  0.00    -0.494 OA
ENDBRANCH  23  30
ENDBRANCH  19  28
ENDBRANCH  17  21
ENDBRANCH   1  17
TORSDOF 6
