REMARK  Name = ZINC57405958
REMARK  10 active torsions:
REMARK  status: ('A' for Active; 'I' for Inactive)
REMARK    1  A    between atoms: C_1  and  C_2
REMARK    2  A    between atoms: C_2  and  C_3
REMARK    3  A    between atoms: C_6  and  C_15
REMARK    4  A    between atoms: C_13  and  O_14
REMARK    5  A    between atoms: C_15  and  N_16
REMARK    6  A    between atoms: N_16  and  C_17
REMARK    7  A    between atoms: C_20  and  N_23
REMARK    8  A    between atoms: C_24  and  C_26
REMARK    9  A    between atoms: C_26  and  C_27
REMARK   10  A    between atoms: C_26  and  C_28
REMARK                            x       y       z     vdW  Elec       q    Type
REMARK                         _______ _______ _______ _____ _____    ______ ____
ROOT
ATOM      1  C   UNL     1       4.657  -1.715  -0.864  0.00  0.00    +0.137 C 
ENDROOT
BRANCH   1   5
ATOM      2  C   UNL     1       0.728   0.026  -1.353  0.00  0.00    -0.005 A 
ATOM      3  C   UNL     1       1.968  -0.526  -1.208  0.00  0.00    +0.019 A 
ATOM      4  C   UNL     1       2.585  -1.146  -2.300  0.00  0.00    +0.023 A 
ATOM      5  C   UNL     1       3.914  -1.747  -2.174  0.00  0.00    -0.013 A 
ATOM      6  C   UNL     1       4.459  -2.334  -3.271  0.00  0.00    +0.097 A 
ATOM      7  C   UNL     1       3.744  -2.351  -4.487  0.00  0.00    +0.338 A 
ATOM      8  O   UNL     1       4.245  -2.881  -5.462  0.00  0.00    -0.245 OA
ATOM      9  O   UNL     1       2.526  -1.798  -4.596  0.00  0.00    -0.422 OA
ATOM     10  C   UNL     1       1.928  -1.198  -3.544  0.00  0.00    +0.143 A 
ATOM     11  C   UNL     1       0.669  -0.632  -3.674  0.00  0.00    +0.092 A 
ATOM     12  C   UNL     1       0.070  -0.028  -2.580  0.00  0.00    +0.124 A 
BRANCH   2  14
ATOM     13  C   UNL     1       0.228   2.211  -0.291  0.00  0.00    +0.009 C 
ATOM     14  C   UNL     1       0.064   0.694  -0.176  0.00  0.00    +0.035 C 
ENDBRANCH   2  14
BRANCH  12  15
ATOM     15  O   UNL     1      -1.165   0.521  -2.707  0.00  0.00    -0.506 OA
ATOM     16  H   UNL     1      -1.157   1.451  -2.974  0.00  0.00    +0.292 HD
ENDBRANCH  12  15
ENDBRANCH   1   5
BRANCH   1  17
ATOM     17  N   UNL     1       5.382  -0.448  -0.744  0.00  0.00    -0.340 N 
ATOM     18  H   UNL     1       5.329   0.210  -1.455  0.00  0.00    +0.146 HD
BRANCH  17  19
ATOM     19  C   UNL     1       6.149  -0.186   0.396  0.00  0.00    +0.027 A 
ATOM     20  C   UNL     1       6.229  -1.130   1.412  0.00  0.00    +0.025 A 
ATOM     21  C   UNL     1       6.987  -0.872   2.537  0.00  0.00    +0.025 A 
ATOM     22  C   UNL     1       7.668   0.332   2.653  0.00  0.00    +0.034 A 
ATOM     23  C   UNL     1       7.589   1.277   1.638  0.00  0.00    +0.025 A 
ATOM     24  C   UNL     1       6.837   1.016   0.510  0.00  0.00    +0.025 A 
BRANCH  22  25
ATOM     25  N   UNL     1       8.437   0.595   3.795  0.00  0.00    -0.285 N 
ATOM     26  C   UNL     1       9.074  -0.412   4.425  0.00  0.00    +0.220 C 
ATOM     27  O   UNL     1       9.060  -1.529   3.951  0.00  0.00    -0.275 OA
ATOM     28  H   UNL     1       8.511   1.501   4.132  0.00  0.00    +0.155 HD
BRANCH  26  29
ATOM     29  C   UNL     1       9.802  -0.151   5.718  0.00  0.00    +0.069 C 
ATOM     30  C   UNL     1      10.432  -1.452   6.220  0.00  0.00    +0.017 C 
ATOM     31  C   UNL     1      10.898   0.890   5.485  0.00  0.00    +0.017 C 
ENDBRANCH  26  29
ENDBRANCH  22  25
ENDBRANCH  17  19
ENDBRANCH   1  17
TORSDOF 7
