REMARK  Name = ZINC02411049
REMARK  8 active torsions:
REMARK  status: ('A' for Active; 'I' for Inactive)
REMARK    1  A    between atoms: C_1  and  C_2
REMARK    2  A    between atoms: C_2  and  C_28
REMARK    3  A    between atoms: C_9  and  N_25
REMARK    4  A    between atoms: C_11  and  S_13
REMARK    5  A    between atoms: S_13  and  C_14
REMARK    6  A    between atoms: C_14  and  C_15
REMARK    7  A    between atoms: N_17  and  C_18
REMARK    8  A    between atoms: C_18  and  C_19
REMARK                            x       y       z     vdW  Elec       q    Type
REMARK                         _______ _______ _______ _____ _____    ______ ____
ROOT
ATOM      1  C   UNL     1       2.012  -4.016  -6.650  0.00  0.00    +0.041 C 
ATOM      2  C   UNL     1       3.183  -3.045  -6.816  0.00  0.00    +0.068 C 
ATOM      3  C   UNL     1       3.214  -2.079  -5.628  0.00  0.00    +0.071 C 
ATOM      4  C   UNL     1       2.011  -1.146  -5.745  0.00  0.00    -0.020 A 
ATOM      5  C   UNL     1       1.371  -1.030  -6.928  0.00  0.00    +0.021 A 
ATOM      6  S   UNL     1       0.064   0.127  -6.633  0.00  0.00    -0.071 S 
ATOM      7  C   UNL     1       0.379   0.454  -4.918  0.00  0.00    +0.115 A 
ATOM      8  C   UNL     1       1.499  -0.353  -4.630  0.00  0.00    +0.051 A 
ATOM      9  C   UNL     1       1.975  -0.284  -3.291  0.00  0.00    +0.129 A 
ATOM     10  N   UNL     1       1.365   0.510  -2.427  0.00  0.00    -0.207 NA
ATOM     11  C   UNL     1       0.309   1.241  -2.764  0.00  0.00    +0.191 A 
ATOM     12  N   UNL     1      -0.178   1.217  -3.998  0.00  0.00    -0.214 NA
ATOM     13  C   UNL     1       1.720  -1.742  -8.198  0.00  0.00    +0.203 C 
ATOM     14  O   UNL     1       3.026  -2.318  -8.038  0.00  0.00    -0.368 OA
ATOM     15  C   UNL     1       4.493  -3.834  -6.860  0.00  0.00    +0.041 C 
ENDROOT
BRANCH   9  16
ATOM     16  N   UNL     1       3.069  -1.034  -2.898  0.00  0.00    -0.343 N 
ATOM     17  H   UNL     1       3.606  -1.493  -3.563  0.00  0.00    +0.144 HD
ATOM     18  H   UNL     1       3.298  -1.102  -1.958  0.00  0.00    +0.144 HD
ENDBRANCH   9  16
BRANCH  11  19
ATOM     19  S   UNL     1      -0.454   2.269  -1.553  0.00  0.00    -0.077 S 
BRANCH  19  20
ATOM     20  C   UNL     1       0.597   1.904  -0.125  0.00  0.00    +0.173 C 
BRANCH  20  21
ATOM     21  C   UNL     1       0.118   2.695   1.065  0.00  0.00    +0.224 C 
ATOM     22  O   UNL     1      -0.839   3.432   0.959  0.00  0.00    -0.275 OA
ATOM     23  N   UNL     1       0.753   2.582   2.249  0.00  0.00    -0.311 N 
ATOM     24  H   UNL     1       1.519   1.992   2.334  0.00  0.00    +0.149 HD
BRANCH  23  25
ATOM     25  C   UNL     1       0.288   3.351   3.406  0.00  0.00    +0.139 C 
BRANCH  25  26
ATOM     26  C   UNL     1       1.163   3.047   4.595  0.00  0.00    -0.030 A 
ATOM     27  C   UNL     1       0.833   2.011   5.449  0.00  0.00    +0.005 A 
ATOM     28  C   UNL     1       1.638   1.730   6.537  0.00  0.00    +0.000 A 
ATOM     29  C   UNL     1       2.767   2.490   6.777  0.00  0.00    +0.000 A 
ATOM     30  C   UNL     1       3.093   3.530   5.926  0.00  0.00    +0.000 A 
ATOM     31  C   UNL     1       2.291   3.808   4.835  0.00  0.00    +0.005 A 
ENDBRANCH  25  26
ENDBRANCH  23  25
ENDBRANCH  20  21
ENDBRANCH  19  20
ENDBRANCH  11  19
TORSDOF 6
