REMARK  Name = ZINC35365916
REMARK  9 active torsions:
REMARK  status: ('A' for Active; 'I' for Inactive)
REMARK    1  A    between atoms: C_1  and  C_2
REMARK    2  A    between atoms: C_2  and  C_3
REMARK    3  A    between atoms: C_3  and  C_4
REMARK    4  A    between atoms: C_4  and  C_5
REMARK    5  A    between atoms: C_8  and  N_11
REMARK    6  A    between atoms: C_16  and  C_35
REMARK    7  A    between atoms: C_27  and  C_34
REMARK    8  A    between atoms: C_28  and  C_33
REMARK    9  A    between atoms: C_35  and  C_36
REMARK                            x       y       z     vdW  Elec       q    Type
REMARK                         _______ _______ _______ _____ _____    ______ ____
ROOT
ATOM      1  N   UNL     1       3.508  -3.921   5.831  0.00  0.00    -0.210 N 
ATOM      2  C   UNL     1       4.810  -4.227   5.822  0.00  0.00    +0.232 C 
ATOM      3  O   UNL     1       5.542  -4.147   4.858  0.00  0.00    -0.274 OA
ATOM      4  C   UNL     1       5.228  -4.689   7.199  0.00  0.00    +0.108 C 
ATOM      5  C   UNL     1       5.587  -6.189   7.148  0.00  0.00    +0.076 C 
ATOM      6  N   UNL     1       4.297  -6.898   7.359  0.00  0.00    -0.295 NA
ATOM      7  C   UNL     1       3.598  -6.081   8.369  0.00  0.00    +0.136 C 
ATOM      8  C   UNL     1       3.911  -4.605   8.021  0.00  0.00    +0.123 C 
ATOM      9  C   UNL     1       2.907  -4.089   7.015  0.00  0.00    +0.233 C 
ATOM     10  O   UNL     1       1.738  -3.865   7.244  0.00  0.00    -0.274 OA
ATOM     11  C   UNL     1       2.121  -6.352   8.371  0.00  0.00    +0.004 A 
ATOM     12  C   UNL     1       1.135  -6.238   7.417  0.00  0.00    +0.008 A 
ATOM     13  C   UNL     1      -0.171  -6.574   7.727  0.00  0.00    +0.004 A 
ATOM     14  C   UNL     1      -0.483  -7.023   8.998  0.00  0.00    -0.046 A 
ATOM     15  C   UNL     1       0.501  -7.136   9.957  0.00  0.00    -0.026 A 
ATOM     16  C   UNL     1       1.818  -6.800   9.653  0.00  0.00    +0.042 A 
ATOM     17  N   UNL     1       2.971  -6.828  10.440  0.00  0.00    -0.283 N 
ATOM     18  C   UNL     1       4.060  -6.420   9.761  0.00  0.00    +0.243 C 
ATOM     19  O   UNL     1       5.193  -6.341  10.187  0.00  0.00    -0.273 OA
ATOM     20  C   UNL     1       0.150  -7.624  11.339  0.00  0.00    +0.046 C 
ATOM     21  C   UNL     1      -1.906  -7.389   9.335  0.00  0.00    +0.044 C 
ATOM     22  H   UNL     1       3.766  -6.945   6.502  0.00  0.00    +0.124 HD
ATOM     23  H   UNL     1       2.986  -7.108  11.369  0.00  0.00    +0.155 HD
ENDROOT
BRANCH   1  27
ATOM     24  C   UNL     1       1.493  -2.538   2.454  0.00  0.00    -0.047 A 
ATOM     25  C   UNL     1       1.686  -1.697   3.534  0.00  0.00    +0.005 A 
ATOM     26  C   UNL     1       2.353  -2.153   4.655  0.00  0.00    +0.024 A 
ATOM     27  C   UNL     1       2.830  -3.456   4.696  0.00  0.00    +0.044 A 
ATOM     28  C   UNL     1       2.634  -4.298   3.609  0.00  0.00    +0.024 A 
ATOM     29  C   UNL     1       1.962  -3.838   2.494  0.00  0.00    +0.005 A 
BRANCH  24  30
ATOM     30  C   UNL     1       0.765  -2.038   1.233  0.00  0.00    +0.035 C 
BRANCH  30  31
ATOM     31  C   UNL     1      -0.734  -2.303   1.389  0.00  0.00    +0.004 C 
BRANCH  31  33
ATOM     32  C   UNL     1      -2.972  -2.061   0.306  0.00  0.00    +0.004 C 
ATOM     33  C   UNL     1      -1.474  -1.796   0.149  0.00  0.00    -0.003 C 
ENDBRANCH  31  33
ENDBRANCH  30  31
ENDBRANCH  24  30
ENDBRANCH   1  27
BRANCH   5  34
ATOM     34  C   UNL     1       6.177  -6.548   5.783  0.00  0.00    +0.115 C 
BRANCH  34  35
ATOM     35  C   UNL     1       6.633  -7.985   5.795  0.00  0.00    +0.212 C 
ATOM     36  O   UNL     1       6.499  -8.655   6.797  0.00  0.00    -0.276 OA
ATOM     37  N   UNL     1       7.190  -8.525   4.693  0.00  0.00    -0.329 N 
ATOM     38  H   UNL     1       7.297  -7.989   3.892  0.00  0.00    +0.145 HD
ATOM     39  H   UNL     1       7.483  -9.449   4.701  0.00  0.00    +0.145 HD
ENDBRANCH  34  35
ENDBRANCH   5  34
TORSDOF 6
