REMARK  Name = ZINC66591850
REMARK  10 active torsions:
REMARK  status: ('A' for Active; 'I' for Inactive)
REMARK    1  A    between atoms: C_1  and  C_2
REMARK    2  A    between atoms: C_2  and  C_4
REMARK    3  A    between atoms: C_2  and  N_20
REMARK    4  A    between atoms: C_4  and  C_5
REMARK    5  A    between atoms: N_7  and  C_8
REMARK    6  A    between atoms: C_11  and  O_18
REMARK    7  A    between atoms: C_12  and  S_14
REMARK    8  A    between atoms: S_14  and  N_17
REMARK    9  A    between atoms: O_18  and  C_19
REMARK   10  A    between atoms: C_21  and  C_23
REMARK                            x       y       z     vdW  Elec       q    Type
REMARK                         _______ _______ _______ _____ _____    ______ ____
ROOT
ATOM      1  C   UNL     1      -1.416  -2.034  -0.121  0.00  0.00    +0.219 C 
ATOM      2  O   UNL     1      -0.360  -2.622  -0.223  0.00  0.00    -0.275 OA
ATOM      3  N   UNL     1      -2.574  -2.724  -0.133  0.00  0.00    -0.285 N 
ATOM      4  H   UNL     1      -3.415  -2.262   0.015  0.00  0.00    +0.155 HD
ENDROOT
BRANCH   3   5
ATOM      5  C   UNL     1      -2.565  -4.106  -0.361  0.00  0.00    +0.035 A 
ATOM      6  C   UNL     1      -3.596  -4.699  -1.076  0.00  0.00    +0.027 A 
ATOM      7  C   UNL     1      -3.586  -6.062  -1.301  0.00  0.00    +0.049 A 
ATOM      8  C   UNL     1      -2.546  -6.838  -0.811  0.00  0.00    +0.146 A 
ATOM      9  C   UNL     1      -1.515  -6.246  -0.096  0.00  0.00    +0.148 A 
ATOM     10  C   UNL     1      -1.521  -4.882   0.124  0.00  0.00    +0.055 A 
BRANCH   9  11
ATOM     11  S   UNL     1      -0.195  -7.232   0.526  0.00  0.00    +0.059 S 
ATOM     12  O   UNL     1       0.249  -8.044  -0.552  0.00  0.00    -0.153 OA
ATOM     13  O   UNL     1       0.675  -6.353   1.226  0.00  0.00    -0.153 OA
BRANCH  11  14
ATOM     14  N   UNL     1      -0.840  -8.258   1.656  0.00  0.00    -0.203 NA
ATOM     15  H   UNL     1      -1.789  -8.226   1.853  0.00  0.00    +0.144 HD
ATOM     16  H   UNL     1      -0.268  -8.889   2.120  0.00  0.00    +0.144 HD
ENDBRANCH  11  14
ENDBRANCH   9  11
BRANCH   8  17
ATOM     17  O   UNL     1      -2.536  -8.179  -1.032  0.00  0.00    -0.493 OA
ATOM     18  C   UNL     1      -3.629  -8.722  -1.776  0.00  0.00    +0.277 C 
ENDBRANCH   8  17
ENDBRANCH   3   5
BRANCH   1  19
ATOM     19  C   UNL     1      -1.433  -0.534   0.020  0.00  0.00    +0.118 C 
BRANCH  19  21
ATOM     20  C   UNL     1      -0.019   1.526   0.022  0.00  0.00    +0.028 C 
ATOM     21  C   UNL     1       0.002  -0.004   0.005  0.00  0.00    +0.079 C 
BRANCH  21  22
ATOM     22  N   UNL     1       0.716  -0.496   1.185  0.00  0.00    -0.312 N 
ATOM     23  C   UNL     1       2.059  -0.606   1.163  0.00  0.00    +0.216 C 
ATOM     24  O   UNL     1       2.677  -0.297   0.165  0.00  0.00    -0.276 OA
ATOM     25  H   UNL     1       0.223  -0.742   1.983  0.00  0.00    +0.149 HD
BRANCH  23  26
ATOM     26  C   UNL     1       2.795  -1.112   2.377  0.00  0.00    +0.075 C 
ATOM     27  C   UNL     1       2.519  -0.184   3.563  0.00  0.00    +0.013 C 
ATOM     28  C   UNL     1       3.265  -0.698   4.796  0.00  0.00    +0.001 C 
ATOM     29  C   UNL     1       4.768  -0.726   4.508  0.00  0.00    +0.000 C 
ATOM     30  C   UNL     1       5.043  -1.653   3.323  0.00  0.00    +0.001 C 
ATOM     31  C   UNL     1       4.297  -1.139   2.090  0.00  0.00    +0.013 C 
ENDBRANCH  23  26
ENDBRANCH  21  22
ENDBRANCH  19  21
ENDBRANCH   1  19
TORSDOF 8
