REMARK  Name = ZINC45112288
REMARK  5 active torsions:
REMARK  status: ('A' for Active; 'I' for Inactive)
REMARK    1  A    between atoms: C_1  and  C_2
REMARK    2  A    between atoms: C_2  and  C_3
REMARK    3  A    between atoms: C_2  and  C_4
REMARK    4  A    between atoms: C_2  and  N_7
REMARK    5  A    between atoms: C_20  and  C_22
REMARK                            x       y       z     vdW  Elec       q    Type
REMARK                         _______ _______ _______ _____ _____    ______ ____
ROOT
ATOM      1  N   UNL     1       0.688  -0.476  -1.203  0.00  0.00    -0.286 N 
ATOM      2  C   UNL     1       1.972  -0.132  -1.427  0.00  0.00    +0.304 C 
ATOM      3  O   UNL     1       2.561   0.570  -0.628  0.00  0.00    -0.253 OA
ATOM      4  N   UNL     1       2.602  -0.567  -2.536  0.00  0.00    -0.269 N 
ATOM      5  C   UNL     1       3.979  -0.287  -2.912  0.00  0.00    +0.082 C 
ATOM      6  C   UNL     1       4.572   1.037  -2.481  0.00  0.00    +0.023 C 
ATOM      7  C   UNL     1       6.031   1.066  -2.966  0.00  0.00    +0.002 C 
ATOM      8  C   UNL     1       6.119   0.870  -4.477  0.00  0.00    +0.000 C 
ATOM      9  C   UNL     1       5.405  -0.417  -4.920  0.00  0.00    +0.005 C 
ATOM     10  C   UNL     1       3.955  -0.292  -4.465  0.00  0.00    +0.012 C 
ATOM     11  C   UNL     1       3.094  -1.539  -4.721  0.00  0.00    +0.039 C 
ATOM     12  C   UNL     1       2.025  -1.425  -3.598  0.00  0.00    +0.191 C 
ATOM     13  H   UNL     1       0.218  -1.037  -1.840  0.00  0.00    +0.151 HD
ENDROOT
BRANCH   1  15
ATOM     14  C   UNL     1      -0.019   1.526   0.010  0.00  0.00    +0.041 C 
ATOM     15  C   UNL     1       0.002  -0.004   0.002  0.00  0.00    +0.106 C 
ATOM     16  C   UNL     1       0.742  -0.511   1.242  0.00  0.00    +0.041 C 
BRANCH  15  17
ATOM     17  C   UNL     1      -1.412  -0.526   0.013  0.00  0.00    +0.233 C 
ATOM     18  O   UNL     1      -1.939  -0.827   1.062  0.00  0.00    -0.274 OA
ATOM     19  N   UNL     1      -2.090  -0.657  -1.144  0.00  0.00    -0.328 N 
ATOM     20  H   UNL     1      -1.669  -0.416  -1.984  0.00  0.00    +0.145 HD
ATOM     21  H   UNL     1      -3.000  -0.993  -1.137  0.00  0.00    +0.145 HD
ENDBRANCH  15  17
ENDBRANCH   1  15
BRANCH  12  22
ATOM     22  C   UNL     1       0.773  -0.791  -4.146  0.00  0.00    +0.376 C 
ATOM     23  O   UNL     1       0.470   0.344  -3.818  0.00  0.00    -0.244 OA
ATOM     24  O   UNL     1       0.063  -1.412  -4.919  0.00  0.00    -0.244 OA
ENDBRANCH  12  22
TORSDOF 3
