REMARK  Name = ZINC04594174
REMARK  6 active torsions:
REMARK  status: ('A' for Active; 'I' for Inactive)
REMARK    1  A    between atoms: C_2  and  C_3
REMARK    2  A    between atoms: C_3  and  S_4
REMARK    3  A    between atoms: S_4  and  C_5
REMARK    4  A    between atoms: C_12  and  N_24
REMARK    5  A    between atoms: C_13  and  C_22
REMARK    6  A    between atoms: C_14  and  C_16
REMARK                            x       y       z     vdW  Elec       q    Type
REMARK                         _______ _______ _______ _____ _____    ______ ____
ROOT
ATOM      1  C   UNL     1       1.492   3.847   0.009  0.00  0.00    +0.194 A 
ATOM      2  N   UNL     1       0.271   4.362   0.028  0.00  0.00    -0.207 NA
ATOM      3  C   UNL     1       0.090   5.680   0.038  0.00  0.00    +0.128 A 
ATOM      4  C   UNL     1       1.206   6.513   0.027  0.00  0.00    +0.067 A 
ATOM      5  C   UNL     1       2.466   5.941   0.006  0.00  0.00    +0.232 A 
ATOM      6  N   UNL     1       2.573   4.614   0.002  0.00  0.00    -0.186 NA
ATOM      7  O   UNL     1       3.578   6.708  -0.005  0.00  0.00    -0.423 OA
ATOM      8  C   UNL     1       3.496   8.001  -0.367  0.00  0.00    +0.200 C 
ATOM      9  C   UNL     1       2.322   8.675  -0.368  0.00  0.00    +0.098 C 
ATOM     10  C   UNL     1       1.037   8.007   0.037  0.00  0.00    +0.104 C 
ATOM     11  N   UNL     1      -1.189   6.215   0.058  0.00  0.00    -0.343 N 
ATOM     12  H   UNL     1      -1.960   5.627   0.066  0.00  0.00    +0.144 HD
ATOM     13  H   UNL     1      -1.312   7.177   0.065  0.00  0.00    +0.144 HD
ENDROOT
BRANCH  10  14
ATOM     14  C   UNL     1       0.657   8.457   1.425  0.00  0.00    -0.016 A 
ATOM     15  C   UNL     1      -0.542   9.117   1.644  0.00  0.00    +0.007 A 
ATOM     16  C   UNL     1      -0.851   9.513   2.937  0.00  0.00    +0.020 A 
ATOM     17  C   UNL     1       0.041   9.238   3.956  0.00  0.00    +0.111 A 
ATOM     18  N   UNL     1       1.173   8.608   3.710  0.00  0.00    -0.263 NA
ATOM     19  C   UNL     1       1.496   8.211   2.494  0.00  0.00    +0.115 A 
ENDBRANCH  10  14
BRANCH   8  20
ATOM     20  N   UNL     1       4.640   8.658  -0.745  0.00  0.00    -0.328 N 
ATOM     21  H   UNL     1       5.489   8.190  -0.750  0.00  0.00    +0.145 HD
ATOM     22  H   UNL     1       4.598   9.591  -1.009  0.00  0.00    +0.145 HD
ENDBRANCH   8  20
BRANCH   9  23
ATOM     23  C   UNL     1       2.303  10.051  -0.765  0.00  0.00    +0.101 C 
ATOM     24  N   UNL     1       2.288  11.142  -1.079  0.00  0.00    -0.191 NA
ENDBRANCH   9  23
BRANCH   1  25
ATOM     25  S   UNL     1       1.684   2.096  -0.003  0.00  0.00    -0.073 S 
BRANCH  25  26
ATOM     26  C   UNL     1      -0.018   1.468   0.010  0.00  0.00    +0.165 C 
BRANCH  26  28
ATOM     27  C   UNL     1       0.018  -1.178  -0.004  0.00  0.00    +0.004 C 
ATOM     28  C   UNL     1       0.002  -0.004   0.002  0.00  0.00    -0.094 C 
ENDBRANCH  26  28
ENDBRANCH  25  26
ENDBRANCH   1  25
TORSDOF 6
