REMARK  Name = ZINC16489901
REMARK  8 active torsions:
REMARK  status: ('A' for Active; 'I' for Inactive)
REMARK    1  A    between atoms: C_1  and  C_2
REMARK    2  A    between atoms: C_4  and  C_14
REMARK    3  A    between atoms: C_6  and  S_9
REMARK    4  A    between atoms: C_7  and  C_8
REMARK    5  A    between atoms: S_9  and  N_12
REMARK    6  A    between atoms: N_12  and  C_13
REMARK    7  A    between atoms: N_16  and  C_17
REMARK    8  A    between atoms: C_20  and  N_24
REMARK                            x       y       z     vdW  Elec       q    Type
REMARK                         _______ _______ _______ _____ _____    ______ ____
ROOT
ATOM      1  C   UNL     1      -2.263  -2.386   5.106  0.00  0.00    +0.248 C 
ATOM      2  O   UNL     1      -2.082  -3.541   4.773  0.00  0.00    -0.270 OA
ATOM      3  N   UNL     1      -3.049  -2.105   6.163  0.00  0.00    -0.281 N 
ATOM      4  H   UNL     1      -3.255  -1.183   6.383  0.00  0.00    +0.155 HD
ENDROOT
BRANCH   1   8
ATOM      5  C   UNL     1      -1.446   2.489   4.426  0.00  0.00    +0.044 C 
ATOM      6  C   UNL     1      -1.225   1.056   4.019  0.00  0.00    -0.045 A 
ATOM      7  C   UNL     1      -1.827   0.037   4.729  0.00  0.00    +0.016 A 
ATOM      8  C   UNL     1      -1.621  -1.290   4.350  0.00  0.00    +0.039 A 
ATOM      9  C   UNL     1      -0.805  -1.578   3.254  0.00  0.00    +0.042 A 
ATOM     10  C   UNL     1      -0.209  -0.551   2.552  0.00  0.00    +0.109 A 
ATOM     11  C   UNL     1      -0.414   0.763   2.937  0.00  0.00    -0.021 A 
ATOM     12  C   UNL     1       0.246   1.880   2.170  0.00  0.00    +0.046 C 
BRANCH  10  13
ATOM     13  S   UNL     1       0.820  -0.912   1.169  0.00  0.00    +0.058 S 
ATOM     14  O   UNL     1       0.391  -0.065   0.112  0.00  0.00    -0.153 OA
ATOM     15  O   UNL     1       0.852  -2.327   1.045  0.00  0.00    -0.153 OA
BRANCH  13  16
ATOM     16  N   UNL     1       2.356  -0.437   1.564  0.00  0.00    -0.193 NA
ATOM     17  C   UNL     1       3.078  -1.115   2.643  0.00  0.00    +0.127 C 
ATOM     18  H   UNL     1       2.778   0.291   1.081  0.00  0.00    +0.148 HD
ENDBRANCH  13  16
ENDBRANCH  10  13
ENDBRANCH   1   8
BRANCH   3  19
ATOM     19  C   UNL     1      -3.569  -3.144   6.946  0.00  0.00    +0.037 A 
ATOM     20  C   UNL     1      -4.829  -3.019   7.517  0.00  0.00    +0.045 A 
ATOM     21  C   UNL     1      -5.344  -4.046   8.284  0.00  0.00    +0.065 A 
ATOM     22  C   UNL     1      -4.597  -5.199   8.494  0.00  0.00    +0.062 A 
ATOM     23  C   UNL     1      -3.334  -5.321   7.927  0.00  0.00    +0.065 A 
ATOM     24  C   UNL     1      -2.822  -4.295   7.155  0.00  0.00    +0.045 A 
ATOM     25 CL   UNL     1      -2.401  -6.761   8.188  0.00  0.00    -0.082 Cl
ATOM     26 CL   UNL     1      -6.922  -3.894   8.992  0.00  0.00    -0.082 Cl
BRANCH  22  27
ATOM     27  N   UNL     1      -5.117  -6.238   9.276  0.00  0.00    -0.356 N 
ATOM     28  H   UNL     1      -4.595  -7.043   9.422  0.00  0.00    +0.142 HD
ATOM     29  H   UNL     1      -5.998  -6.153   9.671  0.00  0.00    +0.142 HD
ENDBRANCH  22  27
ENDBRANCH   3  19
TORSDOF 5
