REMARK  Name = ZINC03838533
REMARK  12 active torsions:
REMARK  status: ('A' for Active; 'I' for Inactive)
REMARK    1  A    between atoms: C_1  and  C_2
REMARK    2  A    between atoms: C_2  and  C_3
REMARK    3  A    between atoms: C_3  and  N_4
REMARK    4  A    between atoms: C_5  and  C_7
REMARK    5  A    between atoms: C_7  and  C_8
REMARK    6  A    between atoms: N_15  and  C_16
REMARK    7  A    between atoms: C_16  and  C_17
REMARK    8  A    between atoms: C_22  and  C_32
REMARK    9  A    between atoms: C_25  and  O_31
REMARK   10  A    between atoms: C_27  and  C_28
REMARK   11  A    between atoms: C_27  and  C_29
REMARK   12  A    between atoms: C_29  and  O_30
REMARK                            x       y       z     vdW  Elec       q    Type
REMARK                         _______ _______ _______ _____ _____    ______ ____
ROOT
ATOM      1  C   UNL     1       1.633  -1.150  -0.050  0.00  0.00    +0.054 C 
ATOM      2  C   UNL     1       1.068   0.258  -0.154  0.00  0.00    +0.058 A 
ATOM      3  C   UNL     1      -0.274   0.452  -0.198  0.00  0.00    +0.015 A 
ATOM      4  S   UNL     1      -0.410   2.215  -0.322  0.00  0.00    -0.057 S 
ATOM      5  C   UNL     1       1.294   2.561  -0.306  0.00  0.00    +0.159 A 
ATOM      6  N   UNL     1       1.819   1.357  -0.212  0.00  0.00    -0.229 NA
ATOM      7  N   UNL     1       1.934   3.789  -0.375  0.00  0.00    -0.320 N 
ATOM      8  C   UNL     1      -1.345  -0.580  -0.149  0.00  0.00    +0.049 C 
ATOM      9  C   UNL     1      -0.719  -1.967  -0.397  0.00  0.00    +0.011 C 
ATOM     10  C   UNL     1       0.542  -2.103   0.459  0.00  0.00    -0.019 C 
ATOM     11  C   UNL     1       1.095  -3.529   0.362  0.00  0.00    +0.010 C 
ATOM     12  C   UNL     1       0.056  -4.545   0.786  0.00  0.00    +0.032 C 
ATOM     13  C   UNL     1      -1.163  -4.425  -0.135  0.00  0.00    +0.123 C 
ATOM     14  C   UNL     1      -1.751  -3.023   0.010  0.00  0.00    +0.021 C 
ATOM     15  C   UNL     1      -2.985  -2.897  -0.886  0.00  0.00    +0.016 C 
ATOM     16  C   UNL     1       0.211  -1.771   1.916  0.00  0.00    +0.012 C 
ATOM     17  H   UNL     1       2.903   3.832  -0.356  0.00  0.00    +0.148 HD
ENDROOT
BRANCH  13  18
ATOM     18  O   UNL     1      -2.142  -5.396   0.238  0.00  0.00    -0.391 OA
ATOM     19  H   UNL     1      -1.835  -6.311   0.170  0.00  0.00    +0.210 HD
ENDBRANCH  13  18
BRANCH   1  20
ATOM     20  C   UNL     1       2.811  -1.156   0.926  0.00  0.00    +0.106 C 
BRANCH  20  22
ATOM     21  N   UNL     1       5.108  -0.244   1.023  0.00  0.00    -0.315 N 
ATOM     22  C   UNL     1       3.956  -0.374   0.336  0.00  0.00    +0.214 C 
ATOM     23  O   UNL     1       3.841   0.137  -0.758  0.00  0.00    -0.276 OA
ATOM     24  H   UNL     1       5.200  -0.653   1.897  0.00  0.00    +0.149 HD
BRANCH  21  25
ATOM     25  C   UNL     1       6.221   0.516   0.449  0.00  0.00    +0.104 C 
BRANCH  25  27
ATOM     26  C   UNL     1       8.562   1.304   0.825  0.00  0.00    +0.005 C 
ATOM     27  C   UNL     1       7.399   0.510   1.425  0.00  0.00    +0.015 C 
ENDBRANCH  25  27
ENDBRANCH  21  25
ENDBRANCH  20  22
ENDBRANCH   1  20
BRANCH   7  28
ATOM     28  C   UNL     1       1.148   5.021  -0.477  0.00  0.00    +0.130 C 
BRANCH  28  29
ATOM     29  C   UNL     1       2.077   6.206  -0.537  0.00  0.00    -0.016 C 
ATOM     30  C   UNL     1       1.989   7.057  -1.528  0.00  0.00    +0.005 C 
ENDBRANCH  28  29
ENDBRANCH   7  28
BRANCH  14  31
ATOM     31  C   UNL     1      -2.159  -2.797   1.468  0.00  0.00    +0.165 C 
BRANCH  31  32
ATOM     32  O   UNL     1      -3.237  -3.674   1.802  0.00  0.00    -0.394 OA
ATOM     33  H   UNL     1      -3.547  -3.585   2.714  0.00  0.00    +0.209 HD
ENDBRANCH  31  32
ENDBRANCH  14  31
TORSDOF 9
