REMARK  Name = ZINC43221765
REMARK  11 active torsions:
REMARK  status: ('A' for Active; 'I' for Inactive)
REMARK    1  A    between atoms: C_1  and  C_2
REMARK    2  A    between atoms: C_2  and  C_3
REMARK    3  A    between atoms: C_3  and  C_5
REMARK    4  A    between atoms: C_3  and  C_6
REMARK    5  A    between atoms: C_6  and  C_36
REMARK    6  A    between atoms: C_11  and  C_14
REMARK    7  A    between atoms: C_16  and  C_22
REMARK    8  A    between atoms: C_17  and  O_21
REMARK    9  A    between atoms: C_18  and  C_20
REMARK   10  A    between atoms: N_25  and  C_28
REMARK   11  A    between atoms: C_31  and  C_35
REMARK                            x       y       z     vdW  Elec       q    Type
REMARK                         _______ _______ _______ _____ _____    ______ ____
ROOT
ATOM      1  C   UNL     1       0.797  -2.023  -1.341  0.00  0.00    +0.051 C 
ATOM      2  C   UNL     1       1.508  -2.443  -2.617  0.00  0.00    +0.086 C 
ATOM      3  C   UNL     1       2.992  -2.373  -2.091  0.00  0.00    +0.077 C 
ATOM      4  C   UNL     1       2.903  -3.118  -0.823  0.00  0.00    -0.027 C 
ATOM      5  N   UNL     1       1.631  -2.559  -0.223  0.00  0.00    +0.396 N 
ATOM      6  C   UNL     1       3.740  -2.375  -3.324  0.00  0.00    +0.229 C 
ATOM      7  O   UNL     1       4.825  -2.875  -3.527  0.00  0.00    -0.275 OA
ATOM      8  N   UNL     1       2.956  -1.687  -4.217  0.00  0.00    -0.210 N 
ATOM      9  C   UNL     1       1.667  -1.501  -3.769  0.00  0.00    +0.229 C 
ATOM     10  O   UNL     1       0.835  -0.735  -4.206  0.00  0.00    -0.275 OA
ATOM     11  H   UNL     1       1.849  -1.819   0.427  0.00  0.00    -0.083 HD
ATOM     12  H   UNL     1       1.131  -3.296   0.253  0.00  0.00    -0.083 HD
ENDROOT
BRANCH   4  13
ATOM     13  C   UNL     1       2.796  -4.599  -1.078  0.00  0.00    -0.060 A 
ATOM     14  C   UNL     1       1.580  -5.152  -1.436  0.00  0.00    +0.009 A 
ATOM     15  C   UNL     1       1.480  -6.510  -1.670  0.00  0.00    -0.009 A 
ATOM     16  C   UNL     1       2.600  -7.319  -1.546  0.00  0.00    +0.123 A 
ATOM     17  C   UNL     1       3.819  -6.761  -1.188  0.00  0.00    -0.009 A 
ATOM     18  C   UNL     1       3.915  -5.402  -0.960  0.00  0.00    +0.009 A 
ATOM     19  C   UNL     1       5.038  -7.637  -1.052  0.00  0.00    +0.047 C 
ATOM     20  C   UNL     1       0.154  -7.112  -2.059  0.00  0.00    +0.047 C 
BRANCH  16  21
ATOM     21  O   UNL     1       2.504  -8.655  -1.775  0.00  0.00    -0.506 OA
ATOM     22  H   UNL     1       2.666  -8.909  -2.694  0.00  0.00    +0.292 HD
ENDBRANCH  16  21
ENDBRANCH   4  13
BRANCH   8  23
ATOM     23  C   UNL     1       3.414  -1.229  -5.460  0.00  0.00    +0.045 A 
ATOM     24  C   UNL     1       2.558  -0.534  -6.304  0.00  0.00    +0.024 A 
ATOM     25  C   UNL     1       3.012  -0.084  -7.528  0.00  0.00    +0.006 A 
ATOM     26  C   UNL     1       4.317  -0.324  -7.915  0.00  0.00    -0.032 A 
ATOM     27  C   UNL     1       5.174  -1.016  -7.076  0.00  0.00    +0.046 A 
ATOM     28  C   UNL     1       4.726  -1.464  -5.847  0.00  0.00    +0.044 A 
ATOM     29 CL   UNL     1       6.812  -1.315  -7.565  0.00  0.00    -0.083 Cl
ATOM     30  C   UNL     1       4.809   0.169  -9.251  0.00  0.00    +0.045 C 
ENDBRANCH   8  23
BRANCH   1  31
ATOM     31  C   UNL     1      -0.586  -2.619  -1.292  0.00  0.00    +0.347 C 
ATOM     32  O   UNL     1      -1.401  -2.339  -2.154  0.00  0.00    -0.248 OA
ATOM     33  O   UNL     1      -0.890  -3.382  -0.390  0.00  0.00    -0.248 OA
ENDBRANCH   1  31
BRANCH   1  34
ATOM     34  C   UNL     1       0.718  -0.497  -1.257  0.00  0.00    -0.014 C 
ATOM     35  C   UNL     1       0.043  -0.093   0.055  0.00  0.00    +0.006 C 
BRANCH  34  37
ATOM     36  C   UNL     1       2.065   1.597  -1.050  0.00  0.00    +0.004 C 
ATOM     37  C   UNL     1       2.130   0.090  -1.306  0.00  0.00    -0.001 C 
ENDBRANCH  34  37
ENDBRANCH   1  34
TORSDOF 6
