REMARK  Name = ZINC09348033
REMARK  8 active torsions:
REMARK  status: ('A' for Active; 'I' for Inactive)
REMARK    1  A    between atoms: C_1  and  O_2
REMARK    2  A    between atoms: O_2  and  C_3
REMARK    3  A    between atoms: C_8  and  O_9
REMARK    4  A    between atoms: O_9  and  C_10
REMARK    5  A    between atoms: N_15  and  C_18
REMARK    6  A    between atoms: C_18  and  C_19
REMARK    7  A    between atoms: C_22  and  S_25
REMARK    8  A    between atoms: S_25  and  N_28
REMARK                            x       y       z     vdW  Elec       q    Type
REMARK                         _______ _______ _______ _____ _____    ______ ____
ROOT
ATOM      1  C   UNL     1       4.820   0.189  -0.042  0.00  0.00    +0.162 A 
ATOM      2  C   UNL     1       3.665  -0.568  -0.035  0.00  0.00    +0.064 A 
ATOM      3  C   UNL     1       2.425   0.071  -0.021  0.00  0.00    +0.067 A 
ATOM      4  C   UNL     1       2.354   1.476  -0.012  0.00  0.00    +0.057 A 
ATOM      5  C   UNL     1       3.519   2.223  -0.019  0.00  0.00    +0.075 A 
ATOM      6  C   UNL     1       4.748   1.583  -0.034  0.00  0.00    +0.163 A 
ATOM      7  N   UNL     1       1.104   2.081   0.003  0.00  0.00    -0.334 N 
ATOM      8  H   UNL     1       1.024   3.178   0.009  0.00  0.00    +0.168 HD
ATOM      9  C   UNL     1      -0.016   1.338   0.009  0.00  0.00    +0.161 A 
ATOM     10  S   UNL     1      -1.530   2.137   0.021  0.00  0.00    -0.013 S 
ATOM     11  N   UNL     1       0.002  -0.004   0.002  0.00  0.00    -0.284 N 
ATOM     12  C   UNL     1       1.165  -0.690  -0.013  0.00  0.00    +0.263 A 
ATOM     13  O   UNL     1       1.171  -1.907  -0.019  0.00  0.00    -0.267 OA
ENDROOT
BRANCH   1  15
ATOM     14  C   UNL     1       6.036  -1.856  -0.063  0.00  0.00    +0.277 C 
ATOM     15  O   UNL     1       6.033  -0.427  -0.056  0.00  0.00    -0.491 OA
ENDBRANCH   1  15
BRANCH   6  16
ATOM     16  O   UNL     1       5.891   2.317  -0.040  0.00  0.00    -0.491 OA
ATOM     17  C   UNL     1       5.748   3.739  -0.031  0.00  0.00    +0.277 C 
ENDBRANCH   6  16
BRANCH  11  18
ATOM     18  C   UNL     1      -1.265  -0.739   0.010  0.00  0.00    +0.162 C 
BRANCH  18  19
ATOM     19  C   UNL     1      -1.712  -0.984  -1.409  0.00  0.00    -0.027 A 
ATOM     20  C   UNL     1      -2.523  -0.063  -2.046  0.00  0.00    +0.007 A 
ATOM     21  C   UNL     1      -2.930  -0.285  -3.348  0.00  0.00    +0.029 A 
ATOM     22  C   UNL     1      -2.534  -1.432  -4.010  0.00  0.00    +0.105 A 
ATOM     23  C   UNL     1      -1.728  -2.356  -3.371  0.00  0.00    +0.029 A 
ATOM     24  C   UNL     1      -1.317  -2.131  -2.070  0.00  0.00    +0.007 A 
BRANCH  22  25
ATOM     25  S   UNL     1      -3.056  -1.718  -5.668  0.00  0.00    +0.056 S 
ATOM     26  O   UNL     1      -3.355  -0.445  -6.225  0.00  0.00    -0.153 OA
ATOM     27  O   UNL     1      -2.103  -2.598  -6.248  0.00  0.00    -0.153 OA
BRANCH  25  28
ATOM     28  N   UNL     1      -4.486  -2.549  -5.595  0.00  0.00    -0.204 NA
ATOM     29  H   UNL     1      -4.847  -2.748  -6.615  0.00  0.00    +0.144 HD
ATOM     30  H   UNL     1      -5.232  -1.950  -5.053  0.00  0.00    +0.144 HD
ENDBRANCH  25  28
ENDBRANCH  22  25
ENDBRANCH  18  19
ENDBRANCH  11  18
TORSDOF 6
