REMARK  Name = ZINC06910486
REMARK  6 active torsions:
REMARK  status: ('A' for Active; 'I' for Inactive)
REMARK    1  A    between atoms: C_1  and  C_2
REMARK    2  A    between atoms: C_2  and  N_3
REMARK    3  A    between atoms: N_3  and  C_4
REMARK    4  A    between atoms: N_3  and  C_6
REMARK    5  A    between atoms: C_4  and  C_5
REMARK    6  A    between atoms: C_9  and  C_12
REMARK                            x       y       z     vdW  Elec       q    Type
REMARK                         _______ _______ _______ _____ _____    ______ ____
ROOT
ATOM      1  C   UNL     1      -1.302  -6.165   0.447  0.00  0.00    +0.091 C 
ATOM      2  C   UNL     1      -0.548  -6.535   1.703  0.00  0.00    +0.046 A 
ATOM      3  C   UNL     1       0.772  -6.143   1.908  0.00  0.00    +0.127 A 
ATOM      4  N   UNL     1       1.389  -6.497   3.035  0.00  0.00    -0.208 NA
ATOM      5  C   UNL     1       0.764  -7.217   3.961  0.00  0.00    +0.180 A 
ATOM      6  S   UNL     1       1.606  -7.644   5.390  0.00  0.00    -0.011 S 
ATOM      7  N   UNL     1      -0.510  -7.620   3.809  0.00  0.00    -0.318 N 
ATOM      8  H   UNL     1      -0.940  -8.145   4.503  0.00  0.00    +0.169 HD
ATOM      9  C   UNL     1      -1.205  -7.286   2.666  0.00  0.00    +0.140 A 
ATOM     10  N   UNL     1      -2.472  -7.678   2.501  0.00  0.00    -0.234 NA
ATOM     11  C   UNL     1      -3.222  -7.416   1.459  0.00  0.00    +0.051 C 
ATOM     12  C   UNL     1      -2.734  -6.666   0.378  0.00  0.00    +0.028 C 
ATOM     13  C   UNL     1      -3.490  -6.388  -0.696  0.00  0.00    +0.162 C 
ATOM     14  O   UNL     1      -2.965  -5.665  -1.705  0.00  0.00    -0.292 OA
ATOM     15  C   UNL     1      -4.914  -6.870  -0.796  0.00  0.00    +0.080 C 
ATOM     16  C   UNL     1      -5.060  -8.178  -0.013  0.00  0.00    +0.014 C 
ATOM     17  C   UNL     1      -4.641  -7.934   1.429  0.00  0.00    +0.056 C 
ATOM     18  N   UNL     1       1.434  -5.396   0.956  0.00  0.00    -0.343 N 
ATOM     19  H   UNL     1       0.980  -5.142   0.138  0.00  0.00    +0.144 HD
ATOM     20  H   UNL     1       2.354  -5.126   1.104  0.00  0.00    +0.144 HD
ENDROOT
BRANCH   1  24
ATOM     21  C   UNL     1      -1.358  -1.906   0.120  0.00  0.00    +0.013 A 
ATOM     22  C   UNL     1      -0.724  -2.666  -0.846  0.00  0.00    +0.022 A 
ATOM     23  C   UNL     1      -0.706  -4.044  -0.740  0.00  0.00    +0.006 A 
ATOM     24  C   UNL     1      -1.321  -4.663   0.332  0.00  0.00    -0.035 A 
ATOM     25  C   UNL     1      -1.954  -3.903   1.298  0.00  0.00    +0.006 A 
ATOM     26  C   UNL     1      -1.968  -2.525   1.194  0.00  0.00    +0.022 A 
BRANCH  21  27
ATOM     27  N   UNL     1      -1.376  -0.512   0.012  0.00  0.00    -0.394 NA
ATOM     28  H   UNL     1      -1.873  -0.121   0.799  0.00  0.00    +0.126 HD
BRANCH  27  30
ATOM     29  C   UNL     1      -0.019   1.526   0.010  0.00  0.00    +0.022 C 
ATOM     30  C   UNL     1       0.002  -0.004   0.002  0.00  0.00    +0.081 C 
ENDBRANCH  27  30
BRANCH  27  31
ATOM     31  C   UNL     1      -2.050  -0.126  -1.234  0.00  0.00    +0.081 C 
ATOM     32  C   UNL     1      -3.520  -0.547  -1.171  0.00  0.00    +0.022 C 
ENDBRANCH  27  31
ENDBRANCH  21  27
ENDBRANCH   1  24
TORSDOF 4
