REMARK  Name = ZINC28640896
REMARK  8 active torsions:
REMARK  status: ('A' for Active; 'I' for Inactive)
REMARK    1  A    between atoms: C_1  and  C_2
REMARK    2  A    between atoms: C_4  and  C_18
REMARK    3  A    between atoms: C_5  and  C_17
REMARK    4  A    between atoms: N_6  and  C_7
REMARK    5  A    between atoms: C_11  and  C_13
REMARK    6  A    between atoms: N_19  and  N_20
REMARK    7  A    between atoms: C_21  and  C_23
REMARK    8  A    between atoms: C_28  and  N_29
REMARK                            x       y       z     vdW  Elec       q    Type
REMARK                         _______ _______ _______ _____ _____    ______ ____
ROOT
ATOM      1  C   UNL     1       2.312   5.610  -1.161  0.00  0.00    +0.064 C 
ATOM      2  C   UNL     1       1.181   6.097  -0.292  0.00  0.00    +0.022 A 
ATOM      3  C   UNL     1       0.902   7.386  -0.021  0.00  0.00    +0.032 A 
ATOM      4  C   UNL     1      -0.272   7.384   0.857  0.00  0.00    +0.016 A 
ATOM      5  C   UNL     1      -0.610   6.073   1.041  0.00  0.00    +0.030 A 
ATOM      6  N   UNL     1       0.273   5.304   0.349  0.00  0.00    -0.317 N 
ATOM      7  C   UNL     1      -1.762   5.567   1.870  0.00  0.00    +0.064 C 
ENDROOT
BRANCH   6   8
ATOM      8  C   UNL     1       0.251   3.904   0.297  0.00  0.00    +0.047 A 
ATOM      9  C   UNL     1      -0.819   3.246  -0.295  0.00  0.00    +0.026 A 
ATOM     10  C   UNL     1      -0.835   1.866  -0.349  0.00  0.00    +0.003 A 
ATOM     11  C   UNL     1       0.207   1.139   0.196  0.00  0.00    +0.012 A 
ATOM     12  C   UNL     1       1.274   1.791   0.787  0.00  0.00    +0.057 A 
ATOM     13  C   UNL     1       1.299   3.171   0.839  0.00  0.00    +0.038 A 
BRANCH  12  14
ATOM     14  C   UNL     1       2.411   0.995   1.374  0.00  0.00    +0.417 C 
ATOM     15  F   UNL     1       2.161  -0.371   1.203  0.00  0.00    -0.166 F 
ATOM     16  F   UNL     1       3.603   1.336   0.727  0.00  0.00    -0.166 F 
ATOM     17  F   UNL     1       2.523   1.280   2.739  0.00  0.00    -0.166 F 
ENDBRANCH  12  14
ENDBRANCH   6   8
BRANCH   4  18
ATOM     18  C   UNL     1      -0.954   8.561   1.424  0.00  0.00    +0.140 C 
ATOM     19  N   UNL     1      -0.660   9.751   0.995  0.00  0.00    -0.187 NA
BRANCH  19  20
ATOM     20  N   UNL     1      -0.039   9.912  -0.251  0.00  0.00    -0.203 N 
ATOM     21  C   UNL     1       0.387  11.131  -0.638  0.00  0.00    +0.265 C 
ATOM     22  O   UNL     1       0.153  12.105   0.052  0.00  0.00    -0.268 OA
ATOM     23  H   UNL     1       0.101   9.045  -0.912  0.00  0.00    +0.178 HD
BRANCH  21  24
ATOM     24  C   UNL     1       1.136  11.284  -1.898  0.00  0.00    +0.059 A 
ATOM     25  C   UNL     1       1.308  10.190  -2.751  0.00  0.00    +0.015 A 
ATOM     26  C   UNL     1       2.005  10.341  -3.929  0.00  0.00    +0.001 A 
ATOM     27  C   UNL     1       2.547  11.570  -4.270  0.00  0.00    +0.002 A 
ATOM     28  C   UNL     1       2.391  12.658  -3.437  0.00  0.00    +0.023 A 
ATOM     29  C   UNL     1       1.687  12.527  -2.246  0.00  0.00    +0.037 A 
BRANCH  29  30
ATOM     30  N   UNL     1       1.529  13.621  -1.404  0.00  0.00    -0.357 N 
ATOM     31  H   UNL     1       1.962  14.594  -1.680  0.00  0.00    +0.142 HD
ATOM     32  H   UNL     1       0.971  13.514  -0.462  0.00  0.00    +0.142 HD
ENDBRANCH  29  30
ENDBRANCH  21  24
ENDBRANCH  19  20
ENDBRANCH   4  18
TORSDOF 6
