REMARK  Name = ZINC09216490
REMARK  1 active torsions:
REMARK  status: ('A' for Active; 'I' for Inactive)
REMARK    1  A    between atoms: C_6  and  N_7
REMARK                            x       y       z     vdW  Elec       q    Type
REMARK                         _______ _______ _______ _____ _____    ______ ____
ROOT
ATOM      1  N   UNL     1      -1.202  -0.723   0.010  0.00  0.00    -0.210 N 
ATOM      2  C   UNL     1      -2.397  -0.132   0.123  0.00  0.00    +0.228 C 
ATOM      3  O   UNL     1      -2.581   1.062   0.230  0.00  0.00    -0.275 OA
ATOM      4  C   UNL     1      -3.483  -1.183   0.096  0.00  0.00    +0.074 C 
ATOM      5  C   UNL     1      -4.151  -1.265   1.481  0.00  0.00    -0.054 C 
ATOM      6  C   UNL     1      -3.958   0.072   2.219  0.00  0.00    -0.016 C 
ATOM      7  C   UNL     1      -2.649  -0.083   3.018  0.00  0.00    -0.020 C 
ATOM      8  C   UNL     1      -2.160  -1.513   2.690  0.00  0.00    -0.076 C 
ATOM      9  C   UNL     1      -2.968  -3.276   1.246  0.00  0.00    +0.053 C 
ATOM     10  C   UNL     1      -2.691  -2.512  -0.053  0.00  0.00    +0.089 C 
ATOM     11  C   UNL     1      -1.250  -2.055  -0.100  0.00  0.00    +0.229 C 
ATOM     12  O   UNL     1      -0.288  -2.784  -0.217  0.00  0.00    -0.275 OA
ATOM     13  C   UNL     1      -1.761  -4.053   1.692  0.00  0.00    -0.026 A 
ATOM     14  C   UNL     1      -0.473  -3.695   2.022  0.00  0.00    +0.024 A 
ATOM     15  C   UNL     1       0.439  -4.663   2.405  0.00  0.00    +0.041 A 
ATOM     16  C   UNL     1       0.052  -5.992   2.454  0.00  0.00    +0.022 A 
ATOM     17  C   UNL     1      -1.237  -6.354   2.123  0.00  0.00    +0.025 A 
ATOM     18  C   UNL     1      -2.160  -5.386   1.736  0.00  0.00    +0.036 A 
ATOM     19  N   UNL     1      -3.501  -5.500   1.360  0.00  0.00    -0.286 N 
ATOM     20  C   UNL     1      -4.047  -4.307   1.057  0.00  0.00    +0.212 C 
ATOM     21  O   UNL     1      -5.189  -4.103   0.702  0.00  0.00    -0.277 OA
ATOM     22 CL   UNL     1       2.063  -4.214   2.822  0.00  0.00    -0.084 Cl
ATOM     23  H   UNL     1      -3.982  -6.342   1.320  0.00  0.00    +0.155 HD
ATOM     24  N   UNL     1      -3.351  -2.225   2.197  0.00  0.00    +0.395 N 
ATOM     25  H   UNL     1      -3.875  -2.629   2.982  0.00  0.00    -0.079 HD
ENDROOT
BRANCH   1  31
ATOM     26  C   UNL     1       0.893  -0.129   1.059  0.00  0.00    +0.025 A 
ATOM     27  C   UNL     1       2.079   0.580   1.049  0.00  0.00    +0.022 A 
ATOM     28  C   UNL     1       2.378   1.413  -0.014  0.00  0.00    +0.041 A 
ATOM     29  C   UNL     1       1.492   1.540  -1.069  0.00  0.00    +0.022 A 
ATOM     30  C   UNL     1       0.305   0.833  -1.063  0.00  0.00    +0.025 A 
ATOM     31  C   UNL     1       0.002  -0.004   0.002  0.00  0.00    +0.044 A 
ATOM     32 CL   UNL     1       3.869   2.303  -0.025  0.00  0.00    -0.084 Cl
ENDBRANCH   1  31
TORSDOF 1
