REMARK  Name = ZINC20572235
REMARK  9 active torsions:
REMARK  status: ('A' for Active; 'I' for Inactive)
REMARK    1  A    between atoms: C_1  and  C_2
REMARK    2  A    between atoms: C_9  and  N_15
REMARK    3  A    between atoms: C_10  and  C_11
REMARK    4  A    between atoms: C_11  and  O_13
REMARK    5  A    between atoms: O_13  and  C_14
REMARK    6  A    between atoms: N_15  and  C_16
REMARK    7  A    between atoms: C_16  and  N_18
REMARK    8  A    between atoms: N_18  and  N_19
REMARK    9  A    between atoms: C_20  and  C_22
REMARK                            x       y       z     vdW  Elec       q    Type
REMARK                         _______ _______ _______ _____ _____    ______ ____
ROOT
ATOM      1  C   UNL     1       3.750  -3.124  -0.670  0.00  0.00    +0.151 C 
ATOM      2  S   UNL     1       3.570  -4.813  -0.456  0.00  0.00    -0.017 S 
ENDROOT
BRANCH   1   3
ATOM      3  N   UNL     1       2.825  -2.279  -0.173  0.00  0.00    -0.290 N 
ATOM      4  H   UNL     1       2.940  -1.194  -0.310  0.00  0.00    +0.154 HD
BRANCH   3  12
ATOM      5  C   UNL     1      -3.170  -5.494   3.689  0.00  0.00    +0.008 C 
ATOM      6  C   UNL     1      -2.051  -4.526   3.297  0.00  0.00    -0.009 C 
ATOM      7  C   UNL     1      -2.649  -3.301   2.599  0.00  0.00    +0.008 C 
ATOM      8  C   UNL     1      -1.575  -2.225   2.429  0.00  0.00    +0.037 C 
ATOM      9  C   UNL     1      -0.360  -2.846   1.753  0.00  0.00    -0.021 A 
ATOM     10  C   UNL     1      -0.184  -4.185   1.734  0.00  0.00    -0.004 A 
ATOM     11  S   UNL     1       1.333  -4.430   0.855  0.00  0.00    -0.077 S 
ATOM     12  C   UNL     1       1.728  -2.778   0.512  0.00  0.00    +0.086 A 
ATOM     13  C   UNL     1       0.680  -2.075   1.092  0.00  0.00    +0.091 A 
ATOM     14  C   UNL     1      -1.083  -5.223   2.330  0.00  0.00    +0.046 C 
BRANCH  13  15
ATOM     15  C   UNL     1       0.621  -0.614   1.034  0.00  0.00    +0.342 C 
ATOM     16  O   UNL     1       1.131   0.051   1.916  0.00  0.00    -0.245 OA
BRANCH  15  17
ATOM     17  O   UNL     1       0.002  -0.004   0.002  0.00  0.00    -0.464 OA
ATOM     18  C   UNL     1      -0.018   1.448   0.010  0.00  0.00    +0.280 C 
ENDBRANCH  15  17
ENDBRANCH  13  15
ENDBRANCH   3  12
ENDBRANCH   1   3
BRANCH   1  19
ATOM     19  N   UNL     1       4.816  -2.639  -1.336  0.00  0.00    -0.245 N 
ATOM     20  H   UNL     1       5.571  -3.328  -1.742  0.00  0.00    +0.172 HD
BRANCH  19  21
ATOM     21  N   UNL     1       4.963  -1.256  -1.511  0.00  0.00    -0.231 N 
ATOM     22  C   UNL     1       6.030  -0.771  -2.177  0.00  0.00    +0.261 C 
ATOM     23  O   UNL     1       6.865  -1.534  -2.626  0.00  0.00    -0.269 OA
ATOM     24  H   UNL     1       4.208  -0.567  -1.105  0.00  0.00    +0.173 HD
BRANCH  22  25
ATOM     25  C   UNL     1       6.184   0.677  -2.360  0.00  0.00    +0.053 A 
ATOM     26  C   UNL     1       5.261   1.546  -1.865  0.00  0.00    +0.059 A 
ATOM     27  S   UNL     1       5.854   3.108  -2.317  0.00  0.00    -0.096 S 
ATOM     28  C   UNL     1       7.333   2.630  -3.169  0.00  0.00    +0.020 A 
ATOM     29  C   UNL     1       7.339   1.226  -3.076  0.00  0.00    +0.001 A 
ATOM     30  C   UNL     1       8.416   0.548  -3.683  0.00  0.00    +0.010 A 
ATOM     31  C   UNL     1       9.410   1.247  -4.319  0.00  0.00    +0.001 A 
ATOM     32  C   UNL     1       9.383   2.632  -4.391  0.00  0.00    +0.001 A 
ATOM     33  C   UNL     1       8.337   3.324  -3.811  0.00  0.00    +0.015 A 
ENDBRANCH  22  25
ENDBRANCH  19  21
ENDBRANCH   1  19
TORSDOF 7
