REMARK  Name = ZINC45631951
REMARK  9 active torsions:
REMARK  status: ('A' for Active; 'I' for Inactive)
REMARK    1  A    between atoms: C_1  and  C_2
REMARK    2  A    between atoms: C_2  and  O_3
REMARK    3  A    between atoms: O_3  and  C_4
REMARK    4  A    between atoms: C_4  and  C_6
REMARK    5  A    between atoms: C_7  and  C_20
REMARK    6  A    between atoms: C_12  and  C_14
REMARK    7  A    between atoms: C_20  and  N_21
REMARK    8  A    between atoms: C_24  and  C_28
REMARK    9  A    between atoms: C_24  and  C_29
REMARK                            x       y       z     vdW  Elec       q    Type
REMARK                         _______ _______ _______ _____ _____    ______ ____
ROOT
ATOM      1  C   UNL     1       1.344  -2.337  -2.522  0.00  0.00    +0.080 C 
ATOM      2  C   UNL     1       1.628  -3.654  -2.615  0.00  0.00    +0.042 C 
ATOM      3  N   UNL     1       2.338  -4.149  -3.671  0.00  0.00    -0.271 N 
ATOM      4  C   UNL     1       2.800  -3.393  -4.675  0.00  0.00    +0.304 C 
ATOM      5  O   UNL     1       3.424  -3.925  -5.572  0.00  0.00    -0.252 OA
ATOM      6  N   UNL     1       2.597  -2.062  -4.722  0.00  0.00    -0.288 N 
ATOM      7  C   UNL     1       1.835  -1.430  -3.631  0.00  0.00    +0.144 C 
ATOM      8  H   UNL     1       2.518  -5.102  -3.695  0.00  0.00    +0.156 HD
ATOM      9  H   UNL     1       2.942  -1.532  -5.458  0.00  0.00    +0.151 HD
ENDROOT
BRANCH   7  10
ATOM     10  C   UNL     1       2.711  -0.371  -3.012  0.00  0.00    -0.022 A 
ATOM     11  C   UNL     1       4.025  -0.660  -2.694  0.00  0.00    +0.006 A 
ATOM     12  C   UNL     1       4.828   0.311  -2.126  0.00  0.00    +0.000 A 
ATOM     13  C   UNL     1       4.317   1.571  -1.876  0.00  0.00    +0.000 A 
ATOM     14  C   UNL     1       3.004   1.860  -2.195  0.00  0.00    +0.000 A 
ATOM     15  C   UNL     1       2.202   0.890  -2.767  0.00  0.00    +0.006 A 
ENDBRANCH   7  10
BRANCH   1  16
ATOM     16  C   UNL     1       0.608  -1.823  -1.429  0.00  0.00    +0.339 C 
ATOM     17  O   UNL     1      -0.571  -1.552  -1.563  0.00  0.00    -0.245 OA
BRANCH  16  18
ATOM     18  O   UNL     1       1.212  -1.634  -0.237  0.00  0.00    -0.462 OA
BRANCH  18  20
ATOM     19  C   UNL     1       1.260  -0.967   2.085  0.00  0.00    +0.048 C 
ATOM     20  C   UNL     1       0.408  -1.112   0.823  0.00  0.00    +0.229 C 
ENDBRANCH  18  20
ENDBRANCH  16  18
ENDBRANCH   1  16
BRANCH   2  21
ATOM     21  C   UNL     1       1.153  -4.593  -1.536  0.00  0.00    +0.169 C 
BRANCH  21  22
ATOM     22  N   UNL     1       0.185  -5.537  -2.100  0.00  0.00    -0.218 N 
ATOM     23  C   UNL     1      -1.144  -5.319  -2.150  0.00  0.00    +0.251 C 
ATOM     24  O   UNL     1      -1.742  -4.342  -1.751  0.00  0.00    -0.272 OA
ATOM     25  C   UNL     1      -1.737  -6.548  -2.809  0.00  0.00    +0.138 C 
ATOM     26  N   UNL     1      -0.563  -7.396  -3.080  0.00  0.00    -0.281 N 
ATOM     27  C   UNL     1       0.511  -6.718  -2.635  0.00  0.00    +0.310 C 
ATOM     28  O   UNL     1       1.651  -7.135  -2.709  0.00  0.00    -0.252 OA
ATOM     29  C   UNL     1      -2.442  -6.173  -4.114  0.00  0.00    +0.047 C 
ATOM     30  H   UNL     1      -0.564  -8.270  -3.499  0.00  0.00    +0.152 HD
BRANCH  25  31
ATOM     31  C   UNL     1      -2.689  -7.245  -1.872  0.00  0.00    +0.022 A 
ATOM     32  C   UNL     1      -2.449  -8.551  -1.488  0.00  0.00    +0.047 A 
ATOM     33  C   UNL     1      -3.324  -9.191  -0.627  0.00  0.00    +0.124 A 
ATOM     34  C   UNL     1      -4.439  -8.523  -0.150  0.00  0.00    +0.041 A 
ATOM     35  C   UNL     1      -4.679  -7.218  -0.533  0.00  0.00    +0.041 A 
ATOM     36  C   UNL     1      -3.801  -6.576  -1.391  0.00  0.00    +0.129 A 
ATOM     37  F   UNL     1      -4.033  -5.298  -1.762  0.00  0.00    -0.205 F 
ATOM     38  F   UNL     1      -3.089 -10.468  -0.252  0.00  0.00    -0.205 F 
ENDBRANCH  25  31
ENDBRANCH  21  22
ENDBRANCH   2  21
TORSDOF 7
