REMARK  Name = ZINC13978525
REMARK  9 active torsions:
REMARK  status: ('A' for Active; 'I' for Inactive)
REMARK    1  A    between atoms: C_1  and  C_2
REMARK    2  A    between atoms: C_5  and  C_7
REMARK    3  A    between atoms: C_8  and  C_9
REMARK    4  A    between atoms: N_11  and  C_12
REMARK    5  A    between atoms: C_12  and  N_14
REMARK    6  A    between atoms: N_14  and  N_15
REMARK    7  A    between atoms: C_16  and  C_18
REMARK    8  A    between atoms: C_21  and  N_24
REMARK    9  A    between atoms: C_25  and  C_27
REMARK                            x       y       z     vdW  Elec       q    Type
REMARK                         _______ _______ _______ _____ _____    ______ ____
ROOT
ATOM      1  N   UNL     1       1.496  -4.851  -0.040  0.00  0.00    -0.231 N 
ATOM      2  C   UNL     1       0.299  -4.242   0.071  0.00  0.00    +0.260 C 
ATOM      3  O   UNL     1      -0.713  -4.907   0.185  0.00  0.00    -0.269 OA
ATOM      4  H   UNL     1       2.303  -4.321  -0.132  0.00  0.00    +0.173 HD
ENDROOT
BRANCH   2   5
ATOM      5  C   UNL     1       0.216  -2.768   0.055  0.00  0.00    +0.038 A 
ATOM      6  C   UNL     1      -1.024  -2.135   0.170  0.00  0.00    +0.015 A 
ATOM      7  C   UNL     1      -1.098  -0.761   0.155  0.00  0.00    +0.024 A 
ATOM      8  C   UNL     1       0.061  -0.002   0.025  0.00  0.00    +0.033 A 
ATOM      9  C   UNL     1       1.297  -0.629  -0.096  0.00  0.00    +0.024 A 
ATOM     10  C   UNL     1       1.378  -2.003  -0.076  0.00  0.00    +0.015 A 
BRANCH   8  11
ATOM     11  N   UNL     1      -0.017   1.390   0.010  0.00  0.00    -0.285 N 
ATOM     12  C   UNL     1       0.962   2.126   0.573  0.00  0.00    +0.220 C 
ATOM     13  O   UNL     1       1.949   1.582   1.020  0.00  0.00    -0.275 OA
ATOM     14  H   UNL     1      -0.773   1.829  -0.410  0.00  0.00    +0.155 HD
BRANCH  12  15
ATOM     15  C   UNL     1       0.828   3.625   0.649  0.00  0.00    +0.075 C 
ATOM     16  C   UNL     1       0.702   4.198  -0.764  0.00  0.00    +0.013 C 
ATOM     17  C   UNL     1       0.567   5.720  -0.687  0.00  0.00    +0.001 C 
ATOM     18  C   UNL     1       1.804   6.309  -0.006  0.00  0.00    +0.000 C 
ATOM     19  C   UNL     1       1.930   5.736   1.407  0.00  0.00    +0.001 C 
ATOM     20  C   UNL     1       2.066   4.214   1.330  0.00  0.00    +0.013 C 
ENDBRANCH  12  15
ENDBRANCH   8  11
ENDBRANCH   2   5
BRANCH   1  21
ATOM     21  N   UNL     1       1.574  -6.250  -0.025  0.00  0.00    -0.245 N 
ATOM     22  H   UNL     1       0.767  -6.780   0.067  0.00  0.00    +0.172 HD
BRANCH  21  23
ATOM     23  C   UNL     1       2.771  -6.859  -0.136  0.00  0.00    +0.153 C 
ATOM     24  S   UNL     1       2.867  -8.568  -0.117  0.00  0.00    -0.017 S 
BRANCH  23  27
ATOM     25  C   UNL     1       5.090  -6.732  -0.374  0.00  0.00    +0.242 C 
ATOM     26  O   UNL     1       5.158  -7.947  -0.361  0.00  0.00    -0.270 OA
ATOM     27  N   UNL     1       3.893  -6.123  -0.263  0.00  0.00    -0.263 N 
ATOM     28  H   UNL     1       3.839  -5.154  -0.274  0.00  0.00    +0.157 HD
BRANCH  25  30
ATOM     29  C   UNL     1       7.472  -6.572  -0.620  0.00  0.00    +0.051 C 
ATOM     30  C   UNL     1       6.267  -5.959  -0.507  0.00  0.00    +0.071 C 
BRANCH  29  35
ATOM     31  C   UNL     1      10.482  -2.647  -0.990  0.00  0.00    +0.086 C 
ATOM     32  C   UNL     1       9.996  -4.072  -0.918  0.00  0.00    +0.103 A 
ATOM     33  C   UNL     1      10.778  -5.172  -0.979  0.00  0.00    +0.045 A 
ATOM     34  C   UNL     1       9.935  -6.288  -0.869  0.00  0.00    +0.049 A 
ATOM     35  C   UNL     1       8.650  -5.799  -0.752  0.00  0.00    +0.128 A 
ATOM     36  O   UNL     1       8.718  -4.452  -0.782  0.00  0.00    -0.461 OA
ENDBRANCH  29  35
ENDBRANCH  25  30
ENDBRANCH  23  27
ENDBRANCH  21  23
ENDBRANCH   1  21
TORSDOF 8
