REMARK  Name = ZINC01768882
REMARK  7 active torsions:
REMARK  status: ('A' for Active; 'I' for Inactive)
REMARK    1  A    between atoms: C_8  and  C_13
REMARK    2  A    between atoms: C_13  and  C_14
REMARK    3  A    between atoms: N_16  and  C_17
REMARK    4  A    between atoms: C_22  and  S_23
REMARK    5  A    between atoms: S_23  and  C_24
REMARK    6  A    between atoms: C_24  and  C_25
REMARK    7  A    between atoms: C_25  and  C_26
REMARK                            x       y       z     vdW  Elec       q    Type
REMARK                         _______ _______ _______ _____ _____    ______ ____
ROOT
ATOM      1  C   UNL     1      -1.641   7.884   2.557  0.00  0.00    +0.219 C 
ATOM      2  O   UNL     1      -2.223   8.163   3.584  0.00  0.00    -0.275 OA
ATOM      3  N   UNL     1      -1.351   6.598   2.275  0.00  0.00    -0.285 N 
ATOM      4  H   UNL     1      -0.829   6.380   1.488  0.00  0.00    +0.155 HD
ENDROOT
BRANCH   3   5
ATOM      5  C   UNL     1      -1.805   5.576   3.120  0.00  0.00    +0.047 A 
ATOM      6  C   UNL     1      -1.885   5.790   4.488  0.00  0.00    +0.024 A 
ATOM      7  C   UNL     1      -2.333   4.780   5.320  0.00  0.00    +0.002 A 
ATOM      8  C   UNL     1      -2.702   3.556   4.793  0.00  0.00    +0.001 A 
ATOM      9  C   UNL     1      -2.631   3.336   3.430  0.00  0.00    +0.017 A 
ATOM     10  C   UNL     1      -2.177   4.341   2.588  0.00  0.00    +0.035 A 
BRANCH  10  11
ATOM     11  S   UNL     1      -2.078   4.062   0.851  0.00  0.00    -0.044 S 
BRANCH  11  12
ATOM     12  C   UNL     1      -2.654   2.353   0.649  0.00  0.00    +0.370 C 
ATOM     13  F   UNL     1      -3.964   2.243   1.126  0.00  0.00    -0.186 F 
ATOM     14  F   UNL     1      -1.820   1.492   1.370  0.00  0.00    -0.186 F 
BRANCH  12  15
ATOM     15  C   UNL     1      -2.618   1.976  -0.834  0.00  0.00    +0.413 C 
ATOM     16  F   UNL     1      -1.308   2.086  -1.312  0.00  0.00    -0.188 F 
ATOM     17  F   UNL     1      -3.451   2.837  -1.555  0.00  0.00    -0.188 F 
BRANCH  15  18
ATOM     18  C   UNL     1      -3.103   0.535  -1.005  0.00  0.00    +0.461 C 
ATOM     19  F   UNL     1      -2.270  -0.327  -0.284  0.00  0.00    -0.165 F 
ATOM     20  F   UNL     1      -4.413   0.424  -0.527  0.00  0.00    -0.165 F 
ATOM     21  F   UNL     1      -3.071   0.190  -2.360  0.00  0.00    -0.165 F 
ENDBRANCH  15  18
ENDBRANCH  12  15
ENDBRANCH  11  12
ENDBRANCH  10  11
ENDBRANCH   3   5
BRANCH   1  22
ATOM     22  C   UNL     1      -1.241   8.974   1.597  0.00  0.00    +0.127 C 
BRANCH  22  30
ATOM     23  C   UNL     1      -5.795  10.413  -0.363  0.00  0.00    +0.002 A 
ATOM     24  C   UNL     1      -5.185  11.167  -1.349  0.00  0.00    +0.002 A 
ATOM     25  C   UNL     1      -3.904  11.654  -1.165  0.00  0.00    +0.025 A 
ATOM     26  C   UNL     1      -3.227  11.387   0.014  0.00  0.00    +0.055 A 
ATOM     27  C   UNL     1      -3.847  10.633   1.011  0.00  0.00    +0.049 A 
ATOM     28  C   UNL     1      -5.128  10.145   0.819  0.00  0.00    +0.025 A 
ATOM     29  N   UNL     1      -3.152  10.383   2.203  0.00  0.00    -0.331 N 
ATOM     30  C   UNL     1      -1.684  10.330   2.151  0.00  0.00    +0.166 C 
ATOM     31  C   UNL     1      -1.182  11.431   1.251  0.00  0.00    +0.238 C 
ATOM     32  O   UNL     1      -0.103  11.940   1.471  0.00  0.00    -0.273 OA
ATOM     33  N   UNL     1      -1.921  11.854   0.207  0.00  0.00    -0.282 N 
ATOM     34  H   UNL     1      -3.627  10.249   3.038  0.00  0.00    +0.147 HD
ATOM     35  H   UNL     1      -1.544  12.492  -0.418  0.00  0.00    +0.155 HD
ENDBRANCH  22  30
ENDBRANCH   1  22
TORSDOF 7
