REMARK  Name = ZINC01508575
REMARK  7 active torsions:
REMARK  status: ('A' for Active; 'I' for Inactive)
REMARK    1  A    between atoms: C_1  and  O_2
REMARK    2  A    between atoms: O_2  and  C_3
REMARK    3  A    between atoms: C_6  and  N_10
REMARK    4  A    between atoms: C_7  and  N_9
REMARK    5  A    between atoms: C_16  and  O_21
REMARK    6  A    between atoms: O_21  and  C_22
REMARK    7  A    between atoms: C_25  and  N_28
REMARK                            x       y       z     vdW  Elec       q    Type
REMARK                         _______ _______ _______ _____ _____    ______ ____
ROOT
ATOM      1  N   UNL     1      -3.388   2.345   0.003  0.00  0.00    -0.201 N 
ATOM      2  C   UNL     1      -2.597   1.258   0.058  0.00  0.00    +0.258 C 
ATOM      3  O   UNL     1      -2.978   0.106   0.103  0.00  0.00    -0.269 OA
ATOM      4  C   UNL     1      -1.188   1.699   0.049  0.00  0.00    +0.050 A 
ATOM      5  C   UNL     1       0.032   1.040   0.096  0.00  0.00    +0.017 A 
ATOM      6  C   UNL     1       1.208   1.769   0.078  0.00  0.00    +0.047 A 
ATOM      7  C   UNL     1       1.175   3.156   0.017  0.00  0.00    +0.129 A 
ATOM      8  C   UNL     1      -0.045   3.829  -0.025  0.00  0.00    +0.060 A 
ATOM      9  C   UNL     1      -1.226   3.109  -0.007  0.00  0.00    +0.053 A 
ATOM     10  C   UNL     1      -2.658   3.474  -0.038  0.00  0.00    +0.258 C 
ATOM     11  O   UNL     1      -3.101   4.604  -0.091  0.00  0.00    -0.269 OA
ENDROOT
BRANCH   1  15
ATOM     12  C   UNL     1      -7.564   2.227  -0.036  0.00  0.00    +0.122 A 
ATOM     13  C   UNL     1      -6.855   2.195  -1.228  0.00  0.00    +0.047 A 
ATOM     14  C   UNL     1      -5.474   2.240  -1.215  0.00  0.00    +0.029 A 
ATOM     15  C   UNL     1      -4.793   2.305  -0.010  0.00  0.00    +0.065 A 
ATOM     16  C   UNL     1      -5.503   2.337   1.190  0.00  0.00    +0.050 A 
ATOM     17  C   UNL     1      -6.889   2.298   1.173  0.00  0.00    +0.070 A 
BRANCH  16  18
ATOM     18  N   UNL     1      -4.819   2.409   2.407  0.00  0.00    -0.356 N 
ATOM     19  H   UNL     1      -3.849   2.437   2.418  0.00  0.00    +0.142 HD
ATOM     20  H   UNL     1      -5.314   2.432   3.241  0.00  0.00    +0.142 HD
ENDBRANCH  16  18
BRANCH  12  22
ATOM     21  C   UNL     1      -9.554   2.116  -1.334  0.00  0.00    +0.277 C 
ATOM     22  O   UNL     1      -8.923   2.189  -0.053  0.00  0.00    -0.495 OA
ENDBRANCH  12  22
ENDBRANCH   1  15
BRANCH   7  23
ATOM     23  O   UNL     1       2.335   3.859   0.000  0.00  0.00    -0.456 OA
BRANCH  23  24
ATOM     24  C   UNL     1       3.132   3.748  -1.096  0.00  0.00    +0.129 A 
ATOM     25  C   UNL     1       2.695   3.033  -2.202  0.00  0.00    +0.048 A 
ATOM     26  C   UNL     1       3.502   2.925  -3.317  0.00  0.00    +0.026 A 
ATOM     27  C   UNL     1       4.755   3.522  -3.328  0.00  0.00    +0.025 A 
ATOM     28  C   UNL     1       5.194   4.233  -2.219  0.00  0.00    +0.026 A 
ATOM     29  C   UNL     1       4.384   4.346  -1.106  0.00  0.00    +0.048 A 
BRANCH  27  30
ATOM     30  N   UNL     1       5.575   3.408  -4.455  0.00  0.00    -0.358 N 
ATOM     31  H   UNL     1       6.451   3.825  -4.463  0.00  0.00    +0.142 HD
ATOM     32  H   UNL     1       5.269   2.911  -5.230  0.00  0.00    +0.142 HD
ENDBRANCH  27  30
ENDBRANCH  23  24
ENDBRANCH   7  23
TORSDOF 6
