REMARK  Name = ZINC45639121
REMARK  8 active torsions:
REMARK  status: ('A' for Active; 'I' for Inactive)
REMARK    1  A    between atoms: C_1  and  C_2
REMARK    2  A    between atoms: C_6  and  C_25
REMARK    3  A    between atoms: C_8  and  N_11
REMARK    4  A    between atoms: N_14  and  N_15
REMARK    5  A    between atoms: C_16  and  C_18
REMARK    6  A    between atoms: N_22  and  C_23
REMARK    7  A    between atoms: C_25  and  C_26
REMARK    8  A    between atoms: C_25  and  C_27
REMARK                            x       y       z     vdW  Elec       q    Type
REMARK                         _______ _______ _______ _____ _____    ______ ____
ROOT
ATOM      1  N   UNL     1       2.582  -0.554   2.443  0.00  0.00    -0.295 N 
ATOM      2  C   UNL     1       2.256   0.046   3.605  0.00  0.00    +0.316 C 
ATOM      3  O   UNL     1       1.512   1.008   3.605  0.00  0.00    -0.251 OA
ATOM      4  N   UNL     1       2.756  -0.420   4.767  0.00  0.00    -0.218 N 
ATOM      5  H   UNL     1       3.175  -1.321   2.443  0.00  0.00    +0.151 HD
ATOM      6  H   UNL     1       2.522   0.012   5.603  0.00  0.00    +0.174 HD
ENDROOT
BRANCH   1  12
ATOM      7  C   UNL     1       0.010   1.462  -0.301  0.00  0.00    +0.007 C 
ATOM      8  C   UNL     1       0.058  -0.067  -0.343  0.00  0.00    -0.012 C 
ATOM      9  C   UNL     1       0.951  -0.518  -1.500  0.00  0.00    +0.004 C 
ATOM     10  C   UNL     1       2.365   0.030  -1.296  0.00  0.00    +0.006 C 
ATOM     11  C   UNL     1       2.932  -0.499   0.023  0.00  0.00    +0.012 C 
ATOM     12  C   UNL     1       2.038  -0.048   1.180  0.00  0.00    +0.078 C 
ATOM     13  C   UNL     1       0.625  -0.596   0.976  0.00  0.00    +0.026 C 
BRANCH  11  14
ATOM     14  C   UNL     1       4.346   0.050   0.227  0.00  0.00    -0.012 C 
ATOM     15  C   UNL     1       5.273  -0.517  -0.850  0.00  0.00    +0.007 C 
ATOM     16  C   UNL     1       4.320   1.576   0.125  0.00  0.00    +0.007 C 
ENDBRANCH  11  14
ENDBRANCH   1  12
BRANCH   4  17
ATOM     17  N   UNL     1       3.613  -1.528   4.766  0.00  0.00    -0.228 N 
ATOM     18  C   UNL     1       4.113  -1.994   5.928  0.00  0.00    +0.277 C 
ATOM     19  O   UNL     1       3.747  -1.512   6.984  0.00  0.00    -0.267 OA
ATOM     20  H   UNL     1       3.847  -1.960   3.930  0.00  0.00    +0.173 HD
BRANCH  18  21
ATOM     21  C   UNL     1       5.097  -3.081   5.920  0.00  0.00    +0.107 A 
ATOM     22  C   UNL     1       5.515  -3.793   4.815  0.00  0.00    +0.047 A 
ATOM     23  C   UNL     1       6.456  -4.728   5.261  0.00  0.00    +0.036 A 
ATOM     24  C   UNL     1       6.593  -4.573   6.600  0.00  0.00    +0.101 A 
ATOM     25  N   UNL     1       5.777  -3.572   7.011  0.00  0.00    -0.345 N 
ATOM     26  C   UNL     1       5.638  -3.094   8.389  0.00  0.00    +0.149 C 
ATOM     27 BR   UNL     1       7.372  -5.984   4.185  0.00  0.00    -0.049 Br
ENDBRANCH  18  21
ENDBRANCH   4  17
TORSDOF 4
