REMARK  Name = ZINC12557978
REMARK  7 active torsions:
REMARK  status: ('A' for Active; 'I' for Inactive)
REMARK    1  A    between atoms: C_4  and  S_19
REMARK    2  A    between atoms: C_5  and  N_7
REMARK    3  A    between atoms: C_8  and  C_10
REMARK    4  A    between atoms: C_10  and  N_11
REMARK    5  A    between atoms: N_11  and  C_12
REMARK    6  A    between atoms: S_19  and  C_20
REMARK    7  A    between atoms: C_20  and  C_21
REMARK                            x       y       z     vdW  Elec       q    Type
REMARK                         _______ _______ _______ _____ _____    ______ ____
ROOT
ATOM      1  N   UNL     1      -2.421  -0.040   0.026  0.00  0.00    -0.283 N 
ATOM      2  C   UNL     1      -3.575  -0.730  -0.069  0.00  0.00    +0.234 C 
ATOM      3  O   UNL     1      -3.558  -1.943  -0.076  0.00  0.00    -0.274 OA
ATOM      4  H   UNL     1      -2.438   0.925   0.113  0.00  0.00    +0.155 HD
ENDROOT
BRANCH   1   9
ATOM      5  C   UNL     1       0.110  -2.626  -0.643  0.00  0.00    +0.002 A 
ATOM      6  C   UNL     1       1.229  -2.063  -0.056  0.00  0.00    +0.001 A 
ATOM      7  C   UNL     1       1.145  -0.826   0.555  0.00  0.00    +0.016 A 
ATOM      8  C   UNL     1      -0.067  -0.151   0.591  0.00  0.00    +0.030 A 
ATOM      9  C   UNL     1      -1.195  -0.719  -0.002  0.00  0.00    +0.047 A 
ATOM     10  C   UNL     1      -1.100  -1.958  -0.617  0.00  0.00    +0.024 A 
BRANCH   8  11
ATOM     11  S   UNL     1      -0.178   1.424   1.374  0.00  0.00    -0.114 S 
BRANCH  11  12
ATOM     12  C   UNL     1       1.503   1.733   1.979  0.00  0.00    +0.169 C 
BRANCH  12  13
ATOM     13  C   UNL     1       1.548   3.067   2.679  0.00  0.00    +0.221 C 
ATOM     14  O   UNL     1       0.544   3.742   2.762  0.00  0.00    -0.275 OA
ATOM     15  N   UNL     1       2.704   3.509   3.213  0.00  0.00    -0.329 N 
ATOM     16  H   UNL     1       3.506   2.969   3.147  0.00  0.00    +0.145 HD
ATOM     17  H   UNL     1       2.732   4.368   3.664  0.00  0.00    +0.145 HD
ENDBRANCH  12  13
ENDBRANCH  11  12
ENDBRANCH   8  11
ENDBRANCH   1   9
BRANCH   2  18
ATOM     18  C   UNL     1      -4.886   0.006  -0.165  0.00  0.00    +0.198 C 
BRANCH  18  19
ATOM     19  N   UNL     1      -5.983  -0.960  -0.257  0.00  0.00    -0.335 N 
ATOM     20  H   UNL     1      -5.793  -1.912  -0.249  0.00  0.00    +0.147 HD
BRANCH  19  21
ATOM     21  C   UNL     1      -7.303  -0.512  -0.355  0.00  0.00    +0.028 A 
ATOM     22  C   UNL     1      -7.577   0.850  -0.361  0.00  0.00    +0.024 A 
ATOM     23  C   UNL     1      -8.882   1.290  -0.463  0.00  0.00    +0.017 A 
ATOM     24  C   UNL     1      -9.917   0.376  -0.550  0.00  0.00    +0.018 A 
ATOM     25  C   UNL     1      -9.648  -0.982  -0.540  0.00  0.00    +0.017 A 
ATOM     26  C   UNL     1      -8.344  -1.427  -0.443  0.00  0.00    +0.024 A 
ATOM     27 BR   UNL     1     -11.703   0.982  -0.684  0.00  0.00    -0.050 Br
ENDBRANCH  19  21
ENDBRANCH  18  19
ENDBRANCH   2  18
TORSDOF 7
