REMARK  Name = ZINC36327889
REMARK  7 active torsions:
REMARK  status: ('A' for Active; 'I' for Inactive)
REMARK    1  A    between atoms: C_1  and  N_2
REMARK    2  A    between atoms: N_2  and  C_3
REMARK    3  A    between atoms: N_2  and  S_10
REMARK    4  A    between atoms: S_10  and  C_13
REMARK    5  A    between atoms: C_16  and  O_20
REMARK    6  A    between atoms: C_17  and  N_19
REMARK    7  A    between atoms: O_20  and  C_21
REMARK                            x       y       z     vdW  Elec       q    Type
REMARK                         _______ _______ _______ _____ _____    ______ ____
ROOT
ATOM      1  S   UNL     1      -0.000  -0.824  -1.437  0.00  0.00    +0.061 S 
ATOM      2  O   UNL     1      -0.531  -2.115  -1.167  0.00  0.00    -0.153 OA
ATOM      3  O   UNL     1      -0.572   0.049  -2.401  0.00  0.00    -0.153 OA
ENDROOT
BRANCH   1   4
ATOM      4  C   UNL     1       1.682  -1.059  -1.905  0.00  0.00    +0.107 A 
ATOM      5  C   UNL     1       2.322  -0.108  -2.677  0.00  0.00    +0.032 A 
ATOM      6  C   UNL     1       3.642  -0.287  -3.047  0.00  0.00    +0.049 A 
ATOM      7  C   UNL     1       4.327  -1.421  -2.645  0.00  0.00    +0.141 A 
ATOM      8  C   UNL     1       3.683  -2.381  -1.867  0.00  0.00    +0.069 A 
ATOM      9  C   UNL     1       2.360  -2.192  -1.495  0.00  0.00    +0.055 A 
BRANCH   8  10
ATOM     10  N   UNL     1       4.370  -3.530  -1.458  0.00  0.00    -0.355 N 
ATOM     11  H   UNL     1       5.296  -3.659  -1.716  0.00  0.00    +0.142 HD
ATOM     12  H   UNL     1       3.920  -4.197  -0.917  0.00  0.00    +0.142 HD
ENDBRANCH   8  10
BRANCH   7  13
ATOM     13  O   UNL     1       5.626  -1.599  -3.009  0.00  0.00    -0.493 OA
ATOM     14  C   UNL     1       6.221  -0.574  -3.808  0.00  0.00    +0.277 C 
ENDBRANCH   7  13
ENDBRANCH   1   4
BRANCH   1  16
ATOM     15  C   UNL     1      -0.018   1.461   0.010  0.00  0.00    +0.132 C 
ATOM     16  N   UNL     1       0.002  -0.004   0.002  0.00  0.00    -0.177 NA
BRANCH  16  17
ATOM     17  C   UNL     1       0.024  -0.743   1.267  0.00  0.00    +0.080 C 
ATOM     18  C   UNL     1       1.242  -0.352   2.059  0.00  0.00    +0.020 C 
ATOM     19  C   UNL     1       1.809  -1.523   2.884  0.00  0.00    +0.002 C 
ATOM     20  C   UNL     1       0.711  -2.365   3.562  0.00  0.00    +0.000 C 
ATOM     21  C   UNL     1      -0.384  -1.516   4.150  0.00  0.00    +0.000 C 
ATOM     22  C   UNL     1      -1.519  -1.392   3.112  0.00  0.00    +0.002 C 
ATOM     23  C   UNL     1      -1.231  -0.395   2.092  0.00  0.00    +0.020 C 
ENDBRANCH  16  17
ENDBRANCH   1  16
TORSDOF 5
