REMARK  Name = ZINC02141458
REMARK  4 active torsions:
REMARK  status: ('A' for Active; 'I' for Inactive)
REMARK    1  A    between atoms: C_8  and  C_17
REMARK    2  A    between atoms: C_9  and  N_16
REMARK    3  A    between atoms: C_11  and  N_15
REMARK    4  A    between atoms: C_12  and  C_13
REMARK                            x       y       z     vdW  Elec       q    Type
REMARK                         _______ _______ _______ _____ _____    ______ ____
ROOT
ATOM      1  C   UNL     1       3.477   3.153  -0.011  0.00  0.00    +0.000 A 
ATOM      2  C   UNL     1       4.202   1.976  -0.029  0.00  0.00    +0.002 A 
ATOM      3  C   UNL     1       3.555   0.757  -0.033  0.00  0.00    +0.023 A 
ATOM      4  C   UNL     1       2.162   0.705  -0.018  0.00  0.00    +0.038 A 
ATOM      5  C   UNL     1       1.446   1.894  -0.002  0.00  0.00    -0.001 A 
ATOM      6  C   UNL     1       2.093   3.109   0.003  0.00  0.00    +0.007 A 
ATOM      7  C   UNL     1      -0.018   1.512   0.010  0.00  0.00    +0.147 C 
ATOM      8  C   UNL     1      -0.659   2.002   1.266  0.00  0.00    +0.081 C 
ATOM      9  C   UNL     1      -1.386   3.126   1.384  0.00  0.00    +0.080 C 
ATOM     10  S   UNL     1      -1.710   4.205   0.039  0.00  0.00    -0.058 S 
ATOM     11  C   UNL     1      -1.413   3.138  -1.322  0.00  0.00    +0.080 C 
ATOM     12  C   UNL     1      -0.684   2.013  -1.228  0.00  0.00    +0.081 C 
ATOM     13  C   UNL     1       0.002  -0.004   0.002  0.00  0.00    +0.238 C 
ATOM     14  O   UNL     1      -0.964  -0.737   0.011  0.00  0.00    -0.274 OA
ATOM     15  N   UNL     1       1.290  -0.384  -0.017  0.00  0.00    -0.284 N 
ATOM     16  H   UNL     1       1.690  -1.409  -0.029  0.00  0.00    +0.155 HD
ENDROOT
BRANCH  11  17
ATOM     17  N   UNL     1      -1.951   3.469  -2.543  0.00  0.00    -0.352 N 
ATOM     18  H   UNL     1      -1.781   2.818  -3.413  0.00  0.00    +0.143 HD
ATOM     19  H   UNL     1      -2.551   4.384  -2.649  0.00  0.00    +0.143 HD
ENDBRANCH  11  17
BRANCH   9  20
ATOM     20  N   UNL     1      -1.899   3.446   2.618  0.00  0.00    -0.352 N 
ATOM     21  H   UNL     1      -2.498   4.361   2.744  0.00  0.00    +0.143 HD
ATOM     22  H   UNL     1      -1.712   2.789   3.480  0.00  0.00    +0.143 HD
ENDBRANCH   9  20
BRANCH  12  23
ATOM     23  C   UNL     1      -0.533   1.229  -2.417  0.00  0.00    +0.099 C 
ATOM     24  N   UNL     1      -0.413   0.608  -3.360  0.00  0.00    -0.191 NA
ENDBRANCH  12  23
BRANCH   8  25
ATOM     25  C   UNL     1      -0.485   1.207   2.445  0.00  0.00    +0.099 C 
ATOM     26  N   UNL     1      -0.347   0.576   3.379  0.00  0.00    -0.191 NA
ENDBRANCH   8  25
TORSDOF 4
