REMARK  Name = ZINC41069994
REMARK  7 active torsions:
REMARK  status: ('A' for Active; 'I' for Inactive)
REMARK    1  A    between atoms: C_1  and  C_2
REMARK    2  A    between atoms: C_5  and  C_8
REMARK    3  A    between atoms: C_8  and  N_9
REMARK    4  A    between atoms: N_9  and  S_10
REMARK    5  A    between atoms: S_10  and  C_13
REMARK    6  A    between atoms: C_18  and  N_19
REMARK    7  A    between atoms: N_19  and  N_20
REMARK                            x       y       z     vdW  Elec       q    Type
REMARK                         _______ _______ _______ _____ _____    ______ ____
ROOT
ATOM      1  S   UNL     1       1.837  -6.333   0.467  0.00  0.00    +0.062 S 
ATOM      2  O   UNL     1       3.239  -6.562   0.506  0.00  0.00    -0.153 OA
ATOM      3  O   UNL     1       1.007  -6.492   1.609  0.00  0.00    -0.153 OA
ENDROOT
BRANCH   1   4
ATOM      4  C   UNL     1       1.188  -7.396  -0.780  0.00  0.00    +0.147 A 
ATOM      5  C   UNL     1       0.096  -8.203  -0.513  0.00  0.00    +0.048 A 
ATOM      6  C   UNL     1      -0.382  -9.026  -1.525  0.00  0.00    +0.038 A 
ATOM      7  C   UNL     1       0.241  -9.014  -2.758  0.00  0.00    +0.128 A 
ATOM      8  N   UNL     1       1.281  -8.233  -2.983  0.00  0.00    -0.236 NA
ATOM      9  C   UNL     1       1.762  -7.431  -2.046  0.00  0.00    +0.159 A 
ATOM     10 BR   UNL     1      -1.871 -10.150  -1.219  0.00  0.00    -0.049 Br
BRANCH   9  11
ATOM     11  N   UNL     1       2.856  -6.620  -2.328  0.00  0.00    -0.266 N 
ATOM     12  H   UNL     1       3.159  -5.969  -1.676  0.00  0.00    +0.167 HD
BRANCH  11  13
ATOM     13  N   UNL     1       3.504  -6.740  -3.525  0.00  0.00    -0.255 NA
ATOM     14  H   UNL     1       2.865  -6.618  -4.296  0.00  0.00    +0.140 HD
ATOM     15  H   UNL     1       4.273  -6.090  -3.586  0.00  0.00    +0.140 HD
ENDBRANCH  11  13
ENDBRANCH   9  11
ENDBRANCH   1   4
BRANCH   1  16
ATOM     16  N   UNL     1       1.626  -4.777  -0.059  0.00  0.00    -0.186 NA
ATOM     17  H   UNL     1       2.397  -4.220  -0.249  0.00  0.00    +0.148 HD
BRANCH  16  18
ATOM     18  C   UNL     1       0.274  -4.241  -0.237  0.00  0.00    +0.141 C 
BRANCH  18  23
ATOM     19  C   UNL     1       0.523   1.517  -0.662  0.00  0.00    +0.044 C 
ATOM     20  C   UNL     1       0.458   0.015  -0.551  0.00  0.00    -0.050 A 
ATOM     21  C   UNL     1       0.549  -0.766  -1.688  0.00  0.00    +0.003 A 
ATOM     22  C   UNL     1       0.490  -2.143  -1.586  0.00  0.00    +0.005 A 
ATOM     23  C   UNL     1       0.340  -2.739  -0.348  0.00  0.00    -0.032 A 
ATOM     24  C   UNL     1       0.250  -1.958   0.789  0.00  0.00    +0.005 A 
ATOM     25  C   UNL     1       0.314  -0.581   0.688  0.00  0.00    +0.003 A 
ENDBRANCH  18  23
ENDBRANCH  16  18
ENDBRANCH   1  16
TORSDOF 6
