REMARK  Name = ZINC36586082
REMARK  13 active torsions:
REMARK  status: ('A' for Active; 'I' for Inactive)
REMARK    1  A    between atoms: C_1  and  C_2
REMARK    2  A    between atoms: C_2  and  C_3
REMARK    3  A    between atoms: C_2  and  C_4
REMARK    4  A    between atoms: C_2  and  N_5
REMARK    5  A    between atoms: N_5  and  C_6
REMARK    6  A    between atoms: C_6  and  C_8
REMARK    7  A    between atoms: C_6  and  C_17
REMARK    8  A    between atoms: C_9  and  O_16
REMARK    9  A    between atoms: C_11  and  O_15
REMARK   10  A    between atoms: C_13  and  O_14
REMARK   11  A    between atoms: N_19  and  C_20
REMARK   12  A    between atoms: C_26  and  C_28
REMARK   13  A    between atoms: C_29  and  C_30
REMARK                            x       y       z     vdW  Elec       q    Type
REMARK                         _______ _______ _______ _____ _____    ______ ____
ROOT
ATOM      1  C   UNL     1       2.254  -0.402  -1.150  0.00  0.00    +0.201 C 
ENDROOT
BRANCH   1   2
ATOM      2  C   UNL     1       1.599   0.935  -0.915  0.00  0.00    +0.065 A 
ATOM      3  C   UNL     1       0.545   1.042  -0.021  0.00  0.00    +0.129 A 
ATOM      4  C   UNL     1      -0.058   2.272   0.196  0.00  0.00    +0.091 A 
ATOM      5  C   UNL     1       0.395   3.395  -0.481  0.00  0.00    +0.124 A 
ATOM      6  C   UNL     1       1.450   3.288  -1.374  0.00  0.00    +0.091 A 
ATOM      7  C   UNL     1       2.055   2.058  -1.588  0.00  0.00    +0.129 A 
BRANCH   7   8
ATOM      8  O   UNL     1       3.092   1.954  -2.460  0.00  0.00    -0.506 OA
ATOM      9  H   UNL     1       2.824   1.761  -3.369  0.00  0.00    +0.292 HD
ENDBRANCH   7   8
BRANCH   5  10
ATOM     10  O   UNL     1      -0.197   4.600  -0.270  0.00  0.00    -0.507 OA
ATOM     11  H   UNL     1       0.203   5.114   0.446  0.00  0.00    +0.292 HD
ENDBRANCH   5  10
BRANCH   3  12
ATOM     12  O   UNL     1       0.101  -0.058   0.642  0.00  0.00    -0.506 OA
ATOM     13  H   UNL     1       0.476  -0.161   1.528  0.00  0.00    +0.292 HD
ENDBRANCH   3  12
ENDBRANCH   1   2
BRANCH   1  14
ATOM     14  C   UNL     1       2.916  -0.868   0.121  0.00  0.00    +0.239 C 
ATOM     15  O   UNL     1       2.286  -1.513   0.932  0.00  0.00    -0.273 OA
ATOM     16  N   UNL     1       4.209  -0.568   0.356  0.00  0.00    -0.311 N 
ATOM     17  H   UNL     1       4.713  -0.052  -0.292  0.00  0.00    +0.149 HD
BRANCH  16  18
ATOM     18  C   UNL     1       4.852  -1.021   1.592  0.00  0.00    +0.073 C 
ATOM     19  C   UNL     1       4.568  -0.018   2.712  0.00  0.00    +0.022 C 
ATOM     20  C   UNL     1       5.240  -0.491   4.003  0.00  0.00    +0.002 C 
ATOM     21  C   UNL     1       6.750  -0.595   3.783  0.00  0.00    +0.000 C 
ATOM     22  C   UNL     1       7.035  -1.597   2.663  0.00  0.00    +0.002 C 
ATOM     23  C   UNL     1       6.363  -1.124   1.372  0.00  0.00    +0.022 C 
ENDBRANCH  16  18
ENDBRANCH   1  14
BRANCH   1  24
ATOM     24  N   UNL     1       1.240  -1.377  -1.559  0.00  0.00    -0.270 N 
ATOM     25  C   UNL     1      -0.016  -0.970  -1.829  0.00  0.00    +0.293 C 
ATOM     26  O   UNL     1      -0.280   0.218  -1.849  0.00  0.00    -0.260 OA
BRANCH  24  28
ATOM     27  C   UNL     1       3.080  -2.977  -1.372  0.00  0.00    +0.031 C 
ATOM     28  C   UNL     1       1.591  -2.795  -1.673  0.00  0.00    +0.031 C 
ATOM     29  C   UNL     1       1.295  -3.281  -3.093  0.00  0.00    +0.031 C 
ATOM     30  C   UNL     1       0.766  -3.607  -0.673  0.00  0.00    +0.031 C 
ENDBRANCH  24  28
BRANCH  25  31
ATOM     31  C   UNL     1      -1.040  -1.936  -2.094  0.00  0.00    -0.003 C 
ATOM     32  C   UNL     1      -1.879  -2.727  -2.310  0.00  0.00    -0.057 C 
BRANCH  32  33
ATOM     33  C   UNL     1      -2.904  -3.692  -2.575  0.00  0.00    +0.025 A 
ATOM     34  C   UNL     1      -2.606  -5.059  -2.547  0.00  0.00    +0.017 A 
ATOM     35  C   UNL     1      -3.597  -5.982  -2.803  0.00  0.00    +0.001 A 
ATOM     36  C   UNL     1      -4.885  -5.560  -3.086  0.00  0.00    +0.000 A 
ATOM     37  C   UNL     1      -5.187  -4.210  -3.115  0.00  0.00    +0.001 A 
ATOM     38  C   UNL     1      -4.208  -3.274  -2.856  0.00  0.00    +0.017 A 
ENDBRANCH  32  33
ENDBRANCH  25  31
ENDBRANCH   1  24
TORSDOF 10
