REMARK  Name = ZINC61721509
REMARK  5 active torsions:
REMARK  status: ('A' for Active; 'I' for Inactive)
REMARK    1  A    between atoms: C_1  and  C_2
REMARK    2  A    between atoms: C_2  and  C_23
REMARK    3  A    between atoms: C_3  and  C_10
REMARK    4  A    between atoms: C_5  and  C_7
REMARK    5  A    between atoms: N_12  and  C_13
REMARK                            x       y       z     vdW  Elec       q    Type
REMARK                         _______ _______ _______ _____ _____    ______ ____
ROOT
ATOM      1  C   UNL     1       0.377  -2.059  -0.800  0.00  0.00    +0.222 C 
ATOM      2  O   UNL     1      -0.491  -2.522  -0.092  0.00  0.00    -0.275 OA
ATOM      3  N   UNL     1       0.914  -2.807  -1.785  0.00  0.00    -0.280 N 
ATOM      4  H   UNL     1       1.658  -2.463  -2.304  0.00  0.00    +0.155 HD
ENDROOT
BRANCH   3   5
ATOM      5  C   UNL     1       0.397  -4.085  -2.058  0.00  0.00    +0.115 A 
ATOM      6  C   UNL     1       1.192  -5.178  -1.985  0.00  0.00    +0.116 A 
ATOM      7  N   UNL     1       0.668  -6.417  -2.256  0.00  0.00    -0.313 N 
ATOM      8  H   UNL     1       1.237  -7.201  -2.204  0.00  0.00    +0.170 HD
ATOM      9  C   UNL     1      -0.627  -6.554  -2.593  0.00  0.00    +0.327 A 
ATOM     10  O   UNL     1      -1.070  -7.662  -2.828  0.00  0.00    -0.247 OA
ATOM     11  N   UNL     1      -1.441  -5.486  -2.673  0.00  0.00    -0.274 N 
ATOM     12  H   UNL     1      -2.372  -5.605  -2.917  0.00  0.00    +0.173 HD
ATOM     13  C   UNL     1      -0.970  -4.250  -2.410  0.00  0.00    +0.275 A 
ATOM     14  O   UNL     1      -1.708  -3.284  -2.478  0.00  0.00    -0.266 OA
ENDBRANCH   3   5
BRANCH   1  17
ATOM     15  C   UNL     1       0.007   1.652   0.336  0.00  0.00    +0.012 C 
ATOM     16  C   UNL     1       0.206   0.151   0.552  0.00  0.00    -0.009 C 
ATOM     17  C   UNL     1       0.855  -0.646  -0.581  0.00  0.00    +0.096 C 
ATOM     18  C   UNL     1       1.641  -0.357   0.700  0.00  0.00    +0.121 C 
ATOM     19  C   UNL     1      -0.879  -0.546   1.376  0.00  0.00    +0.012 C 
BRANCH  18  20
ATOM     20  C   UNL     1       1.879  -1.507   1.645  0.00  0.00    +0.360 C 
ATOM     21  O   UNL     1       2.439  -2.515   1.250  0.00  0.00    -0.246 OA
ATOM     22  O   UNL     1       1.510  -1.429   2.804  0.00  0.00    -0.246 OA
ENDBRANCH  18  20
ENDBRANCH   1  17
TORSDOF 3
