REMARK  Name = ZINC39073160
REMARK  3 active torsions:
REMARK  status: ('A' for Active; 'I' for Inactive)
REMARK    1  A    between atoms: C_3  and  O_17
REMARK    2  A    between atoms: C_6  and  N_7
REMARK    3  A    between atoms: C_10  and  C_14
REMARK                            x       y       z     vdW  Elec       q    Type
REMARK                         _______ _______ _______ _____ _____    ______ ____
ROOT
ATOM      1  N   UNL     1      -1.203  -0.722   0.010  0.00  0.00    -0.237 N 
ATOM      2  C   UNL     1      -1.192  -2.069  -0.094  0.00  0.00    +0.278 A 
ATOM      3  O   UNL     1      -0.037  -2.765  -0.207  0.00  0.00    -0.266 OA
ATOM      4  C   UNL     1      -2.411  -2.693  -0.078  0.00  0.00    +0.143 A 
ATOM      5  S   UNL     1      -3.520  -1.306   0.087  0.00  0.00    -0.018 S 
ATOM      6  C   UNL     1      -2.378  -0.073   0.127  0.00  0.00    +0.299 A 
ATOM      7  O   UNL     1      -2.568   1.125   0.235  0.00  0.00    -0.259 OA
ENDROOT
BRANCH   1  13
ATOM      8  C   UNL     1       0.663   0.257   1.195  0.00  0.00    +0.030 A 
ATOM      9  C   UNL     1       1.849   0.964   1.186  0.00  0.00    +0.047 A 
ATOM     10  C   UNL     1       2.381   1.413  -0.014  0.00  0.00    +0.117 A 
ATOM     11  C   UNL     1       1.721   1.152  -1.206  0.00  0.00    +0.047 A 
ATOM     12  C   UNL     1       0.534   0.445  -1.199  0.00  0.00    +0.030 A 
ATOM     13  C   UNL     1       0.002  -0.004   0.002  0.00  0.00    +0.054 A 
BRANCH  10  14
ATOM     14  O   UNL     1       3.548   2.109  -0.022  0.00  0.00    -0.507 OA
ATOM     15  H   UNL     1       4.336   1.555  -0.108  0.00  0.00    +0.292 HD
ENDBRANCH  10  14
ENDBRANCH   1  13
BRANCH   4  16
ATOM     16  C   UNL     1      -2.711  -4.073  -0.169  0.00  0.00    +0.254 C 
ATOM     17  O   UNL     1      -1.811  -4.886  -0.279  0.00  0.00    -0.270 OA
ATOM     18  N   UNL     1      -3.993  -4.487  -0.133  0.00  0.00    -0.325 N 
ATOM     19  H   UNL     1      -4.710  -3.840  -0.045  0.00  0.00    +0.145 HD
ATOM     20  H   UNL     1      -4.199  -5.433  -0.195  0.00  0.00    +0.145 HD
ENDBRANCH   4  16
TORSDOF 3
