REMARK  Name = ZINC04751412
REMARK  3 active torsions:
REMARK  status: ('A' for Active; 'I' for Inactive)
REMARK    1  A    between atoms: C_1  and  C_2
REMARK    2  A    between atoms: C_5  and  N_9
REMARK    3  A    between atoms: C_7  and  C_8
REMARK                            x       y       z     vdW  Elec       q    Type
REMARK                         _______ _______ _______ _____ _____    ______ ____
ROOT
ATOM      1  N   UNL     1      -1.114   2.031   0.018  0.00  0.00    -0.210 N 
ATOM      2  C   UNL     1      -0.014   1.208   0.009  0.00  0.00    +0.228 C 
ATOM      3  O   UNL     1       0.002  -0.004   0.002  0.00  0.00    -0.275 OA
ATOM      4  C   UNL     1       1.115   2.102   0.003  0.00  0.00    +0.074 C 
ATOM      5  C   UNL     1       2.551   2.103  -0.371  0.00  0.00    -0.054 C 
ATOM      6  C   UNL     1       3.404   1.407   0.725  0.00  0.00    -0.016 C 
ATOM      7  C   UNL     1       4.279   2.523   1.331  0.00  0.00    -0.020 C 
ATOM      8  C   UNL     1       3.462   3.802   1.036  0.00  0.00    -0.076 C 
ATOM      9  C   UNL     1       1.626   4.322  -0.487  0.00  0.00    +0.053 C 
ATOM     10  C   UNL     1       0.569   3.298  -0.877  0.00  0.00    +0.089 C 
ATOM     11  C   UNL     1      -0.803   3.331  -0.259  0.00  0.00    +0.229 C 
ATOM     12  O   UNL     1      -1.490   4.308  -0.055  0.00  0.00    -0.275 OA
ATOM     13  C   UNL     1       1.236   5.105   0.733  0.00  0.00    -0.024 A 
ATOM     14  C   UNL     1       0.887   4.761   2.022  0.00  0.00    +0.043 A 
ATOM     15  C   UNL     1       0.574   5.740   2.948  0.00  0.00    +0.124 A 
ATOM     16  C   UNL     1       0.604   7.074   2.577  0.00  0.00    +0.040 A 
ATOM     17  C   UNL     1       0.937   7.425   1.286  0.00  0.00    +0.026 A 
ATOM     18  C   UNL     1       1.251   6.444   0.348  0.00  0.00    +0.036 A 
ATOM     19  N   UNL     1       1.591   6.556  -1.002  0.00  0.00    -0.286 N 
ATOM     20  C   UNL     1       1.815   5.356  -1.569  0.00  0.00    +0.212 C 
ATOM     21  O   UNL     1       2.111   5.147  -2.727  0.00  0.00    -0.277 OA
ATOM     22  F   UNL     1       0.238   5.396   4.211  0.00  0.00    -0.205 F 
ATOM     23  H   UNL     1       1.659   7.399  -1.476  0.00  0.00    +0.155 HD
ATOM     24  N   UNL     1       2.877   3.531  -0.291  0.00  0.00    +0.395 N 
ATOM     25  H   UNL     1       3.555   3.777  -1.022  0.00  0.00    -0.079 HD
ENDROOT
BRANCH   1  30
ATOM     26  C   UNL     1      -6.384   0.227   1.103  0.00  0.00    +0.044 C 
ATOM     27  C   UNL     1      -4.985   0.706   0.815  0.00  0.00    -0.047 A 
ATOM     28  C   UNL     1      -4.756   2.041   0.539  0.00  0.00    +0.005 A 
ATOM     29  C   UNL     1      -3.474   2.483   0.275  0.00  0.00    +0.024 A 
ATOM     30  C   UNL     1      -2.416   1.585   0.286  0.00  0.00    +0.044 A 
ATOM     31  C   UNL     1      -2.649   0.244   0.557  0.00  0.00    +0.027 A 
ATOM     32  C   UNL     1      -3.932  -0.191   0.827  0.00  0.00    -0.046 A 
ATOM     33  C   UNL     1      -4.186  -1.646   1.128  0.00  0.00    +0.044 C 
ENDBRANCH   1  30
TORSDOF 1
