REMARK  Name = ZINC03356809
REMARK  9 active torsions:
REMARK  status: ('A' for Active; 'I' for Inactive)
REMARK    1  A    between atoms: C_1  and  C_2
REMARK    2  A    between atoms: C_2  and  C_4
REMARK    3  A    between atoms: C_2  and  N_16
REMARK    4  A    between atoms: N_6  and  C_7
REMARK    5  A    between atoms: N_16  and  C_17
REMARK    6  A    between atoms: C_19  and  N_25
REMARK    7  A    between atoms: C_22  and  O_23
REMARK    8  A    between atoms: O_23  and  C_24
REMARK    9  A    between atoms: C_26  and  C_28
REMARK                            x       y       z     vdW  Elec       q    Type
REMARK                         _______ _______ _______ _____ _____    ______ ____
ROOT
ATOM      1  C   UNL     1       0.025   1.501  -0.321  0.00  0.00    +0.038 C 
ATOM      2  C   UNL     1       0.000  -0.028  -0.272  0.00  0.00    +0.154 C 
ENDROOT
BRANCH   2   3
ATOM      3  C   UNL     1       0.765  -0.581  -1.447  0.00  0.00    +0.237 C 
ATOM      4  O   UNL     1       1.733  -1.288  -1.262  0.00  0.00    -0.273 OA
ATOM      5  N   UNL     1       0.374  -0.288  -2.703  0.00  0.00    -0.282 N 
ATOM      6  H   UNL     1      -0.438   0.221  -2.853  0.00  0.00    +0.155 HD
BRANCH   5   7
ATOM      7  C   UNL     1       1.141  -0.721  -3.794  0.00  0.00    +0.072 A 
ATOM      8  C   UNL     1       1.802  -1.940  -3.739  0.00  0.00    +0.029 A 
ATOM      9  C   UNL     1       2.558  -2.365  -4.814  0.00  0.00    +0.043 A 
ATOM     10  C   UNL     1       2.657  -1.577  -5.948  0.00  0.00    +0.161 A 
ATOM     11  C   UNL     1       1.998  -0.359  -6.008  0.00  0.00    +0.195 A 
ATOM     12  C   UNL     1       1.235   0.068  -4.934  0.00  0.00    +0.182 A 
ATOM     13  F   UNL     1       0.587   1.253  -4.993  0.00  0.00    -0.200 F 
ATOM     14  F   UNL     1       2.097   0.409  -7.115  0.00  0.00    -0.199 F 
ATOM     15  F   UNL     1       3.397  -1.996  -6.998  0.00  0.00    -0.202 F 
ENDBRANCH   5   7
ENDBRANCH   2   3
BRANCH   2  16
ATOM     16  N   UNL     1       0.619  -0.487   0.974  0.00  0.00    -0.330 N 
ATOM     17  H   UNL     1       1.558  -0.733   0.987  0.00  0.00    +0.147 HD
BRANCH  16  18
ATOM     18  C   UNL     1      -0.142  -0.571   2.144  0.00  0.00    +0.072 A 
ATOM     19  C   UNL     1      -1.485  -0.226   2.126  0.00  0.00    +0.050 A 
ATOM     20  C   UNL     1      -2.238  -0.310   3.288  0.00  0.00    +0.035 A 
ATOM     21  C   UNL     1      -1.647  -0.740   4.469  0.00  0.00    +0.027 A 
ATOM     22  C   UNL     1      -0.308  -1.084   4.489  0.00  0.00    +0.049 A 
ATOM     23  C   UNL     1       0.446  -1.008   3.330  0.00  0.00    +0.141 A 
BRANCH  20  24
ATOM     24  N   UNL     1      -3.595   0.039   3.271  0.00  0.00    -0.286 N 
ATOM     25  C   UNL     1      -4.441  -0.501   4.170  0.00  0.00    +0.214 C 
ATOM     26  O   UNL     1      -4.052  -1.367   4.925  0.00  0.00    -0.276 OA
ATOM     27  C   UNL     1      -5.871  -0.030   4.238  0.00  0.00    +0.109 C 
ATOM     28  H   UNL     1      -3.925   0.669   2.612  0.00  0.00    +0.155 HD
ENDBRANCH  20  24
BRANCH  23  29
ATOM     29  O   UNL     1       1.762  -1.353   3.350  0.00  0.00    -0.493 OA
ATOM     30  C   UNL     1       2.298  -1.791   4.599  0.00  0.00    +0.277 C 
ENDBRANCH  23  29
ENDBRANCH  16  18
ENDBRANCH   2  16
TORSDOF 6
