REMARK  Name = ZINC09433901
REMARK  5 active torsions:
REMARK  status: ('A' for Active; 'I' for Inactive)
REMARK    1  A    between atoms: C_1  and  N_2
REMARK    2  A    between atoms: C_9  and  N_19
REMARK    3  A    between atoms: N_19  and  C_20
REMARK    4  A    between atoms: N_27  and  C_30
REMARK    5  A    between atoms: N_35  and  C_38
REMARK                            x       y       z     vdW  Elec       q    Type
REMARK                         _______ _______ _______ _____ _____    ______ ____
ROOT
ATOM      1  C   UNL     1      -0.042   0.781  -0.373  0.00  0.00    +0.143 C 
ATOM      2  N   UNL     1      -0.048  -0.679  -0.253  0.00  0.00    -0.228 N 
ATOM      3  C   UNL     1      -1.222  -1.321  -0.178  0.00  0.00    +0.240 C 
ATOM      4  O   UNL     1      -2.248  -0.676  -0.215  0.00  0.00    -0.274 OA
ATOM      5  C   UNL     1      -1.305  -2.816  -0.050  0.00  0.00    +0.146 C 
ATOM      6  C   UNL     1      -2.047  -3.176   1.239  0.00  0.00    +0.064 C 
ATOM      7  C   UNL     1      -3.508  -2.824   1.172  0.00  0.00    -0.023 A 
ATOM      8  C   UNL     1      -4.225  -2.691   2.348  0.00  0.00    +0.028 A 
ATOM      9  C   UNL     1      -5.576  -2.377   2.313  0.00  0.00    +0.031 A 
ATOM     10  C   UNL     1      -6.221  -2.195   1.096  0.00  0.00    +0.025 A 
ATOM     11  C   UNL     1      -5.510  -2.322  -0.081  0.00  0.00    +0.025 A 
ATOM     12  C   UNL     1      -4.160  -2.628  -0.042  0.00  0.00    +0.033 A 
ATOM     13  N   UNL     1      -3.410  -2.731  -1.216  0.00  0.00    -0.325 N 
ATOM     14  C   UNL     1      -2.085  -3.387  -1.239  0.00  0.00    +0.098 C 
ATOM     15  C   UNL     1      -1.433  -2.996  -2.575  0.00  0.00    +0.025 C 
ATOM     16  C   UNL     1      -2.670  -2.827  -3.502  0.00  0.00    +0.021 C 
ATOM     17  C   UNL     1      -3.703  -2.184  -2.542  0.00  0.00    +0.105 C 
ATOM     18  C   UNL     1       0.071  -3.421  -0.022  0.00  0.00    +0.240 C 
ATOM     19  O   UNL     1       0.182  -4.623   0.082  0.00  0.00    -0.274 OA
ATOM     20  N   UNL     1       1.177  -2.670  -0.109  0.00  0.00    -0.228 N 
ATOM     21  C   UNL     1       1.122  -1.335  -0.227  0.00  0.00    +0.317 C 
ATOM     22  O   UNL     1       2.157  -0.704  -0.308  0.00  0.00    -0.252 OA
ATOM     23  C   UNL     1       2.486  -3.327  -0.079  0.00  0.00    +0.143 C 
ENDROOT
BRANCH   9  24
ATOM     24  N   UNL     1      -6.292  -2.244   3.508  0.00  0.00    -0.320 N 
ATOM     25  H   UNL     1      -5.843  -2.371   4.359  0.00  0.00    +0.152 HD
BRANCH  24  26
ATOM     26  C   UNL     1      -7.605  -1.939   3.477  0.00  0.00    +0.090 C 
ATOM     27  C   UNL     1      -8.337  -1.913   4.651  0.00  0.00    +0.113 C 
ATOM     28  C   UNL     1      -7.689  -2.071   5.965  0.00  0.00    +0.256 C 
ATOM     29  O   UNL     1      -6.486  -2.230   6.053  0.00  0.00    -0.270 OA
ATOM     30  N   UNL     1      -8.466  -2.035   7.067  0.00  0.00    -0.263 N 
ATOM     31  C   UNL     1      -9.792  -1.860   6.984  0.00  0.00    +0.146 C 
ATOM     32  S   UNL     1     -10.698  -1.827   8.437  0.00  0.00    -0.018 S 
ATOM     33  N   UNL     1     -10.447  -1.710   5.824  0.00  0.00    -0.246 N 
ATOM     34  C   UNL     1      -9.798  -1.719   4.642  0.00  0.00    +0.259 C 
ATOM     35  O   UNL     1     -10.403  -1.576   3.596  0.00  0.00    -0.269 OA
ATOM     36  H   UNL     1      -8.055  -2.137   7.940  0.00  0.00    +0.157 HD
BRANCH  33  37
ATOM     37  C   UNL     1     -11.900  -1.526   5.842  0.00  0.00    +0.084 C 
ATOM     38  C   UNL     1     -12.480  -0.401   4.981  0.00  0.00    +0.025 C 
ATOM     39  C   UNL     1     -12.444  -0.258   6.504  0.00  0.00    +0.025 C 
ENDBRANCH  33  37
ENDBRANCH  24  26
ENDBRANCH   9  24
TORSDOF 3
