REMARK  Name = ZINC20292249
REMARK  9 active torsions:
REMARK  status: ('A' for Active; 'I' for Inactive)
REMARK    1  A    between atoms: C_1  and  S_2
REMARK    2  A    between atoms: S_2  and  C_3
REMARK    3  A    between atoms: C_8  and  N_9
REMARK    4  A    between atoms: C_10  and  C_12
REMARK    5  A    between atoms: C_12  and  S_13
REMARK    6  A    between atoms: S_13  and  C_14
REMARK    7  A    between atoms: N_18  and  N_19
REMARK    8  A    between atoms: N_20  and  N_21
REMARK    9  A    between atoms: C_22  and  C_23
REMARK                            x       y       z     vdW  Elec       q    Type
REMARK                         _______ _______ _______ _____ _____    ______ ____
ROOT
ATOM      1  C   UNL     1       0.185  -7.911   0.420  0.00  0.00    +0.210 A 
ATOM      2  N   UNL     1       1.456  -7.588   0.416  0.00  0.00    -0.119 NA
ATOM      3  N   UNL     1       2.203  -8.769   0.517  0.00  0.00    -0.109 NA
ATOM      4  C   UNL     1       1.365  -9.775   0.579  0.00  0.00    +0.254 A 
ATOM      5  N   UNL     1       0.095  -9.270   0.526  0.00  0.00    -0.211 N 
ATOM      6  N   UNL     1       1.705 -11.116   0.685  0.00  0.00    -0.204 N 
ATOM      7  H   UNL     1       1.010 -11.791   0.724  0.00  0.00    +0.177 HD
ENDROOT
BRANCH   5   8
ATOM      8  N   UNL     1      -1.060  -9.997   0.569  0.00  0.00    -0.294 N 
ATOM      9  H   UNL     1      -1.355 -10.264  -0.358  0.00  0.00    +0.163 HD
ATOM     10  H   UNL     1      -0.956 -10.806   1.163  0.00  0.00    +0.163 HD
ENDBRANCH   5   8
BRANCH   6  11
ATOM     11  N   UNL     1       3.054 -11.494   0.736  0.00  0.00    -0.188 NA
ATOM     12  C   UNL     1       3.372 -12.749   0.836  0.00  0.00    +0.138 C 
BRANCH  12  13
ATOM     13  C   UNL     1       4.791 -13.147   0.889  0.00  0.00    -0.004 A 
ATOM     14  C   UNL     1       5.795 -12.176   0.839  0.00  0.00    +0.009 A 
ATOM     15  C   UNL     1       7.120 -12.555   0.890  0.00  0.00    +0.002 A 
ATOM     16  C   UNL     1       7.457 -13.893   0.990  0.00  0.00    +0.015 A 
ATOM     17  C   UNL     1       6.468 -14.861   1.040  0.00  0.00    +0.018 A 
ATOM     18  C   UNL     1       5.138 -14.496   0.996  0.00  0.00    +0.024 A 
ATOM     19 BR   UNL     1       6.941 -16.687   1.177  0.00  0.00    -0.050 Br
ENDBRANCH  12  13
ENDBRANCH   6  11
BRANCH   1  20
ATOM     20  S   UNL     1      -1.169  -6.789   0.313  0.00  0.00    -0.075 S 
BRANCH  20  21
ATOM     21  C   UNL     1      -0.380  -5.160   0.194  0.00  0.00    +0.173 C 
BRANCH  21  23
ATOM     22  N   UNL     1      -1.087  -2.797  -0.002  0.00  0.00    -0.284 N 
ATOM     23  C   UNL     1      -1.441  -4.094   0.096  0.00  0.00    +0.228 C 
ATOM     24  O   UNL     1      -2.614  -4.403   0.105  0.00  0.00    -0.275 OA
ATOM     25  H   UNL     1      -0.152  -2.555  -0.090  0.00  0.00    +0.155 HD
BRANCH  22  31
ATOM     26  C   UNL     1      -1.822  -0.559  -0.567  0.00  0.00    +0.029 A 
ATOM     27  C   UNL     1      -2.802   0.424  -0.543  0.00  0.00    +0.016 A 
ATOM     28  C   UNL     1      -4.016   0.175   0.069  0.00  0.00    +0.001 A 
ATOM     29  C   UNL     1      -4.258  -1.052   0.659  0.00  0.00    +0.002 A 
ATOM     30  C   UNL     1      -3.288  -2.037   0.640  0.00  0.00    +0.024 A 
ATOM     31  C   UNL     1      -2.070  -1.798   0.023  0.00  0.00    +0.047 A 
BRANCH  26  33
ATOM     32  C   UNL     1      -0.425   1.460  -1.950  0.00  0.00    +0.090 C 
ATOM     33  S   UNL     1      -0.274  -0.244  -1.347  0.00  0.00    -0.127 S 
ENDBRANCH  26  33
ENDBRANCH  22  31
ENDBRANCH  21  23
ENDBRANCH  20  21
ENDBRANCH   1  20
TORSDOF 8
