REMARK  Name = ZINC50677476
REMARK  4 active torsions:
REMARK  status: ('A' for Active; 'I' for Inactive)
REMARK    1  A    between atoms: C_6  and  S_7
REMARK    2  A    between atoms: S_7  and  N_10
REMARK    3  A    between atoms: N_10  and  C_11
REMARK    4  A    between atoms: C_11  and  C_12
REMARK                            x       y       z     vdW  Elec       q    Type
REMARK                         _______ _______ _______ _____ _____    ______ ____
ROOT
ATOM      1  S   UNL     1      -1.423  -0.918   0.032  0.00  0.00    +0.062 S 
ATOM      2  O   UNL     1      -1.339  -1.793   1.148  0.00  0.00    -0.153 OA
ATOM      3  O   UNL     1      -2.384   0.125  -0.048  0.00  0.00    -0.153 OA
ENDROOT
BRANCH   1   9
ATOM      4  C   UNL     1       1.168  -0.439   0.771  0.00  0.00    +0.048 A 
ATOM      5  C   UNL     1       2.400   0.183   0.603  0.00  0.00    +0.038 A 
ATOM      6  C   UNL     1       2.579   1.054  -0.453  0.00  0.00    +0.128 A 
ATOM      7  N   UNL     1       1.597   1.303  -1.300  0.00  0.00    -0.238 NA
ATOM      8  C   UNL     1       0.410   0.731  -1.173  0.00  0.00    +0.143 A 
ATOM      9  C   UNL     1       0.159  -0.159  -0.133  0.00  0.00    +0.146 A 
ATOM     10  N   UNL     1      -0.596   1.022  -2.088  0.00  0.00    -0.342 N 
ATOM     11 BR   UNL     1       3.816  -0.162   1.808  0.00  0.00    -0.049 Br
ATOM     12  H   UNL     1      -0.457   1.708  -2.759  0.00  0.00    +0.144 HD
ATOM     13  H   UNL     1      -1.437   0.539  -2.054  0.00  0.00    +0.144 HD
ENDBRANCH   1   9
BRANCH   1  14
ATOM     14  N   UNL     1      -1.648  -1.873  -1.302  0.00  0.00    -0.185 NA
ATOM     15  H   UNL     1      -2.354  -1.665  -1.934  0.00  0.00    +0.148 HD
BRANCH  14  16
ATOM     16  C   UNL     1      -0.781  -3.031  -1.529  0.00  0.00    +0.144 C 
BRANCH  16  17
ATOM     17  C   UNL     1      -1.405  -3.931  -2.564  0.00  0.00    +0.005 A 
ATOM     18  C   UNL     1      -2.262  -4.950  -2.321  0.00  0.00    +0.109 A 
ATOM     19  N   UNL     1      -2.589  -5.505  -3.506  0.00  0.00    -0.284 N 
ATOM     20  H   UNL     1      -3.188  -6.256  -3.639  0.00  0.00    +0.188 HD
ATOM     21  N   UNL     1      -1.910  -4.804  -4.512  0.00  0.00    -0.182 NA
ATOM     22  C   UNL     1      -1.206  -3.858  -3.946  0.00  0.00    +0.139 A 
ENDBRANCH  16  17
ENDBRANCH  14  16
ENDBRANCH   1  14
TORSDOF 4
