REMARK  Name = ZINC31609515
REMARK  9 active torsions:
REMARK  status: ('A' for Active; 'I' for Inactive)
REMARK    1  A    between atoms: C_1  and  C_2
REMARK    2  A    between atoms: C_5  and  C_7
REMARK    3  A    between atoms: C_9  and  C_28
REMARK    4  A    between atoms: C_10  and  C_12
REMARK    5  A    between atoms: N_14  and  N_15
REMARK    6  A    between atoms: N_15  and  C_16
REMARK    7  A    between atoms: C_16  and  N_18
REMARK    8  A    between atoms: N_18  and  C_19
REMARK    9  A    between atoms: C_25  and  C_27
REMARK                            x       y       z     vdW  Elec       q    Type
REMARK                         _______ _______ _______ _____ _____    ______ ____
ROOT
ATOM      1  C   UNL     1      -4.489   0.617   7.950  0.00  0.00    +0.269 C 
ATOM      2  O   UNL     1      -4.772  -0.446   8.471  0.00  0.00    -0.268 OA
ATOM      3  N   UNL     1      -4.837   1.774   8.547  0.00  0.00    -0.231 N 
ATOM      4  H   UNL     1      -4.581   2.734   8.076  0.00  0.00    +0.173 HD
ENDROOT
BRANCH   1   8
ATOM      5  C   UNL     1      -2.476   1.088   4.371  0.00  0.00    +0.144 A 
ATOM      6  N   UNL     1      -2.693  -0.162   4.778  0.00  0.00    -0.240 NA
ATOM      7  C   UNL     1      -3.318  -0.418   5.892  0.00  0.00    +0.058 A 
ATOM      8  C   UNL     1      -3.770   0.638   6.675  0.00  0.00    +0.098 A 
ATOM      9  S   UNL     1      -3.224   2.031   5.694  0.00  0.00    -0.059 S 
ATOM     10  C   UNL     1      -3.549  -1.842   6.327  0.00  0.00    +0.067 C 
BRANCH   5  15
ATOM     11  C   UNL     1      -0.013   1.086   0.008  0.00  0.00    +0.086 C 
ATOM     12  C   UNL     1      -0.718   1.572   1.248  0.00  0.00    +0.103 A 
ATOM     13  C   UNL     1      -0.916   2.864   1.585  0.00  0.00    +0.045 A 
ATOM     14  C   UNL     1      -1.612   2.870   2.806  0.00  0.00    +0.052 A 
ATOM     15  C   UNL     1      -1.797   1.566   3.159  0.00  0.00    +0.160 A 
ATOM     16  O   UNL     1      -1.248   0.792   2.202  0.00  0.00    -0.458 OA
ENDBRANCH   5  15
ENDBRANCH   1   8
BRANCH   3  17
ATOM     17  N   UNL     1      -5.525   1.753   9.767  0.00  0.00    -0.246 N 
ATOM     18  H   UNL     1      -5.780   0.793  10.238  0.00  0.00    +0.172 HD
BRANCH  17  19
ATOM     19  C   UNL     1      -5.873   2.911  10.364  0.00  0.00    +0.147 C 
ATOM     20  S   UNL     1      -6.713   2.886  11.855  0.00  0.00    -0.017 S 
BRANCH  19  21
ATOM     21  N   UNL     1      -5.559   4.088   9.787  0.00  0.00    -0.322 N 
ATOM     22  H   UNL     1      -5.020   4.104   8.828  0.00  0.00    +0.148 HD
BRANCH  21  23
ATOM     23  C   UNL     1      -5.938   5.345  10.435  0.00  0.00    +0.075 C 
ATOM     24  C   UNL     1      -4.870   5.732  11.461  0.00  0.00    +0.022 C 
ATOM     25  C   UNL     1      -3.525   5.907  10.755  0.00  0.00    +0.002 C 
ATOM     26  C   UNL     1      -3.641   7.009   9.701  0.00  0.00    +0.000 C 
ATOM     27  C   UNL     1      -4.709   6.623   8.675  0.00  0.00    +0.005 C 
ATOM     28  C   UNL     1      -6.055   6.448   9.381  0.00  0.00    +0.006 C 
ATOM     29  C   UNL     1      -7.122   6.062   8.355  0.00  0.00    +0.009 C 
ENDBRANCH  21  23
ENDBRANCH  19  21
ENDBRANCH  17  19
ENDBRANCH   3  17
TORSDOF 6
