REMARK  Name = ZINC13151301
REMARK  5 active torsions:
REMARK  status: ('A' for Active; 'I' for Inactive)
REMARK    1  A    between atoms: C_4  and  S_7
REMARK    2  A    between atoms: S_7  and  N_10
REMARK    3  A    between atoms: N_10  and  C_11
REMARK    4  A    between atoms: C_23  and  S_25
REMARK    5  A    between atoms: S_25  and  C_26
REMARK                            x       y       z     vdW  Elec       q    Type
REMARK                         _______ _______ _______ _____ _____    ______ ____
ROOT
ATOM      1  C   UNL     1       3.567  -1.942   2.398  0.00  0.00    +0.125 C 
ATOM      2  C   UNL     1       2.631  -1.110   3.240  0.00  0.00    -0.019 A 
ATOM      3  C   UNL     1       1.616  -0.243   2.969  0.00  0.00    +0.006 A 
ATOM      4  C   UNL     1       0.926   0.382   4.010  0.00  0.00    +0.001 A 
ATOM      5  C   UNL     1       1.228   0.161   5.323  0.00  0.00    +0.008 A 
ATOM      6  C   UNL     1       2.269  -0.728   5.638  0.00  0.00    -0.017 A 
ATOM      7  C   UNL     1       2.949  -1.345   4.573  0.00  0.00    -0.009 A 
ATOM      8  C   UNL     1       3.996  -2.241   4.769  0.00  0.00    -0.024 A 
ATOM      9  C   UNL     1       4.365  -2.521   6.049  0.00  0.00    +0.005 A 
ATOM     10  C   UNL     1       3.703  -1.920   7.122  0.00  0.00    +0.001 A 
ATOM     11  C   UNL     1       2.676  -1.039   6.945  0.00  0.00    +0.008 A 
ATOM     12  C   UNL     1       4.468  -2.690   3.405  0.00  0.00    +0.108 C 
ENDROOT
BRANCH   1  13
ATOM     13  N   UNL     1       4.378  -1.079   1.536  0.00  0.00    -0.181 NA
ATOM     14  H   UNL     1       5.174  -0.651   1.888  0.00  0.00    +0.149 HD
BRANCH  13  15
ATOM     15  S   UNL     1       3.934  -0.832  -0.041  0.00  0.00    +0.059 S 
ATOM     16  O   UNL     1       3.674  -2.114  -0.595  0.00  0.00    -0.153 OA
ATOM     17  O   UNL     1       4.890   0.060  -0.597  0.00  0.00    -0.153 OA
BRANCH  15  21
ATOM     18  C   UNL     1      -0.017   1.378   0.010  0.00  0.00    +0.000 A 
ATOM     19  C   UNL     1       1.171   2.086   0.002  0.00  0.00    +0.002 A 
ATOM     20  C   UNL     1       2.377   1.411  -0.013  0.00  0.00    +0.028 A 
ATOM     21  C   UNL     1       2.396   0.029  -0.020  0.00  0.00    +0.105 A 
ATOM     22  C   UNL     1       1.208  -0.679  -0.012  0.00  0.00    +0.028 A 
ATOM     23  C   UNL     1       0.002  -0.004   0.002  0.00  0.00    +0.002 A 
ENDBRANCH  15  21
ENDBRANCH  13  15
ENDBRANCH   1  13
BRANCH  12  24
ATOM     24  S   UNL     1       4.260  -4.483   3.224  0.00  0.00    -0.074 S 
BRANCH  24  25
ATOM     25  C   UNL     1       5.453  -5.164   4.328  0.00  0.00    +0.211 A 
ATOM     26  N   UNL     1       5.670  -6.469   4.529  0.00  0.00    -0.188 NA
ATOM     27  C   UNL     1       6.629  -6.626   5.416  0.00  0.00    +0.209 A 
ATOM     28  N   UNL     1       7.046  -5.401   5.801  0.00  0.00    -0.246 N 
ATOM     29  H   UNL     1       7.743  -5.201   6.445  0.00  0.00    +0.192 HD
ATOM     30  N   UNL     1       6.275  -4.474   5.081  0.00  0.00    -0.144 NA
ATOM     31  N   UNL     1       7.123  -7.834   5.874  0.00  0.00    -0.328 N 
ATOM     32  H   UNL     1       6.758  -8.666   5.537  0.00  0.00    +0.145 HD
ATOM     33  H   UNL     1       7.835  -7.848   6.533  0.00  0.00    +0.145 HD
ENDBRANCH  24  25
ENDBRANCH  12  24
TORSDOF 5
