REMARK  Name = ZINC58884447
REMARK  4 active torsions:
REMARK  status: ('A' for Active; 'I' for Inactive)
REMARK    1  A    between atoms: C_4  and  N_7
REMARK    2  A    between atoms: N_10  and  C_11
REMARK    3  A    between atoms: C_15  and  N_17
REMARK    4  A    between atoms: N_20  and  C_21
REMARK                            x       y       z     vdW  Elec       q    Type
REMARK                         _______ _______ _______ _____ _____    ______ ____
ROOT
ATOM      1  C   UNL     1       4.959  -4.036   0.130  0.00  0.00    +0.037 A 
ATOM      2  C   UNL     1       3.769  -4.752   0.087  0.00  0.00    +0.023 A 
ATOM      3  C   UNL     1       3.793  -6.132   0.037  0.00  0.00    +0.004 A 
ATOM      4  C   UNL     1       5.000  -6.805   0.030  0.00  0.00    +0.023 A 
ATOM      5  C   UNL     1       6.193  -6.095   0.073  0.00  0.00    +0.037 A 
ATOM      6  C   UNL     1       6.173  -4.708   0.117  0.00  0.00    +0.046 A 
ENDROOT
BRANCH   1  10
ATOM      7  N   UNL     1       3.855  -0.660   0.792  0.00  0.00    -0.269 N 
ATOM      8  C   UNL     1       3.938  -2.005   0.831  0.00  0.00    +0.308 C 
ATOM      9  O   UNL     1       3.114  -2.647   1.453  0.00  0.00    -0.252 OA
ATOM     10  N   UNL     1       4.934  -2.638   0.180  0.00  0.00    -0.269 N 
ATOM     11  H   UNL     1       4.466  -0.153   0.235  0.00  0.00    +0.156 HD
ATOM     12  H   UNL     1       5.633  -2.124  -0.253  0.00  0.00    +0.156 HD
BRANCH   7  16
ATOM     13  C   UNL     1       0.973   1.316   3.061  0.00  0.00    +0.000 A 
ATOM     14  C   UNL     1       1.542   0.149   3.534  0.00  0.00    +0.002 A 
ATOM     15  C   UNL     1       2.498  -0.509   2.784  0.00  0.00    +0.023 A 
ATOM     16  C   UNL     1       2.886   0.004   1.554  0.00  0.00    +0.035 A 
ATOM     17  C   UNL     1       2.313   1.176   1.081  0.00  0.00    +0.023 A 
ATOM     18  C   UNL     1       1.358   1.829   1.835  0.00  0.00    +0.002 A 
ENDBRANCH   7  16
ENDBRANCH   1  10
BRANCH   5  19
ATOM     19  N   UNL     1       7.415  -6.777   0.066  0.00  0.00    -0.269 N 
ATOM     20  C   UNL     1       8.472  -6.274   0.734  0.00  0.00    +0.304 C 
ATOM     21  O   UNL     1       8.339  -5.280   1.421  0.00  0.00    -0.252 OA
ATOM     22  N   UNL     1       9.676  -6.873   0.641  0.00  0.00    -0.292 N 
ATOM     23  H   UNL     1       7.502  -7.613  -0.420  0.00  0.00    +0.156 HD
ATOM     24  H   UNL     1       9.782  -7.666   0.093  0.00  0.00    +0.151 HD
BRANCH  22  25
ATOM     25  C   UNL     1      10.824  -6.326   1.367  0.00  0.00    +0.111 C 
ATOM     26  C   UNL     1      12.118  -6.737   0.659  0.00  0.00    +0.068 C 
ATOM     27  C   UNL     1      13.297  -6.413   1.584  0.00  0.00    +0.231 C 
ATOM     28  O   UNL     1      13.193  -7.231   2.750  0.00  0.00    -0.492 OA
ATOM     29  C   UNL     1      11.996  -7.276   3.389  0.00  0.00    +0.125 A 
ATOM     30  C   UNL     1      10.827  -6.859   2.777  0.00  0.00    +0.015 A 
ATOM     31  C   UNL     1       9.627  -6.928   3.466  0.00  0.00    +0.009 A 
ATOM     32  C   UNL     1       9.593  -7.408   4.761  0.00  0.00    +0.001 A 
ATOM     33  C   UNL     1      10.761  -7.823   5.375  0.00  0.00    +0.004 A 
ATOM     34  C   UNL     1      11.957  -7.756   4.694  0.00  0.00    +0.046 A 
ENDBRANCH  22  25
ENDBRANCH   5  19
TORSDOF 4
