REMARK  Name = ZINC18053671
REMARK  3 active torsions:
REMARK  status: ('A' for Active; 'I' for Inactive)
REMARK    1  A    between atoms: C_1  and  C_2
REMARK    2  A    between atoms: C_3  and  C_16
REMARK    3  A    between atoms: N_5  and  C_7
REMARK                            x       y       z     vdW  Elec       q    Type
REMARK                         _______ _______ _______ _____ _____    ______ ____
ROOT
ATOM      1  C   UNL     1       2.349   1.501  -0.649  0.00  0.00    +0.214 C 
ATOM      2  N   UNL     1       1.144   2.046   0.002  0.00  0.00    -0.293 N 
ATOM      3  C   UNL     1      -0.016   1.318   0.009  0.00  0.00    +0.183 C 
ATOM      4  N   UNL     1       0.002  -0.004   0.002  0.00  0.00    -0.183 NA
ATOM      5  C   UNL     1       1.198  -0.633  -0.076  0.00  0.00    +0.236 A 
ATOM      6  N   UNL     1       2.360   0.058  -0.379  0.00  0.00    -0.285 N 
ATOM      7  C   UNL     1       3.383  -0.840  -0.372  0.00  0.00    +0.072 A 
ATOM      8  C   UNL     1       4.751  -0.720  -0.588  0.00  0.00    +0.028 A 
ATOM      9  C   UNL     1       5.510  -1.877  -0.502  0.00  0.00    +0.002 A 
ATOM     10  C   UNL     1       4.943  -3.106  -0.214  0.00  0.00    +0.002 A 
ATOM     11  C   UNL     1       3.586  -3.254   0.005  0.00  0.00    +0.030 A 
ATOM     12  C   UNL     1       2.799  -2.099  -0.075  0.00  0.00    +0.091 A 
ATOM     13  N   UNL     1       1.475  -1.905   0.082  0.00  0.00    -0.210 NA
ATOM     14  N   UNL     1      -1.218   1.972   0.018  0.00  0.00    -0.331 N 
ATOM     15  H   UNL     1       1.173   2.918   0.425  0.00  0.00    +0.151 HD
ATOM     16  H   UNL     1      -2.045   1.466   0.020  0.00  0.00    +0.145 HD
ATOM     17  H   UNL     1      -1.242   2.941   0.024  0.00  0.00    +0.145 HD
ENDROOT
BRANCH   1  20
ATOM     18  C   UNL     1       4.752   2.460  -2.479  0.00  0.00    +0.068 C 
ATOM     19  C   UNL     1       3.348   2.170  -2.943  0.00  0.00    +0.068 A 
ATOM     20  C   UNL     1       2.288   1.747  -2.135  0.00  0.00    +0.052 A 
ATOM     21  C   UNL     1       1.198   1.592  -2.924  0.00  0.00    +0.134 A 
ATOM     22  N   UNL     1       1.555   1.914  -4.185  0.00  0.00    -0.248 N 
ATOM     23  N   UNL     1       2.910   2.270  -4.172  0.00  0.00    -0.174 NA
ATOM     24 CL   UNL     1      -0.377   1.077  -2.406  0.00  0.00    -0.062 Cl
BRANCH  22  25
ATOM     25  C   UNL     1       0.681   1.890  -5.361  0.00  0.00    +0.131 C 
ATOM     26  C   UNL     1       1.246   0.903  -6.396  0.00  0.00    +0.051 C 
ATOM     27  C   UNL     1       0.493   1.126  -7.739  0.00  0.00    +0.168 C 
ATOM     28  S   UNL     1       0.390   2.965  -7.767  0.00  0.00    -0.029 S 
ATOM     29  O   UNL     1       1.511   3.480  -8.473  0.00  0.00    -0.174 OA
ATOM     30  O   UNL     1      -0.921   3.349  -8.158  0.00  0.00    -0.174 OA
ATOM     31  C   UNL     1       0.604   3.309  -5.973  0.00  0.00    +0.192 C 
ENDBRANCH  22  25
ENDBRANCH   1  20
TORSDOF 2
