REMARK  Name = ZINC41541247
REMARK  6 active torsions:
REMARK  status: ('A' for Active; 'I' for Inactive)
REMARK    1  A    between atoms: C_4  and  C_9
REMARK    2  A    between atoms: C_5  and  C_7
REMARK    3  A    between atoms: C_14  and  C_15
REMARK    4  A    between atoms: C_15  and  C_17
REMARK    5  A    between atoms: C_17  and  C_19
REMARK    6  A    between atoms: C_17  and  C_21
REMARK                            x       y       z     vdW  Elec       q    Type
REMARK                         _______ _______ _______ _____ _____    ______ ____
ROOT
ATOM      1  C   UNL     1       3.723  -0.661  -0.040  0.00  0.00    -0.006 A 
ATOM      2  C   UNL     1       4.591  -0.560   1.045  0.00  0.00    +0.009 A 
ATOM      3  C   UNL     1       5.802  -1.222   1.024  0.00  0.00    +0.001 A 
ATOM      4  C   UNL     1       6.166  -1.990  -0.070  0.00  0.00    +0.001 A 
ATOM      5  C   UNL     1       5.322  -2.104  -1.155  0.00  0.00    +0.012 A 
ATOM      6  C   UNL     1       4.089  -1.446  -1.152  0.00  0.00    +0.027 A 
ENDROOT
BRANCH   1  10
ATOM      7  C   UNL     1      -0.017   1.375   0.010  0.00  0.00    +0.001 A 
ATOM      8  C   UNL     1       1.168   2.093   0.002  0.00  0.00    +0.001 A 
ATOM      9  C   UNL     1       2.383   1.438  -0.013  0.00  0.00    +0.010 A 
ATOM     10  C   UNL     1       2.423   0.046  -0.022  0.00  0.00    +0.000 A 
ATOM     11  C   UNL     1       1.220  -0.685  -0.014  0.00  0.00    +0.059 A 
ATOM     12  C   UNL     1       0.002  -0.004   0.002  0.00  0.00    +0.019 A 
BRANCH  11  13
ATOM     13  C   UNL     1       1.245  -2.116  -0.023  0.00  0.00    +0.100 C 
ATOM     14  N   UNL     1       1.266  -3.252  -0.030  0.00  0.00    -0.191 NA
ENDBRANCH  11  13
ENDBRANCH   1  10
BRANCH   6  15
ATOM     15  C   UNL     1       3.183  -1.568  -2.302  0.00  0.00    +0.190 C 
ATOM     16  O   UNL     1       2.115  -0.992  -2.296  0.00  0.00    -0.290 OA
BRANCH  15  17
ATOM     17  C   UNL     1       3.579  -2.409  -3.488  0.00  0.00    +0.247 C 
BRANCH  17  18
ATOM     18  C   UNL     1       2.953  -1.843  -4.737  0.00  0.00    +0.221 A 
ATOM     19  N   UNL     1       1.675  -1.707  -4.930  0.00  0.00    -0.212 NA
ATOM     20  C   UNL     1       1.474  -1.165  -6.162  0.00  0.00    +0.110 A 
ATOM     21  C   UNL     1       0.335  -0.805  -6.885  0.00  0.00    +0.031 A 
ATOM     22  C   UNL     1       0.468  -0.265  -8.144  0.00  0.00    +0.002 A 
ATOM     23  C   UNL     1       1.726  -0.076  -8.698  0.00  0.00    +0.004 A 
ATOM     24  C   UNL     1       2.860  -0.428  -7.996  0.00  0.00    +0.048 A 
ATOM     25  C   UNL     1       2.744  -0.972  -6.726  0.00  0.00    +0.155 A 
ATOM     26  O   UNL     1       3.635  -1.402  -5.805  0.00  0.00    -0.438 OA
ENDBRANCH  17  18
BRANCH  17  27
ATOM     27  C   UNL     1       3.113  -3.790  -3.288  0.00  0.00    +0.084 C 
ATOM     28  N   UNL     1       2.753  -4.857  -3.134  0.00  0.00    -0.195 NA
ENDBRANCH  17  27
ENDBRANCH  15  17
ENDBRANCH   6  15
TORSDOF 6
