REMARK  Name = ZINC13978094
REMARK  10 active torsions:
REMARK  status: ('A' for Active; 'I' for Inactive)
REMARK    1  A    between atoms: C_1  and  C_2
REMARK    2  A    between atoms: C_2  and  C_3
REMARK    3  A    between atoms: C_2  and  C_4
REMARK    4  A    between atoms: C_4  and  C_5
REMARK    5  A    between atoms: N_7  and  C_8
REMARK    6  A    between atoms: C_11  and  C_14
REMARK    7  A    between atoms: N_16  and  N_17
REMARK    8  A    between atoms: C_18  and  C_20
REMARK    9  A    between atoms: C_20  and  O_21
REMARK   10  A    between atoms: O_21  and  C_22
REMARK                            x       y       z     vdW  Elec       q    Type
REMARK                         _______ _______ _______ _____ _____    ______ ____
ROOT
ATOM      1  C   UNL     1      -0.024   1.194   0.038  0.00  0.00    +0.260 C 
ATOM      2  O   UNL     1      -0.012  -0.022   0.041  0.00  0.00    -0.269 OA
ATOM      3  N   UNL     1       1.136   1.879   0.026  0.00  0.00    -0.230 N 
ATOM      4  H   UNL     1       1.126   2.849   0.024  0.00  0.00    +0.173 HD
ENDROOT
BRANCH   1   8
ATOM      5  C   UNL     1      -3.723   3.281   0.045  0.00  0.00    +0.033 A 
ATOM      6  C   UNL     1      -3.711   1.889   0.049  0.00  0.00    +0.024 A 
ATOM      7  C   UNL     1      -2.514   1.210   0.046  0.00  0.00    +0.015 A 
ATOM      8  C   UNL     1      -1.310   1.919   0.040  0.00  0.00    +0.038 A 
ATOM      9  C   UNL     1      -1.325   3.317   0.043  0.00  0.00    +0.015 A 
ATOM     10  C   UNL     1      -2.526   3.990   0.040  0.00  0.00    +0.024 A 
BRANCH   5  13
ATOM     11  C   UNL     1      -5.996   3.464  -0.621  0.00  0.00    +0.217 C 
ATOM     12  O   UNL     1      -5.917   2.377  -1.153  0.00  0.00    -0.275 OA
ATOM     13  N   UNL     1      -4.938   3.966   0.047  0.00  0.00    -0.285 N 
ATOM     14  H   UNL     1      -5.021   4.803   0.529  0.00  0.00    +0.155 HD
BRANCH  11  15
ATOM     15  C   UNL     1      -7.277   4.253  -0.705  0.00  0.00    +0.099 C 
BRANCH  15  17
ATOM     16  C   UNL     1      -9.647   4.207  -1.493  0.00  0.00    +0.008 C 
ATOM     17  C   UNL     1      -8.309   3.464  -1.512  0.00  0.00    -0.008 C 
ATOM     18  C   UNL     1      -7.827   3.320  -2.957  0.00  0.00    +0.008 C 
ENDBRANCH  15  17
ENDBRANCH  11  15
ENDBRANCH   5  13
ENDBRANCH   1   8
BRANCH   3  19
ATOM     19  N   UNL     1       2.356   1.191   0.018  0.00  0.00    -0.231 N 
ATOM     20  C   UNL     1       3.517   1.877   0.007  0.00  0.00    +0.267 C 
ATOM     21  O   UNL     1       3.505   3.089   0.004  0.00  0.00    -0.271 OA
ATOM     22  H   UNL     1       2.366   0.221   0.021  0.00  0.00    +0.173 HD
BRANCH  20  23
ATOM     23  C   UNL     1       4.829   1.136  -0.002  0.00  0.00    +0.326 C 
BRANCH  23  24
ATOM     24  O   UNL     1       5.906   2.075  -0.013  0.00  0.00    -0.481 OA
BRANCH  24  25
ATOM     25  C   UNL     1       7.167   1.568  -0.021  0.00  0.00    +0.139 A 
ATOM     26  C   UNL     1       7.364   0.195  -0.020  0.00  0.00    +0.048 A 
ATOM     27  C   UNL     1       8.646  -0.318  -0.029  0.00  0.00    +0.019 A 
ATOM     28  C   UNL     1       9.735   0.536  -0.040  0.00  0.00    +0.019 A 
ATOM     29  C   UNL     1       9.542   1.906  -0.042  0.00  0.00    +0.039 A 
ATOM     30  C   UNL     1       8.260   2.424  -0.038  0.00  0.00    +0.084 A 
ATOM     31 CL   UNL     1       8.018   4.143  -0.048  0.00  0.00    -0.080 Cl
ATOM     32 BR   UNL     1      11.489  -0.170  -0.051  0.00  0.00    -0.050 Br
ENDBRANCH  24  25
ENDBRANCH  23  24
ENDBRANCH  20  23
ENDBRANCH   3  19
TORSDOF 8
