REMARK  Name = ZINC15945840
REMARK  13 active torsions:
REMARK  status: ('A' for Active; 'I' for Inactive)
REMARK    1  A    between atoms: C_1  and  O_2
REMARK    2  A    between atoms: O_2  and  C_3
REMARK    3  A    between atoms: C_6  and  C_13
REMARK    4  A    between atoms: C_7  and  O_11
REMARK    5  A    between atoms: C_8  and  O_9
REMARK    6  A    between atoms: O_9  and  C_10
REMARK    7  A    between atoms: O_11  and  C_12
REMARK    8  A    between atoms: N_14  and  C_15
REMARK    9  A    between atoms: C_16  and  C_24
REMARK   10  A    between atoms: N_26  and  C_27
REMARK   11  A    between atoms: C_30  and  C_33
REMARK   12  A    between atoms: C_33  and  O_35
REMARK   13  A    between atoms: O_35  and  C_36
REMARK                            x       y       z     vdW  Elec       q    Type
REMARK                         _______ _______ _______ _____ _____    ______ ____
ROOT
ATOM      1  C   UNL     1      -6.321  -4.668   0.233  0.00  0.00    +0.114 A 
ATOM      2  C   UNL     1      -6.600  -6.029   0.062  0.00  0.00    +0.073 A 
ATOM      3  C   UNL     1      -7.942  -6.426  -0.092  0.00  0.00    -0.023 A 
ATOM      4  C   UNL     1      -8.878  -5.447  -0.062  0.00  0.00    -0.004 A 
ATOM      5  S   UNL     1      -7.956  -3.952   0.183  0.00  0.00    -0.073 S 
ATOM      6  C   UNL     1     -10.360  -5.601  -0.203  0.00  0.00    +0.043 C 
ATOM      7  C   UNL     1     -10.651  -7.003  -0.756  0.00  0.00    +0.005 C 
ATOM      8  C   UNL     1      -9.840  -8.025   0.046  0.00  0.00    +0.005 C 
ATOM      9  C   UNL     1      -8.354  -7.884  -0.283  0.00  0.00    +0.037 C 
ENDROOT
BRANCH   2  10
ATOM     10  C   UNL     1      -5.519  -7.019   0.043  0.00  0.00    +0.251 C 
ATOM     11  O   UNL     1      -5.157  -7.545   1.079  0.00  0.00    -0.270 OA
ATOM     12  N   UNL     1      -4.928  -7.348  -1.123  0.00  0.00    -0.281 N 
ATOM     13  H   UNL     1      -5.265  -6.987  -1.957  0.00  0.00    +0.155 HD
BRANCH  12  14
ATOM     14  C   UNL     1      -3.831  -8.207  -1.129  0.00  0.00    +0.034 A 
ATOM     15  C   UNL     1      -2.936  -8.198  -0.062  0.00  0.00    +0.024 A 
ATOM     16  C   UNL     1      -1.851  -9.045  -0.065  0.00  0.00    +0.017 A 
ATOM     17  C   UNL     1      -1.649  -9.915  -1.141  0.00  0.00    +0.059 A 
ATOM     18  C   UNL     1      -2.550  -9.922  -2.210  0.00  0.00    +0.017 A 
ATOM     19  C   UNL     1      -3.635  -9.076  -2.198  0.00  0.00    +0.024 A 
BRANCH  17  20
ATOM     20  C   UNL     1      -0.487 -10.824  -1.148  0.00  0.00    +0.339 C 
ATOM     21  O   UNL     1       0.295 -10.817  -0.218  0.00  0.00    -0.245 OA
BRANCH  20  22
ATOM     22  O   UNL     1      -0.293 -11.662  -2.185  0.00  0.00    -0.464 OA
ATOM     23  C   UNL     1       0.852 -12.514  -2.126  0.00  0.00    +0.280 C 
ENDBRANCH  20  22
ENDBRANCH  17  20
ENDBRANCH  12  14
ENDBRANCH   2  10
BRANCH   1  25
ATOM     24  C   UNL     1      -5.074  -2.758   0.550  0.00  0.00    +0.123 C 
ATOM     25  N   UNL     1      -5.128  -4.058   0.398  0.00  0.00    -0.247 NA
BRANCH  24  29
ATOM     26  C   UNL     1      -1.327  -0.833   1.070  0.00  0.00    +0.165 A 
ATOM     27  C   UNL     1      -2.499  -0.086   1.061  0.00  0.00    +0.050 A 
ATOM     28  C   UNL     1      -3.716  -0.705   0.892  0.00  0.00    +0.017 A 
ATOM     29  C   UNL     1      -3.778  -2.095   0.729  0.00  0.00    +0.039 A 
ATOM     30  C   UNL     1      -2.594  -2.851   0.739  0.00  0.00    +0.174 A 
ATOM     31  C   UNL     1      -1.373  -2.213   0.904  0.00  0.00    +0.204 A 
BRANCH  26  33
ATOM     32  C   UNL     1      -0.153   1.207   1.403  0.00  0.00    +0.277 C 
ATOM     33  O   UNL     1      -0.130  -0.213   1.237  0.00  0.00    -0.491 OA
ENDBRANCH  26  33
BRANCH  31  34
ATOM     34  O   UNL     1      -0.222  -2.939   0.910  0.00  0.00    -0.488 OA
ATOM     35  C   UNL     1       0.228  -3.433   2.173  0.00  0.00    +0.277 C 
ENDBRANCH  31  34
BRANCH  30  36
ATOM     36  O   UNL     1      -2.644  -4.199   0.582  0.00  0.00    -0.491 OA
ATOM     37  C   UNL     1      -2.566  -4.700  -0.754  0.00  0.00    +0.277 C 
ENDBRANCH  30  36
ENDBRANCH  24  29
ENDBRANCH   1  25
TORSDOF 9
