REMARK  Name = ZINC60280588
REMARK  6 active torsions:
REMARK  status: ('A' for Active; 'I' for Inactive)
REMARK    1  A    between atoms: C_1  and  C_2
REMARK    2  A    between atoms: C_2  and  C_3
REMARK    3  A    between atoms: C_2  and  C_4
REMARK    4  A    between atoms: C_4  and  N_5
REMARK    5  A    between atoms: C_7  and  C_13
REMARK    6  A    between atoms: C_9  and  C_10
REMARK                            x       y       z     vdW  Elec       q    Type
REMARK                         _______ _______ _______ _____ _____    ______ ____
ROOT
ATOM      1  N   UNL     1      -1.416  -1.993  -0.116  0.00  0.00    -0.278 N 
ATOM      2  C   UNL     1      -1.446  -2.681  -1.310  0.00  0.00    +0.101 C 
ATOM      3  C   UNL     1      -1.412  -4.143  -0.907  0.00  0.00    +0.175 C 
ATOM      4  N   UNL     1      -1.363  -4.103   0.563  0.00  0.00    -0.363 N 
ATOM      5  C   UNL     1      -1.363  -2.870   0.931  0.00  0.00    +0.080 C 
ATOM      6  N   UNL     1      -1.493  -2.190  -2.504  0.00  0.00    -0.388 N 
ATOM      7  H   UNL     1      -1.512  -1.229  -2.633  0.00  0.00    +0.157 HD
ATOM      8  H   UNL     1      -1.511  -2.783  -3.272  0.00  0.00    +0.157 HD
ATOM      9  H   UNL     1      -1.333  -4.872   1.153  0.00  0.00    +0.162 HD
ENDROOT
BRANCH   3  10
ATOM     10  C   UNL     1      -2.657  -4.851  -1.376  0.00  0.00    +0.017 A 
ATOM     11  C   UNL     1      -3.736  -4.989  -0.523  0.00  0.00    +0.010 A 
ATOM     12  C   UNL     1      -4.878  -5.637  -0.953  0.00  0.00    +0.016 A 
ATOM     13  C   UNL     1      -4.943  -6.149  -2.237  0.00  0.00    +0.021 A 
ATOM     14  C   UNL     1      -3.864  -6.012  -3.091  0.00  0.00    +0.054 A 
ATOM     15  C   UNL     1      -2.722  -5.357  -2.663  0.00  0.00    +0.130 A 
ATOM     16  F   UNL     1      -1.669  -5.218  -3.498  0.00  0.00    -0.205 F 
ATOM     17 BR   UNL     1      -6.507  -7.036  -2.823  0.00  0.00    -0.050 Br
ENDBRANCH   3  10
BRANCH   5  18
ATOM     18  C   UNL     1      -1.314  -2.437   2.373  0.00  0.00    +0.051 C 
ATOM     19  C   UNL     1      -0.330  -3.160   3.295  0.00  0.00    +0.011 C 
ATOM     20  C   UNL     1      -1.833  -3.420   3.424  0.00  0.00    +0.011 C 
ENDBRANCH   5  18
BRANCH   1  21
ATOM     21  C   UNL     1      -1.433  -0.534   0.013  0.00  0.00    +0.116 C 
BRANCH  21  23
ATOM     22  C   UNL     1      -0.019   1.526   0.010  0.00  0.00    +0.009 C 
ATOM     23  C   UNL     1       0.002  -0.004   0.002  0.00  0.00    +0.001 C 
ATOM     24  C   UNL     1       0.742  -0.511   1.242  0.00  0.00    +0.009 C 
ENDBRANCH  21  23
ENDBRANCH   1  21
TORSDOF 4
