REMARK  Name = ZINC21981759
REMARK  4 active torsions:
REMARK  status: ('A' for Active; 'I' for Inactive)
REMARK    1  A    between atoms: C_1  and  O_2
REMARK    2  A    between atoms: O_2  and  C_3
REMARK    3  A    between atoms: C_3  and  C_5
REMARK    4  A    between atoms: C_9  and  N_11
REMARK                            x       y       z     vdW  Elec       q    Type
REMARK                         _______ _______ _______ _____ _____    ______ ____
ROOT
ATOM      1  C   UNL     1       1.105   4.003   0.013  0.00  0.00    +0.151 A 
ATOM      2  C   UNL     1       1.161   2.612   0.005  0.00  0.00    +0.050 A 
ATOM      3  C   UNL     1      -0.024   1.887   0.012  0.00  0.00    +0.023 A 
ATOM      4  C   UNL     1      -1.223   2.577   0.022  0.00  0.00    +0.058 A 
ATOM      5  C   UNL     1      -1.207   3.972   0.034  0.00  0.00    +0.118 A 
ATOM      6  N   UNL     1      -0.064   4.634   0.027  0.00  0.00    -0.226 NA
ATOM      7 BR   UNL     1       0.002  -0.004   0.002  0.00  0.00    -0.050 Br
ENDROOT
BRANCH   5   8
ATOM      8  N   UNL     1      -2.407   4.672   0.048  0.00  0.00    -0.343 N 
ATOM      9  H   UNL     1      -2.401   5.772   0.058  0.00  0.00    +0.144 HD
ATOM     10  H   UNL     1      -3.362   4.127   0.050  0.00  0.00    +0.144 HD
ENDBRANCH   5   8
BRANCH   1  11
ATOM     11  C   UNL     1       2.361   4.787   0.005  0.00  0.00    +0.358 C 
ATOM     12  O   UNL     1       3.433   4.216  -0.007  0.00  0.00    -0.243 OA
BRANCH  11  14
ATOM     13  C   UNL     1       3.585   6.836   0.005  0.00  0.00    +0.280 C 
ATOM     14  O   UNL     1       2.315   6.133   0.012  0.00  0.00    -0.463 OA
ENDBRANCH  11  14
ENDBRANCH   1  11
TORSDOF 3
