REMARK  Name = ZINC36298928
REMARK  10 active torsions:
REMARK  status: ('A' for Active; 'I' for Inactive)
REMARK    1  A    between atoms: C_1  and  C_2
REMARK    2  A    between atoms: C_7  and  S_8
REMARK    3  A    between atoms: S_8  and  N_11
REMARK    4  A    between atoms: N_11  and  C_12
REMARK    5  A    between atoms: C_12  and  C_13
REMARK    6  A    between atoms: C_13  and  C_15
REMARK    7  A    between atoms: C_13  and  N_19
REMARK    8  A    between atoms: C_15  and  C_16
REMARK    9  A    between atoms: C_16  and  C_17
REMARK   10  A    between atoms: C_16  and  C_18
REMARK                            x       y       z     vdW  Elec       q    Type
REMARK                         _______ _______ _______ _____ _____    ______ ____
ROOT
ATOM      1  N   UNL     1       1.177   1.030   2.916  0.00  0.00    -0.192 NA
ATOM      2  H   UNL     1       1.879   0.857   3.562  0.00  0.00    +0.148 HD
ENDROOT
BRANCH   1   3
ATOM      3  S   UNL     1      -0.069  -0.047   2.739  0.00  0.00    +0.059 S 
ATOM      4  O   UNL     1      -1.271   0.709   2.799  0.00  0.00    -0.153 OA
ATOM      5  O   UNL     1       0.197  -1.126   3.624  0.00  0.00    -0.153 OA
BRANCH   3  12
ATOM      6  C   UNL     1       2.224  -1.738   1.726  0.00  0.00    +0.046 C 
ATOM      7  C   UNL     1       1.124  -1.462   0.733  0.00  0.00    -0.024 A 
ATOM      8  C   UNL     1       1.203  -1.979  -0.547  0.00  0.00    +0.006 A 
ATOM      9  C   UNL     1       0.194  -1.727  -1.457  0.00  0.00    +0.015 A 
ATOM     10  C   UNL     1      -0.895  -0.958  -1.087  0.00  0.00    +0.020 A 
ATOM     11  C   UNL     1      -0.973  -0.442   0.193  0.00  0.00    +0.044 A 
ATOM     12  C   UNL     1       0.034  -0.698   1.105  0.00  0.00    +0.109 A 
ATOM     13 BR   UNL     1      -2.275  -0.612  -2.332  0.00  0.00    -0.050 Br
ENDBRANCH   3  12
ENDBRANCH   1   3
BRANCH   1  14
ATOM     14  C   UNL     1       1.217   2.244   2.098  0.00  0.00    +0.090 C 
BRANCH  14  15
ATOM     15  C   UNL     1       2.207   3.238   2.708  0.00  0.00    -0.059 C 
BRANCH  15  16
ATOM     16  N   UNL     1       1.848   3.488   4.111  0.00  0.00    +0.381 N 
ATOM     17  H   UNL     1       1.880   2.622   4.626  0.00  0.00    -0.090 HD
ATOM     18  H   UNL     1       2.501   4.144   4.513  0.00  0.00    -0.090 HD
ATOM     19  H   UNL     1       0.915   3.872   4.155  0.00  0.00    -0.090 HD
ENDBRANCH  15  16
BRANCH  15  20
ATOM     20  C   UNL     1       2.158   4.553   1.927  0.00  0.00    -0.012 C 
BRANCH  20  21
ATOM     21  C   UNL     1       3.235   5.502   2.458  0.00  0.00    -0.019 C 
ATOM     22  C   UNL     1       4.618   4.913   2.174  0.00  0.00    +0.007 C 
ATOM     23  C   UNL     1       3.105   6.859   1.763  0.00  0.00    +0.007 C 
ENDBRANCH  20  21
ENDBRANCH  15  20
ENDBRANCH  14  15
ENDBRANCH   1  14
TORSDOF 7
