REMARK  Name = ZINC36544764
REMARK  10 active torsions:
REMARK  status: ('A' for Active; 'I' for Inactive)
REMARK    1  A    between atoms: C_4  and  C_7
REMARK    2  A    between atoms: C_8  and  C_9
REMARK    3  A    between atoms: N_11  and  C_12
REMARK    4  A    between atoms: N_11  and  C_19
REMARK    5  A    between atoms: C_19  and  C_21
REMARK    6  A    between atoms: C_19  and  C_30
REMARK    7  A    between atoms: C_22  and  O_29
REMARK    8  A    between atoms: C_24  and  O_28
REMARK    9  A    between atoms: C_26  and  O_27
REMARK   10  A    between atoms: N_32  and  C_33
REMARK                            x       y       z     vdW  Elec       q    Type
REMARK                         _______ _______ _______ _____ _____    ______ ____
ROOT
ATOM      1  C   UNL     1       8.347  -1.909   0.032  0.00  0.00    +0.205 C 
ENDROOT
BRANCH   1   2
ATOM      2  C   UNL     1       9.261  -1.381  -1.044  0.00  0.00    +0.065 A 
ATOM      3  C   UNL     1       9.423  -0.014  -1.207  0.00  0.00    +0.129 A 
ATOM      4  C   UNL     1      10.264   0.471  -2.198  0.00  0.00    +0.091 A 
ATOM      5  C   UNL     1      10.943  -0.411  -3.025  0.00  0.00    +0.124 A 
ATOM      6  C   UNL     1      10.781  -1.778  -2.861  0.00  0.00    +0.091 A 
ATOM      7  C   UNL     1       9.943  -2.264  -1.868  0.00  0.00    +0.129 A 
BRANCH   7   8
ATOM      8  O   UNL     1       9.788  -3.604  -1.705  0.00  0.00    -0.506 OA
ATOM      9  H   UNL     1       9.068  -3.983  -2.227  0.00  0.00    +0.292 HD
ENDBRANCH   7   8
BRANCH   5  10
ATOM     10  O   UNL     1      11.766   0.064  -3.996  0.00  0.00    -0.507 OA
ATOM     11  H   UNL     1      12.681   0.190  -3.709  0.00  0.00    +0.292 HD
ENDBRANCH   5  10
BRANCH   3  12
ATOM     12  O   UNL     1       8.758   0.851  -0.397  0.00  0.00    -0.506 OA
ATOM     13  H   UNL     1       9.242   1.088   0.406  0.00  0.00    +0.292 HD
ENDBRANCH   3  12
ENDBRANCH   1   2
BRANCH   1  14
ATOM     14  C   UNL     1       8.727  -1.299   1.357  0.00  0.00    +0.239 C 
ATOM     15  O   UNL     1       7.920  -0.636   1.973  0.00  0.00    -0.273 OA
ATOM     16  N   UNL     1       9.964  -1.491   1.857  0.00  0.00    -0.311 N 
ATOM     17  H   UNL     1      10.609  -2.021   1.364  0.00  0.00    +0.149 HD
BRANCH  16  18
ATOM     18  C   UNL     1      10.333  -0.898   3.144  0.00  0.00    +0.073 C 
ATOM     19  C   UNL     1      10.804   0.541   2.927  0.00  0.00    +0.022 C 
ATOM     20  C   UNL     1      11.190   1.160   4.272  0.00  0.00    +0.002 C 
ATOM     21  C   UNL     1      12.319   0.344   4.904  0.00  0.00    +0.000 C 
ATOM     22  C   UNL     1      11.849  -1.095   5.121  0.00  0.00    +0.002 C 
ATOM     23  C   UNL     1      11.463  -1.714   3.776  0.00  0.00    +0.022 C 
ENDBRANCH  16  18
ENDBRANCH   1  14
BRANCH   1  26
ATOM     24  C   UNL     1       6.013  -2.514  -0.322  0.00  0.00    +0.297 C 
ATOM     25  O   UNL     1       6.309  -3.671  -0.087  0.00  0.00    -0.260 OA
ATOM     26  N   UNL     1       6.961  -1.556  -0.288  0.00  0.00    -0.243 N 
BRANCH  26  27
ATOM     27  C   UNL     1       6.622  -0.227  -0.558  0.00  0.00    +0.057 A 
ATOM     28  C   UNL     1       6.248   0.620   0.476  0.00  0.00    +0.025 A 
ATOM     29  C   UNL     1       5.914   1.933   0.206  0.00  0.00    +0.002 A 
ATOM     30  C   UNL     1       5.951   2.405  -1.093  0.00  0.00    +0.002 A 
ATOM     31  C   UNL     1       6.323   1.565  -2.127  0.00  0.00    +0.022 A 
ATOM     32  C   UNL     1       6.665   0.252  -1.863  0.00  0.00    +0.062 A 
ATOM     33 CL   UNL     1       7.139  -0.800  -3.159  0.00  0.00    -0.082 Cl
ENDBRANCH  26  27
BRANCH  24  35
ATOM     34  C   UNL     1       3.549  -1.887  -0.891  0.00  0.00    -0.057 C 
ATOM     35  C   UNL     1       4.659  -2.170  -0.635  0.00  0.00    -0.002 C 
BRANCH  34  39
ATOM     36  C   UNL     1      -0.425  -0.878  -1.811  0.00  0.00    +0.000 A 
ATOM     37  C   UNL     1       0.545   0.108  -1.776  0.00  0.00    +0.001 A 
ATOM     38  C   UNL     1       1.851  -0.215  -1.475  0.00  0.00    +0.017 A 
ATOM     39  C   UNL     1       2.194  -1.543  -1.204  0.00  0.00    +0.025 A 
ATOM     40  C   UNL     1       1.208  -2.534  -1.241  0.00  0.00    +0.017 A 
ATOM     41  C   UNL     1      -0.094  -2.195  -1.544  0.00  0.00    +0.001 A 
ENDBRANCH  34  39
ENDBRANCH  24  35
ENDBRANCH   1  26
TORSDOF 10
