REMARK  Name = ZINC36579161
REMARK  17 active torsions:
REMARK  status: ('A' for Active; 'I' for Inactive)
REMARK    1  A    between atoms: C_1  and  C_2
REMARK    2  A    between atoms: C_2  and  C_3
REMARK    3  A    between atoms: C_2  and  C_4
REMARK    4  A    between atoms: C_2  and  N_5
REMARK    5  A    between atoms: C_6  and  C_8
REMARK    6  A    between atoms: C_8  and  C_10
REMARK    7  A    between atoms: C_8  and  N_19
REMARK    8  A    between atoms: C_11  and  O_18
REMARK    9  A    between atoms: C_13  and  O_17
REMARK   10  A    between atoms: C_15  and  O_16
REMARK   11  A    between atoms: N_19  and  C_36
REMARK   12  A    between atoms: C_20  and  C_22
REMARK   13  A    between atoms: C_22  and  C_30
REMARK   14  A    between atoms: C_23  and  C_24
REMARK   15  A    between atoms: C_36  and  C_37
REMARK   16  A    between atoms: C_36  and  C_38
REMARK   17  A    between atoms: C_36  and  C_39
REMARK                            x       y       z     vdW  Elec       q    Type
REMARK                         _______ _______ _______ _____ _____    ______ ____
ROOT
ATOM      1  C   UNL     1       0.883   1.084  -2.523  0.00  0.00    +0.200 C 
ENDROOT
BRANCH   1   2
ATOM      2  C   UNL     1      -0.124   0.508  -3.485  0.00  0.00    +0.065 A 
ATOM      3  C   UNL     1       0.268   0.146  -4.765  0.00  0.00    +0.129 A 
ATOM      4  C   UNL     1      -0.659  -0.384  -5.650  0.00  0.00    +0.091 A 
ATOM      5  C   UNL     1      -1.978  -0.553  -5.255  0.00  0.00    +0.124 A 
ATOM      6  C   UNL     1      -2.369  -0.192  -3.974  0.00  0.00    +0.091 A 
ATOM      7  C   UNL     1      -1.441   0.334  -3.088  0.00  0.00    +0.129 A 
BRANCH   7   8
ATOM      8  O   UNL     1      -1.824   0.684  -1.832  0.00  0.00    -0.506 OA
ATOM      9  H   UNL     1      -2.128   1.599  -1.753  0.00  0.00    +0.292 HD
ENDBRANCH   7   8
BRANCH   5  10
ATOM     10  O   UNL     1      -2.886  -1.071  -6.122  0.00  0.00    -0.507 OA
ATOM     11  H   UNL     1      -2.959  -2.035  -6.086  0.00  0.00    +0.292 HD
ENDBRANCH   5  10
BRANCH   3  12
ATOM     12  O   UNL     1       1.560   0.311  -5.152  0.00  0.00    -0.506 OA
ATOM     13  H   UNL     1       2.137  -0.431  -4.924  0.00  0.00    +0.292 HD
ENDBRANCH   3  12
ENDBRANCH   1   2
BRANCH   1  15
ATOM     14  N   UNL     1      -0.079   3.327  -2.922  0.00  0.00    -0.309 N 
ATOM     15  C   UNL     1       1.021   2.564  -2.768  0.00  0.00    +0.239 C 
ATOM     16  O   UNL     1       2.123   3.069  -2.825  0.00  0.00    -0.273 OA
ATOM     17  H   UNL     1      -0.960   2.923  -2.876  0.00  0.00    +0.149 HD
BRANCH  14  19
ATOM     18  C   UNL     1       0.850   4.999  -4.446  0.00  0.00    +0.031 C 
ATOM     19  C   UNL     1       0.055   4.767  -3.159  0.00  0.00    +0.026 C 
ATOM     20  C   UNL     1       0.790   5.411  -1.982  0.00  0.00    +0.031 C 
ATOM     21  C   UNL     1      -1.334   5.393  -3.298  0.00  0.00    +0.031 C 
ENDBRANCH  14  19
ENDBRANCH   1  15
BRANCH   1  22
ATOM     22  N   UNL     1       2.180   0.432  -2.726  0.00  0.00    -0.277 N 
ATOM     23  C   UNL     1       2.316  -0.887  -2.484  0.00  0.00    +0.248 C 
ATOM     24  O   UNL     1       3.409  -1.412  -2.579  0.00  0.00    -0.270 OA
BRANCH  22  25
ATOM     25  C   UNL     1       3.328   1.214  -3.191  0.00  0.00    +0.030 C 
ATOM     26  C   UNL     1       3.833   2.104  -2.054  0.00  0.00    +0.031 C 
ATOM     27  C   UNL     1       4.445   0.267  -3.632  0.00  0.00    +0.031 C 
ATOM     28  C   UNL     1       2.904   2.089  -4.373  0.00  0.00    +0.031 C 
ENDBRANCH  22  25
BRANCH  23  29
ATOM     29  C   UNL     1       1.143  -1.691  -2.105  0.00  0.00    +0.045 C 
ATOM     30  C   UNL     1       0.544  -1.493  -0.900  0.00  0.00    +0.021 C 
BRANCH  30  31
ATOM     31  C   UNL     1       1.187  -0.639   0.109  0.00  0.00    -0.024 A 
ATOM     32  C   UNL     1       0.406   0.108   0.998  0.00  0.00    +0.008 A 
ATOM     33  C   UNL     1       1.017   0.906   1.942  0.00  0.00    +0.001 A 
ATOM     34  C   UNL     1       2.398   0.970   2.011  0.00  0.00    +0.000 A 
ATOM     35  C   UNL     1       3.177   0.234   1.135  0.00  0.00    +0.001 A 
ATOM     36  C   UNL     1       2.583  -0.574   0.189  0.00  0.00    +0.008 A 
ENDBRANCH  30  31
BRANCH  29  37
ATOM     37  C   UNL     1       0.616  -2.715  -3.035  0.00  0.00    -0.013 A 
ATOM     38  C   UNL     1       1.450  -3.727  -3.509  0.00  0.00    +0.008 A 
ATOM     39  C   UNL     1       0.953  -4.679  -4.375  0.00  0.00    +0.001 A 
ATOM     40  C   UNL     1      -0.371  -4.630  -4.774  0.00  0.00    +0.000 A 
ATOM     41  C   UNL     1      -1.204  -3.628  -4.308  0.00  0.00    +0.001 A 
ATOM     42  C   UNL     1      -0.720  -2.675  -3.437  0.00  0.00    +0.008 A 
ENDBRANCH  29  37
ENDBRANCH  23  29
ENDBRANCH   1  22
TORSDOF 11
