REMARK  Name = ZINC37934214
REMARK  5 active torsions:
REMARK  status: ('A' for Active; 'I' for Inactive)
REMARK    1  A    between atoms: C_2  and  N_19
REMARK    2  A    between atoms: C_4  and  S_15
REMARK    3  A    between atoms: C_6  and  N_7
REMARK    4  A    between atoms: C_11  and  O_14
REMARK    5  A    between atoms: S_15  and  N_18
REMARK                            x       y       z     vdW  Elec       q    Type
REMARK                         _______ _______ _______ _____ _____    ______ ____
ROOT
ATOM      1  C   UNL     1      -0.017   1.383  -0.007  0.00  0.00    +0.046 A 
ATOM      2  C   UNL     1       1.177   2.091  -0.014  0.00  0.00    +0.028 A 
ATOM      3  C   UNL     1       2.388   1.407  -0.013  0.00  0.00    +0.051 A 
ATOM      4  C   UNL     1       2.403   0.026  -0.004  0.00  0.00    +0.108 A 
ATOM      5  C   UNL     1       1.216  -0.681   0.003  0.00  0.00    +0.051 A 
ATOM      6  C   UNL     1       0.002  -0.004   0.002  0.00  0.00    +0.033 A 
ENDROOT
BRANCH   6   7
ATOM      7  N   UNL     1      -1.197  -0.720   0.010  0.00  0.00    -0.327 N 
ATOM      8  C   UNL     1      -1.196  -2.185  -0.102  0.00  0.00    +0.105 C 
ATOM      9  C   UNL     1      -1.994  -2.769   1.068  0.00  0.00    +0.021 C 
ATOM     10  C   UNL     1      -3.390  -2.142   1.092  0.00  0.00    +0.034 C 
ATOM     11  C   UNL     1      -3.268  -0.630   1.298  0.00  0.00    +0.132 C 
ATOM     12  C   UNL     1      -2.484  -0.022   0.137  0.00  0.00    +0.136 C 
BRANCH  11  13
ATOM     13  O   UNL     1      -4.573  -0.050   1.351  0.00  0.00    -0.390 OA
ATOM     14  H   UNL     1      -5.126  -0.392   2.067  0.00  0.00    +0.210 HD
ENDBRANCH  11  13
ENDBRANCH   6   7
BRANCH   4  15
ATOM     15  S   UNL     1       3.939  -0.836  -0.003  0.00  0.00    +0.056 S 
ATOM     16  O   UNL     1       3.683  -2.124  -0.545  0.00  0.00    -0.153 OA
ATOM     17  O   UNL     1       4.902   0.048  -0.562  0.00  0.00    -0.153 OA
BRANCH  15  18
ATOM     18  N   UNL     1       4.370  -1.066   1.580  0.00  0.00    -0.204 NA
ATOM     19  H   UNL     1       4.897  -1.841   1.832  0.00  0.00    +0.144 HD
ATOM     20  H   UNL     1       4.097  -0.425   2.255  0.00  0.00    +0.144 HD
ENDBRANCH  15  18
ENDBRANCH   4  15
BRANCH   2  21
ATOM     21  N   UNL     1       1.163   3.487  -0.024  0.00  0.00    -0.358 N 
ATOM     22  H   UNL     1       0.318   3.963  -0.025  0.00  0.00    +0.142 HD
ATOM     23  H   UNL     1       1.998   3.981  -0.029  0.00  0.00    +0.142 HD
ENDBRANCH   2  21
TORSDOF 5
