REMARK  Name = ZINC67279654
REMARK  8 active torsions:
REMARK  status: ('A' for Active; 'I' for Inactive)
REMARK    1  A    between atoms: C_4  and  O_22
REMARK    2  A    between atoms: C_5  and  N_7
REMARK    3  A    between atoms: N_10  and  C_11
REMARK    4  A    between atoms: C_11  and  C_12
REMARK    5  A    between atoms: C_12  and  C_15
REMARK    6  A    between atoms: O_22  and  C_23
REMARK    7  A    between atoms: C_23  and  C_24
REMARK    8  A    between atoms: C_24  and  C_25
REMARK                            x       y       z     vdW  Elec       q    Type
REMARK                         _______ _______ _______ _____ _____    ______ ____
ROOT
ATOM      1  N   UNL     1       1.247  -2.088  -0.020  0.00  0.00    -0.266 N 
ATOM      2  C   UNL     1       0.094  -2.777   0.088  0.00  0.00    +0.304 C 
ATOM      3  O   UNL     1      -0.968  -2.186   0.101  0.00  0.00    -0.253 OA
ATOM      4  N   UNL     1       0.118  -4.122   0.181  0.00  0.00    -0.298 N 
ATOM      5  H   UNL     1       2.088  -2.562  -0.113  0.00  0.00    +0.156 HD
ATOM      6  H   UNL     1       0.966  -4.593   0.171  0.00  0.00    +0.150 HD
ENDROOT
BRANCH   1  11
ATOM      7  C   UNL     1       0.176   1.368   0.646  0.00  0.00    +0.002 A 
ATOM      8  C   UNL     1       1.198   2.083   0.048  0.00  0.00    +0.004 A 
ATOM      9  C   UNL     1       2.239   1.418  -0.574  0.00  0.00    +0.047 A 
ATOM     10  C   UNL     1       2.260   0.033  -0.599  0.00  0.00    +0.142 A 
ATOM     11  C   UNL     1       1.231  -0.687   0.003  0.00  0.00    +0.077 A 
ATOM     12  C   UNL     1       0.191  -0.013   0.625  0.00  0.00    +0.027 A 
BRANCH  10  13
ATOM     13  O   UNL     1       3.283  -0.622  -1.211  0.00  0.00    -0.490 OA
BRANCH  13  14
ATOM     14  C   UNL     1       4.303   0.182  -1.808  0.00  0.00    +0.238 C 
BRANCH  14  15
ATOM     15  C   UNL     1       5.360  -0.725  -2.443  0.00  0.00    +0.136 C 
BRANCH  15  16
ATOM     16  C   UNL     1       6.435   0.123  -3.072  0.00  0.00    +0.214 C 
ATOM     17  O   UNL     1       6.364   1.332  -3.019  0.00  0.00    -0.276 OA
ATOM     18  N   UNL     1       7.477  -0.464  -3.695  0.00  0.00    -0.329 N 
ATOM     19  H   UNL     1       7.534  -1.431  -3.738  0.00  0.00    +0.145 HD
ATOM     20  H   UNL     1       8.169   0.082  -4.100  0.00  0.00    +0.145 HD
ENDBRANCH  15  16
ENDBRANCH  14  15
ENDBRANCH  13  14
ENDBRANCH  10  13
ENDBRANCH   1  11
BRANCH   4  21
ATOM     21  C   UNL     1      -1.135  -4.870   0.298  0.00  0.00    +0.117 C 
BRANCH  21  22
ATOM     22  C   UNL     1      -0.826  -6.353   0.513  0.00  0.00    +0.011 C 
ATOM     23  C   UNL     1      -1.412  -7.025   1.756  0.00  0.00    +0.014 C 
ATOM     24  C   UNL     1       0.086  -6.722   1.685  0.00  0.00    +0.014 C 
BRANCH  22  25
ATOM     25  C   UNL     1      -0.717  -7.183  -0.741  0.00  0.00    -0.040 A 
ATOM     26  C   UNL     1      -1.757  -7.198  -1.651  0.00  0.00    +0.005 A 
ATOM     27  C   UNL     1      -1.658  -7.959  -2.801  0.00  0.00    +0.020 A 
ATOM     28  C   UNL     1      -0.517  -8.704  -3.041  0.00  0.00    +0.041 A 
ATOM     29  C   UNL     1       0.523  -8.688  -2.130  0.00  0.00    +0.020 A 
ATOM     30  C   UNL     1       0.425  -7.923  -0.983  0.00  0.00    +0.005 A 
ATOM     31 CL   UNL     1      -0.392  -9.659  -4.485  0.00  0.00    -0.084 Cl
ENDBRANCH  22  25
ENDBRANCH  21  22
ENDBRANCH   4  21
TORSDOF 8
