REMARK  Name = ZINC04394823
REMARK  4 active torsions:
REMARK  status: ('A' for Active; 'I' for Inactive)
REMARK    1  A    between atoms: C_3  and  O_11
REMARK    2  A    between atoms: C_6  and  C_7
REMARK    3  A    between atoms: N_8  and  O_9
REMARK    4  A    between atoms: O_11  and  C_12
REMARK                            x       y       z     vdW  Elec       q    Type
REMARK                         _______ _______ _______ _____ _____    ______ ____
ROOT
ATOM      1  C   UNL     1       0.005   1.379   0.027  0.00  0.00    +0.015 A 
ATOM      2  C   UNL     1       1.196   2.071  -0.009  0.00  0.00    +0.047 A 
ATOM      3  C   UNL     1       2.399   1.383  -0.101  0.00  0.00    +0.129 A 
ATOM      4  C   UNL     1       2.406  -0.006  -0.156  0.00  0.00    +0.047 A 
ATOM      5  C   UNL     1       1.219  -0.705  -0.120  0.00  0.00    +0.015 A 
ATOM      6  C   UNL     1       0.009  -0.016  -0.029  0.00  0.00    +0.018 A 
ENDROOT
BRANCH   6   7
ATOM      7  C   UNL     1      -1.268  -0.763   0.011  0.00  0.00    +0.162 C 
ATOM      8  N   UNL     1      -1.298  -1.976   0.481  0.00  0.00    -0.072 NA
ATOM      9  N   UNL     1      -2.431  -0.171  -0.453  0.00  0.00    -0.340 N 
ATOM     10  H   UNL     1      -2.408   0.733  -0.804  0.00  0.00    +0.144 HD
ATOM     11  H   UNL     1      -3.268  -0.661  -0.428  0.00  0.00    +0.144 HD
BRANCH   8  12
ATOM     12  O   UNL     1      -0.142  -2.532   1.080  0.00  0.00    -0.408 OA
ATOM     13  H   UNL     1      -0.261  -3.437   1.399  0.00  0.00    +0.328 HD
ENDBRANCH   8  12
ENDBRANCH   6   7
BRANCH   3  14
ATOM     14  O   UNL     1       3.571   2.068  -0.137  0.00  0.00    -0.453 OA
BRANCH  14  15
ATOM     15  C   UNL     1       4.723   1.356  -0.227  0.00  0.00    +0.168 A 
ATOM     16  C   UNL     1       5.391   0.930   0.919  0.00  0.00    +0.103 A 
ATOM     17  C   UNL     1       6.560   0.207   0.785  0.00  0.00    +0.134 A 
ATOM     18  N   UNL     1       7.045  -0.079  -0.408  0.00  0.00    -0.260 NA
ATOM     19  C   UNL     1       6.443   0.306  -1.516  0.00  0.00    +0.134 A 
ATOM     20  C   UNL     1       5.266   1.028  -1.468  0.00  0.00    +0.103 A 
ATOM     21 CL   UNL     1       4.477   1.524  -2.932  0.00  0.00    -0.078 Cl
ATOM     22 CL   UNL     1       4.762   1.302   2.494  0.00  0.00    -0.078 Cl
ENDBRANCH  14  15
ENDBRANCH   3  14
TORSDOF 4
