REMARK  Name = ZINC52426230
REMARK  4 active torsions:
REMARK  status: ('A' for Active; 'I' for Inactive)
REMARK    1  A    between atoms: C_6  and  C_7
REMARK    2  A    between atoms: C_7  and  C_9
REMARK    3  A    between atoms: C_11  and  N_23
REMARK    4  A    between atoms: C_14  and  C_20
REMARK                            x       y       z     vdW  Elec       q    Type
REMARK                         _______ _______ _______ _____ _____    ______ ____
ROOT
ATOM      1  C   UNL     1      -1.235  -2.267   0.002  0.00  0.00    +0.168 C 
ATOM      2  C   UNL     1      -1.190  -2.797  -1.410  0.00  0.00    +0.032 C 
ATOM      3  C   UNL     1      -2.258  -3.584  -1.823  0.00  0.00    +0.023 C 
ATOM      4  C   UNL     1      -2.421  -4.184  -3.107  0.00  0.00    +0.032 C 
ATOM      5  C   UNL     1      -3.549  -4.943  -3.361  0.00  0.00    +0.127 C 
ATOM      6  C   UNL     1      -4.561  -5.121  -2.314  0.00  0.00    +0.275 C 
ATOM      7  O   UNL     1      -5.559  -5.791  -2.533  0.00  0.00    -0.268 OA
ATOM      8  N   UNL     1      -4.388  -4.550  -1.119  0.00  0.00    -0.169 NA
ATOM      9  C   UNL     1      -3.328  -3.825  -0.848  0.00  0.00    +0.100 C 
ATOM     10  S   UNL     1      -2.823  -2.952   0.619  0.00  0.00    -0.090 S 
ENDROOT
BRANCH   5  11
ATOM     11  C   UNL     1      -3.734  -5.568  -4.674  0.00  0.00    +0.392 C 
ATOM     12  O   UNL     1      -2.889  -5.418  -5.547  0.00  0.00    -0.240 OA
ATOM     13  O   UNL     1      -4.733  -6.239  -4.898  0.00  0.00    -0.240 OA
ENDBRANCH   5  11
BRANCH   2  14
ATOM     14  N   UNL     1      -0.165  -2.522  -2.230  0.00  0.00    -0.359 N 
ATOM     15  H   UNL     1       0.570  -1.970  -1.919  0.00  0.00    +0.142 HD
ATOM     16  H   UNL     1      -0.158  -2.874  -3.134  0.00  0.00    +0.142 HD
ENDBRANCH   2  14
BRANCH   1  17
ATOM     17  C   UNL     1      -1.260  -0.760   0.011  0.00  0.00    +0.182 C 
ATOM     18  O   UNL     1      -2.319  -0.171   0.024  0.00  0.00    -0.290 OA
BRANCH  17  24
ATOM     19  C   UNL     1      -0.017   1.395   0.010  0.00  0.00    +0.013 A 
ATOM     20  C   UNL     1       1.169   2.097   0.002  0.00  0.00    +0.020 A 
ATOM     21  C   UNL     1       2.378   1.420  -0.013  0.00  0.00    +0.041 A 
ATOM     22  C   UNL     1       2.405   0.035  -0.021  0.00  0.00    +0.020 A 
ATOM     23  C   UNL     1       1.227  -0.680  -0.013  0.00  0.00    +0.013 A 
ATOM     24  C   UNL     1       0.002  -0.004   0.002  0.00  0.00    +0.019 A 
ATOM     25 CL   UNL     1       3.867   2.313  -0.023  0.00  0.00    -0.084 Cl
ENDBRANCH  17  24
ENDBRANCH   1  17
TORSDOF 4
