REMARK  Name = ZINC21075939
REMARK  10 active torsions:
REMARK  status: ('A' for Active; 'I' for Inactive)
REMARK    1  A    between atoms: C_2  and  C_3
REMARK    2  A    between atoms: C_3  and  C_4
REMARK    3  A    between atoms: C_8  and  C_11
REMARK    4  A    between atoms: C_9  and  O_10
REMARK    5  A    between atoms: N_12  and  N_13
REMARK    6  A    between atoms: C_16  and  S_19
REMARK    7  A    between atoms: S_19  and  C_20
REMARK    8  A    between atoms: C_20  and  C_21
REMARK    9  A    between atoms: C_21  and  C_22
REMARK   10  A    between atoms: N_24  and  C_25
REMARK                            x       y       z     vdW  Elec       q    Type
REMARK                         _______ _______ _______ _____ _____    ______ ____
ROOT
ATOM      1  N   UNL     1       4.860   4.155   0.030  0.00  0.00    -0.205 N 
ATOM      2  C   UNL     1       4.850   5.543   0.030  0.00  0.00    +0.232 A 
ATOM      3  N   UNL     1       5.951   6.354   0.025  0.00  0.00    -0.186 NA
ATOM      4  C   UNL     1       5.519   7.650   0.027  0.00  0.00    +0.210 A 
ATOM      5  N   UNL     1       4.208   7.641   0.033  0.00  0.00    -0.144 NA
ATOM      6  N   UNL     1       3.784   6.306   0.030  0.00  0.00    -0.245 N 
ATOM      7  H   UNL     1       5.816   3.612   0.025  0.00  0.00    +0.177 HD
ATOM      8  H   UNL     1       2.782   5.851   0.027  0.00  0.00    +0.192 HD
ENDROOT
BRANCH   1  10
ATOM      9  C   UNL     1       3.661   2.148   0.034  0.00  0.00    +0.142 C 
ATOM     10  N   UNL     1       3.651   3.446   0.035  0.00  0.00    -0.187 NA
BRANCH   9  15
ATOM     11  C   UNL     1      -0.020   1.380   0.051  0.00  0.00    -0.002 A 
ATOM     12  C   UNL     1      -0.002  -0.003   0.051  0.00  0.00    +0.007 A 
ATOM     13  C   UNL     1       1.202  -0.686   0.045  0.00  0.00    +0.001 A 
ATOM     14  C   UNL     1       2.395   0.005   0.040  0.00  0.00    +0.013 A 
ATOM     15  C   UNL     1       2.390   1.402   0.040  0.00  0.00    +0.036 A 
ATOM     16  C   UNL     1       1.168   2.090   0.046  0.00  0.00    +0.129 A 
BRANCH  16  17
ATOM     17  O   UNL     1       1.151   3.449   0.046  0.00  0.00    -0.506 OA
ATOM     18  H   UNL     1       2.097   4.011   0.042  0.00  0.00    +0.292 HD
ENDBRANCH  16  17
BRANCH  11  19
ATOM     19  C   UNL     1      -1.336   2.115   0.051  0.00  0.00    +0.065 C 
BRANCH  19  21
ATOM     20  C   UNL     1      -2.874   2.096  -1.844  0.00  0.00    +0.004 C 
ATOM     21  C   UNL     1      -1.714   2.468  -1.364  0.00  0.00    -0.030 C 
ENDBRANCH  19  21
ENDBRANCH  11  19
ENDBRANCH   9  15
ENDBRANCH   1  10
BRANCH   4  22
ATOM     22  S   UNL     1       6.545   9.083   0.022  0.00  0.00    -0.084 S 
BRANCH  22  23
ATOM     23  C   UNL     1       5.370  10.464   0.028  0.00  0.00    +0.086 C 
BRANCH  23  24
ATOM     24  C   UNL     1       6.138  11.788   0.024  0.00  0.00    +0.107 C 
BRANCH  24  25
ATOM     25  C   UNL     1       5.161  12.935   0.029  0.00  0.00    +0.218 C 
ATOM     26  O   UNL     1       3.968  12.716   0.034  0.00  0.00    -0.275 OA
ATOM     27  N   UNL     1       5.613  14.205   0.026  0.00  0.00    -0.285 N 
ATOM     28  H   UNL     1       6.693  14.405   0.097  0.00  0.00    +0.155 HD
BRANCH  27  29
ATOM     29  C   UNL     1       4.711  15.267  -0.065  0.00  0.00    +0.041 A 
ATOM     30  C   UNL     1       3.472  15.180   0.531  0.00  0.00    +0.024 A 
ATOM     31  C   UNL     1       2.566  16.233   0.447  0.00  0.00    +0.002 A 
ATOM     32  C   UNL     1       2.877  17.375  -0.226  0.00  0.00    +0.008 A 
ATOM     33  C   UNL     1       4.130  17.505  -0.847  0.00  0.00    -0.016 A 
ATOM     34  C   UNL     1       5.063  16.441  -0.763  0.00  0.00    +0.003 A 
ATOM     35  C   UNL     1       6.313  16.570  -1.389  0.00  0.00    +0.010 A 
ATOM     36  C   UNL     1       6.617  17.716  -2.059  0.00  0.00    +0.001 A 
ATOM     37  C   UNL     1       5.702  18.764  -2.138  0.00  0.00    +0.001 A 
ATOM     38  C   UNL     1       4.479  18.672  -1.548  0.00  0.00    +0.008 A 
ENDBRANCH  27  29
ENDBRANCH  24  25
ENDBRANCH  23  24
ENDBRANCH  22  23
ENDBRANCH   4  22
TORSDOF 10
