REMARK  Name = ZINC62824523
REMARK  6 active torsions:
REMARK  status: ('A' for Active; 'I' for Inactive)
REMARK    1  A    between atoms: C_1  and  C_2
REMARK    2  A    between atoms: C_2  and  C_3
REMARK    3  A    between atoms: C_2  and  C_6
REMARK    4  A    between atoms: C_2  and  N_19
REMARK    5  A    between atoms: N_8  and  C_9
REMARK    6  A    between atoms: C_14  and  C_15
REMARK                            x       y       z     vdW  Elec       q    Type
REMARK                         _______ _______ _______ _____ _____    ______ ____
ROOT
ATOM      1  C   UNL     1       0.695  -0.501  -1.238  0.00  0.00    +0.206 C 
ATOM      2  O   UNL     1       1.879  -0.760  -1.196  0.00  0.00    -0.277 OA
ATOM      3  N   UNL     1       0.017  -0.633  -2.395  0.00  0.00    -0.286 N 
ATOM      4  H   UNL     1      -0.942  -0.488  -2.414  0.00  0.00    +0.155 HD
ENDROOT
BRANCH   3   5
ATOM      5  C   UNL     1       0.693  -0.976  -3.562  0.00  0.00    +0.048 A 
ATOM      6  C   UNL     1       1.772  -1.847  -3.513  0.00  0.00    +0.025 A 
ATOM      7  C   UNL     1       2.441  -2.186  -4.672  0.00  0.00    +0.016 A 
ATOM      8  C   UNL     1       2.043  -1.661  -5.892  0.00  0.00    +0.014 A 
ATOM      9  C   UNL     1       0.975  -0.794  -5.961  0.00  0.00    +0.031 A 
ATOM     10  C   UNL     1       0.283  -0.446  -4.797  0.00  0.00    +0.085 A 
ATOM     11  I   UNL     1       3.072  -2.188  -7.639  0.00  0.00    -0.044 I 
BRANCH  10  12
ATOM     12  C   UNL     1      -0.863   0.475  -4.863  0.00  0.00    +0.388 C 
ATOM     13  O   UNL     1      -1.278   0.857  -5.949  0.00  0.00    -0.241 OA
ATOM     14  O   UNL     1      -1.401   0.858  -3.833  0.00  0.00    -0.241 OA
ENDBRANCH  10  12
ENDBRANCH   3   5
BRANCH   1  16
ATOM     15  C   UNL     1      -0.057   1.496   0.024  0.00  0.00    -0.001 C 
ATOM     16  C   UNL     1      -0.018  -0.033   0.005  0.00  0.00    +0.007 C 
BRANCH  16  17
ATOM     17  N   UNL     1      -1.390  -0.558   0.009  0.00  0.00    +0.388 N 
ATOM     18  H   UNL     1      -1.881  -0.224  -0.807  0.00  0.00    -0.089 HD
ATOM     19  H   UNL     1      -1.364  -1.567  -0.004  0.00  0.00    -0.089 HD
ATOM     20  H   UNL     1      -1.867  -0.244   0.841  0.00  0.00    -0.089 HD
ENDBRANCH  16  17
BRANCH  16  21
ATOM     21  C   UNL     1       0.726  -0.540   1.242  0.00  0.00    -0.014 C 
ATOM     22  C   UNL     1       0.033  -1.603   2.096  0.00  0.00    +0.003 C 
ATOM     23  C   UNL     1       0.155  -0.168   2.611  0.00  0.00    +0.003 C 
ENDBRANCH  16  21
ENDBRANCH   1  16
TORSDOF 5
