REMARK  Name = ZINC50588361
REMARK  6 active torsions:
REMARK  status: ('A' for Active; 'I' for Inactive)
REMARK    1  A    between atoms: C_6  and  C_7
REMARK    2  A    between atoms: C_7  and  N_10
REMARK    3  A    between atoms: C_11  and  C_13
REMARK    4  A    between atoms: C_13  and  N_14
REMARK    5  A    between atoms: N_17  and  C_18
REMARK    6  A    between atoms: C_18  and  C_19
REMARK                            x       y       z     vdW  Elec       q    Type
REMARK                         _______ _______ _______ _____ _____    ______ ____
ROOT
ATOM      1  N   UNL     1      -2.529  -0.019   0.227  0.00  0.00    -0.304 N 
ATOM      2  C   UNL     1      -2.684   1.194  -0.339  0.00  0.00    +0.231 C 
ATOM      3  O   UNL     1      -1.842   1.621  -1.100  0.00  0.00    -0.274 OA
ATOM      4  H   UNL     1      -3.236  -0.393   0.775  0.00  0.00    +0.150 HD
ENDROOT
BRANCH   1   5
ATOM      5  C   UNL     1      -1.292  -0.774   0.013  0.00  0.00    +0.060 C 
ATOM      6  C   UNL     1      -1.150  -1.541  -1.303  0.00  0.00    +0.033 C 
ATOM      7  C   UNL     1      -1.388  -2.301   0.004  0.00  0.00    +0.033 C 
BRANCH   5  13
ATOM      8  C   UNL     1       1.197  -0.524   0.114  0.00  0.00    +0.007 A 
ATOM      9  C   UNL     1       2.340   0.040   0.650  0.00  0.00    +0.015 A 
ATOM     10  C   UNL     1       2.240   0.970   1.669  0.00  0.00    +0.018 A 
ATOM     11  C   UNL     1       0.996   1.335   2.151  0.00  0.00    +0.015 A 
ATOM     12  C   UNL     1      -0.146   0.771   1.615  0.00  0.00    +0.007 A 
ATOM     13  C   UNL     1      -0.046  -0.159   0.597  0.00  0.00    -0.024 A 
ATOM     14 BR   UNL     1       3.803   1.741   2.402  0.00  0.00    -0.050 Br
ENDBRANCH   5  13
ENDBRANCH   1   5
BRANCH   2  15
ATOM     15  C   UNL     1      -3.906   2.020  -0.027  0.00  0.00    +0.201 C 
BRANCH  15  16
ATOM     16  N   UNL     1      -3.839   3.287  -0.760  0.00  0.00    -0.291 N 
ATOM     17  C   UNL     1      -4.831   4.191  -0.634  0.00  0.00    +0.300 C 
ATOM     18  O   UNL     1      -5.780   3.956   0.088  0.00  0.00    -0.253 OA
ATOM     19  N   UNL     1      -4.770   5.356  -1.309  0.00  0.00    -0.299 N 
ATOM     20  H   UNL     1      -3.082   3.474  -1.337  0.00  0.00    +0.151 HD
ATOM     21  H   UNL     1      -4.013   5.544  -1.885  0.00  0.00    +0.150 HD
BRANCH  19  22
ATOM     22  C   UNL     1      -5.847   6.339  -1.172  0.00  0.00    +0.109 C 
BRANCH  22  23
ATOM     23  C   UNL     1      -5.535   7.562  -2.037  0.00  0.00    +0.006 C 
ATOM     24  C   UNL     1      -4.315   8.314  -1.466  0.00  0.00    +0.005 C 
ATOM     25  C   UNL     1      -4.650   9.809  -1.693  0.00  0.00    +0.000 C 
ATOM     26  C   UNL     1      -6.171   9.866  -1.410  0.00  0.00    +0.000 C 
ATOM     27  C   UNL     1      -6.715   8.549  -2.001  0.00  0.00    +0.005 C 
ENDBRANCH  22  23
ENDBRANCH  19  22
ENDBRANCH  15  16
ENDBRANCH   2  15
TORSDOF 6
