REMARK  Name = ZINC16610625
REMARK  9 active torsions:
REMARK  status: ('A' for Active; 'I' for Inactive)
REMARK    1  A    between atoms: C_1  and  C_2
REMARK    2  A    between atoms: C_2  and  N_3
REMARK    3  A    between atoms: C_4  and  C_32
REMARK    4  A    between atoms: C_5  and  C_28
REMARK    5  A    between atoms: C_6  and  C_11
REMARK    6  A    between atoms: C_14  and  N_17
REMARK    7  A    between atoms: N_20  and  C_21
REMARK    8  A    between atoms: C_28  and  O_30
REMARK    9  A    between atoms: O_30  and  C_31
REMARK                            x       y       z     vdW  Elec       q    Type
REMARK                         _______ _______ _______ _____ _____    ______ ____
ROOT
ATOM      1  C   UNL     1       1.236   1.412   0.180  0.00  0.00    -0.022 A 
ATOM      2  C   UNL     1       0.099   0.630   0.272  0.00  0.00    +0.007 A 
ATOM      3  C   UNL     1      -1.058   1.152   0.815  0.00  0.00    +0.024 A 
ATOM      4  C   UNL     1      -1.077   2.461   1.279  0.00  0.00    +0.035 A 
ATOM      5  C   UNL     1       0.067   3.243   1.187  0.00  0.00    +0.024 A 
ATOM      6  C   UNL     1       1.220   2.717   0.638  0.00  0.00    +0.007 A 
ENDROOT
BRANCH   1  10
ATOM      7  N   UNL     1       4.683   2.286  -1.298  0.00  0.00    -0.286 N 
ATOM      8  C   UNL     1       3.695   2.026  -2.202  0.00  0.00    +0.021 C 
ATOM      9  C   UNL     1       2.594   1.326  -1.850  0.00  0.00    +0.078 C 
ATOM     10  C   UNL     1       2.495   0.841  -0.418  0.00  0.00    +0.141 C 
ATOM     11  N   UNL     1       3.616   1.174   0.478  0.00  0.00    -0.315 N 
ATOM     12  C   UNL     1       4.648   1.881  -0.022  0.00  0.00    +0.138 C 
ATOM     13  S   UNL     1       5.957   2.276   1.008  0.00  0.00    -0.018 S 
ATOM     14  C   UNL     1       3.833   2.528  -3.616  0.00  0.00    +0.061 C 
ATOM     15  H   UNL     1       3.610   0.891   1.406  0.00  0.00    +0.149 HD
BRANCH   7  17
ATOM     16  C   UNL     1       5.548   4.547  -1.644  0.00  0.00    +0.025 C 
ATOM     17  C   UNL     1       5.848   3.051  -1.749  0.00  0.00    +0.109 C 
ENDBRANCH   7  17
BRANCH   9  18
ATOM     18  C   UNL     1       1.569   1.057  -2.786  0.00  0.00    +0.339 C 
ATOM     19  O   UNL     1       1.695   1.407  -3.944  0.00  0.00    -0.245 OA
BRANCH  18  20
ATOM     20  O   UNL     1       0.450   0.411  -2.394  0.00  0.00    -0.465 OA
ATOM     21  C   UNL     1      -0.544   0.172  -3.392  0.00  0.00    +0.280 C 
ENDBRANCH  18  20
ENDBRANCH   9  18
ENDBRANCH   1  10
BRANCH   4  22
ATOM     22  N   UNL     1      -2.247   2.991   1.835  0.00  0.00    -0.269 N 
ATOM     23  C   UNL     1      -2.544   4.294   1.661  0.00  0.00    +0.308 C 
ATOM     24  O   UNL     1      -1.852   4.985   0.939  0.00  0.00    -0.252 OA
ATOM     25  N   UNL     1      -3.610   4.831   2.288  0.00  0.00    -0.267 N 
ATOM     26  H   UNL     1      -2.843   2.421   2.345  0.00  0.00    +0.156 HD
ATOM     27  H   UNL     1      -4.115   4.303   2.925  0.00  0.00    +0.156 HD
BRANCH  25  28
ATOM     28  C   UNL     1      -3.988   6.152   2.018  0.00  0.00    +0.070 A 
ATOM     29  C   UNL     1      -3.568   6.772   0.849  0.00  0.00    +0.026 A 
ATOM     30  C   UNL     1      -3.946   8.074   0.583  0.00  0.00    +0.002 A 
ATOM     31  C   UNL     1      -4.735   8.764   1.485  0.00  0.00    +0.003 A 
ATOM     32  C   UNL     1      -5.152   8.153   2.653  0.00  0.00    +0.040 A 
ATOM     33  C   UNL     1      -4.781   6.849   2.923  0.00  0.00    +0.145 A 
ATOM     34  F   UNL     1      -5.188   6.252   4.065  0.00  0.00    -0.204 F 
ENDBRANCH  25  28
ENDBRANCH   4  22
TORSDOF 6
