REMARK  Name = ZINC12502602
REMARK  4 active torsions:
REMARK  status: ('A' for Active; 'I' for Inactive)
REMARK    1  A    between atoms: C_2  and  O_14
REMARK    2  A    between atoms: C_4  and  O_13
REMARK    3  A    between atoms: C_8  and  C_9
REMARK    4  A    between atoms: C_8  and  O_11
REMARK                            x       y       z     vdW  Elec       q    Type
REMARK                         _______ _______ _______ _____ _____    ______ ____
ROOT
ATOM      1  C   UNL     1       1.142   3.085   0.001  0.00  0.00    +0.085 C 
ATOM      2  C   UNL     1       0.628   3.522   1.379  0.00  0.00    +0.153 C 
ATOM      3  C   UNL     1       1.723   3.249   2.412  0.00  0.00    +0.201 C 
ATOM      4  C   UNL     1       2.237   1.847   2.263  0.00  0.00    +0.131 C 
ATOM      5  C   UNL     1       2.049   1.116   1.211  0.00  0.00    +0.055 C 
ATOM      6  C   UNL     1       1.286   1.562  -0.002  0.00  0.00    +0.190 C 
ATOM      7  F   UNL     1       2.936   1.316   3.290  0.00  0.00    -0.208 F 
ENDROOT
BRANCH   6   8
ATOM      8  C   UNL     1       2.026   1.132  -1.243  0.00  0.00    +0.391 C 
ATOM      9  O   UNL     1       2.779   1.900  -1.793  0.00  0.00    -0.243 OA
ATOM     10  O   UNL     1       1.849  -0.103  -1.736  0.00  0.00    -0.243 OA
ENDBRANCH   6   8
BRANCH   6  11
ATOM     11  O   UNL     1      -0.011   0.963   0.007  0.00  0.00    -0.373 OA
ATOM     12  H   UNL     1       0.002  -0.004   0.002  0.00  0.00    +0.211 HD
ENDBRANCH   6  11
BRANCH   3  13
ATOM     13  O   UNL     1       1.187   3.420   3.726  0.00  0.00    -0.382 OA
ATOM     14  H   UNL     1       1.826   3.263   4.435  0.00  0.00    +0.210 HD
ENDBRANCH   3  13
BRANCH   2  15
ATOM     15  O   UNL     1      -0.544   2.776   1.712  0.00  0.00    -0.389 OA
ATOM     16  H   UNL     1      -0.922   3.002   2.573  0.00  0.00    +0.210 HD
ENDBRANCH   2  15
TORSDOF 4
