REMARK  Name = ZINC08843867
REMARK  8 active torsions:
REMARK  status: ('A' for Active; 'I' for Inactive)
REMARK    1  A    between atoms: C_1  and  C_2
REMARK    2  A    between atoms: C_5  and  C_28
REMARK    3  A    between atoms: C_6  and  N_8
REMARK    4  A    between atoms: C_9  and  C_11
REMARK    5  A    between atoms: C_12  and  C_27
REMARK    6  A    between atoms: C_17  and  C_19
REMARK    7  A    between atoms: C_23  and  O_25
REMARK    8  A    between atoms: O_25  and  C_26
REMARK                            x       y       z     vdW  Elec       q    Type
REMARK                         _______ _______ _______ _____ _____    ______ ____
ROOT
ATOM      1  C   UNL     1       4.025   1.986   1.441  0.00  0.00    +0.056 C 
ATOM      2  C   UNL     1       5.359   2.189   1.395  0.00  0.00    +0.017 C 
ATOM      3  N   UNL     1       6.133   1.574   0.453  0.00  0.00    -0.300 N 
ATOM      4  C   UNL     1       5.649   0.742  -0.478  0.00  0.00    +0.135 C 
ATOM      5  S   UNL     1       6.731   0.038  -1.603  0.00  0.00    -0.019 S 
ATOM      6  N   UNL     1       4.338   0.442  -0.560  0.00  0.00    -0.315 N 
ATOM      7  C   UNL     1       3.417   1.055   0.412  0.00  0.00    +0.139 C 
ATOM      8  C   UNL     1       6.004   3.108   2.400  0.00  0.00    +0.061 C 
ATOM      9  H   UNL     1       7.087   1.749   0.459  0.00  0.00    +0.154 HD
ATOM     10  H   UNL     1       4.008  -0.163  -1.242  0.00  0.00    +0.149 HD
ENDROOT
BRANCH   7  11
ATOM     11  C   UNL     1       2.714  -0.056   1.149  0.00  0.00    -0.019 A 
ATOM     12  C   UNL     1       3.450  -1.057   1.756  0.00  0.00    +0.006 A 
ATOM     13  C   UNL     1       2.808  -2.077   2.433  0.00  0.00    +0.004 A 
ATOM     14  C   UNL     1       1.428  -2.098   2.505  0.00  0.00    +0.045 A 
ATOM     15  C   UNL     1       0.687  -1.095   1.897  0.00  0.00    +0.120 A 
ATOM     16  C   UNL     1       1.334  -0.073   1.218  0.00  0.00    +0.051 A 
BRANCH  15  17
ATOM     17  O   UNL     1      -0.670  -1.117   1.962  0.00  0.00    -0.495 OA
ATOM     18  C   UNL     1      -1.268  -2.203   2.673  0.00  0.00    +0.277 C 
ENDBRANCH  15  17
ENDBRANCH   7  11
BRANCH   1  20
ATOM     19  N   UNL     1       3.100   2.084   3.647  0.00  0.00    -0.281 N 
ATOM     20  C   UNL     1       3.221   2.623   2.418  0.00  0.00    +0.248 C 
ATOM     21  O   UNL     1       2.639   3.658   2.147  0.00  0.00    -0.270 OA
ATOM     22  H   UNL     1       3.634   1.312   3.892  0.00  0.00    +0.155 HD
BRANCH  19  28
ATOM     23  C   UNL     1       0.779   6.025   5.449  0.00  0.00    +0.044 C 
ATOM     24  C   UNL     1       1.062   4.545   5.465  0.00  0.00    -0.049 A 
ATOM     25  C   UNL     1       0.435   3.732   6.391  0.00  0.00    +0.004 A 
ATOM     26  C   UNL     1       0.690   2.373   6.408  0.00  0.00    +0.005 A 
ATOM     27  C   UNL     1       1.570   1.823   5.496  0.00  0.00    -0.029 A 
ATOM     28  C   UNL     1       2.206   2.637   4.568  0.00  0.00    +0.037 A 
ATOM     29  C   UNL     1       1.946   4.002   4.554  0.00  0.00    +0.027 A 
ATOM     30  C   UNL     1       1.844   0.341   5.512  0.00  0.00    +0.045 C 
ENDBRANCH  19  28
ENDBRANCH   1  20
TORSDOF 4
