REMARK  Name = ZINC16777027
REMARK  8 active torsions:
REMARK  status: ('A' for Active; 'I' for Inactive)
REMARK    1  A    between atoms: C_4  and  N_7
REMARK    2  A    between atoms: N_7  and  C_8
REMARK    3  A    between atoms: C_8  and  N_10
REMARK    4  A    between atoms: N_10  and  N_11
REMARK    5  A    between atoms: C_12  and  C_13
REMARK    6  A    between atoms: C_16  and  C_18
REMARK    7  A    between atoms: C_21  and  S_24
REMARK    8  A    between atoms: S_24  and  N_27
REMARK                            x       y       z     vdW  Elec       q    Type
REMARK                         _______ _______ _______ _____ _____    ______ ____
ROOT
ATOM      1  C   UNL     1      -4.232   2.752   6.663  0.00  0.00    +0.148 A 
ATOM      2  C   UNL     1      -3.504   3.922   6.680  0.00  0.00    +0.051 A 
ATOM      3  C   UNL     1      -2.436   3.746   5.790  0.00  0.00    +0.050 A 
ATOM      4  C   UNL     1      -2.549   2.491   5.271  0.00  0.00    +0.136 A 
ATOM      5  O   UNL     1      -3.639   1.902   5.801  0.00  0.00    -0.454 OA
ENDROOT
BRANCH   4   6
ATOM      6  C   UNL     1      -1.634   1.880   4.287  0.00  0.00    +0.017 A 
ATOM      7  C   UNL     1      -1.861   0.580   3.830  0.00  0.00    +0.013 A 
ATOM      8  C   UNL     1      -1.001   0.015   2.911  0.00  0.00    +0.029 A 
ATOM      9  C   UNL     1       0.084   0.735   2.441  0.00  0.00    +0.105 A 
ATOM     10  C   UNL     1       0.317   2.022   2.892  0.00  0.00    +0.029 A 
ATOM     11  C   UNL     1      -0.537   2.600   3.808  0.00  0.00    +0.013 A 
BRANCH   9  12
ATOM     12  S   UNL     1       1.176   0.006   1.266  0.00  0.00    +0.056 S 
ATOM     13  O   UNL     1       1.056  -1.402   1.418  0.00  0.00    -0.153 OA
ATOM     14  O   UNL     1       2.420   0.682   1.394  0.00  0.00    -0.153 OA
BRANCH  12  15
ATOM     15  N   UNL     1       0.592   0.371  -0.239  0.00  0.00    -0.204 NA
ATOM     16  H   UNL     1       0.341  -0.341  -0.848  0.00  0.00    +0.144 HD
ATOM     17  H   UNL     1       0.500   1.298  -0.512  0.00  0.00    +0.144 HD
ENDBRANCH  12  15
ENDBRANCH   9  12
ENDBRANCH   4   6
BRANCH   1  19
ATOM     18  N   UNL     1      -6.070   1.351   7.297  0.00  0.00    -0.185 NA
ATOM     19  C   UNL     1      -5.441   2.481   7.443  0.00  0.00    +0.176 C 
BRANCH  18  20
ATOM     20  N   UNL     1      -5.487   0.316   6.554  0.00  0.00    -0.218 N 
ATOM     21  H   UNL     1      -4.576   0.403   6.233  0.00  0.00    +0.176 HD
BRANCH  20  22
ATOM     22  C   UNL     1      -6.192  -0.801   6.287  0.00  0.00    +0.154 C 
ATOM     23  S   UNL     1      -5.479  -2.066   5.379  0.00  0.00    -0.017 S 
BRANCH  22  24
ATOM     24  N   UNL     1      -7.457  -0.923   6.733  0.00  0.00    -0.296 N 
ATOM     25  H   UNL     1      -7.843  -0.230   7.293  0.00  0.00    +0.154 HD
BRANCH  24  29
ATOM     26  C   UNL     1      -9.714  -4.272   5.712  0.00  0.00    +0.000 A 
ATOM     27  C   UNL     1      -8.401  -4.422   6.117  0.00  0.00    +0.002 A 
ATOM     28  C   UNL     1      -7.650  -3.314   6.456  0.00  0.00    +0.023 A 
ATOM     29  C   UNL     1      -8.215  -2.047   6.390  0.00  0.00    +0.033 A 
ATOM     30  C   UNL     1      -9.537  -1.900   5.989  0.00  0.00    +0.023 A 
ATOM     31  C   UNL     1     -10.280  -3.012   5.646  0.00  0.00    +0.002 A 
ENDBRANCH  24  29
ENDBRANCH  22  24
ENDBRANCH  20  22
ENDBRANCH  18  20
ENDBRANCH   1  19
TORSDOF 8
