REMARK  Name = ZINC13064884
REMARK  13 active torsions:
REMARK  status: ('A' for Active; 'I' for Inactive)
REMARK    1  A    between atoms: C_1  and  C_2
REMARK    2  A    between atoms: C_2  and  C_3
REMARK    3  A    between atoms: C_3  and  C_5
REMARK    4  A    between atoms: C_3  and  N_72
REMARK    5  A    between atoms: N_9  and  C_10
REMARK    6  A    between atoms: C_10  and  C_11
REMARK    7  A    between atoms: C_17  and  C_18
REMARK    8  A    between atoms: C_17  and  N_72
REMARK    9  A    between atoms: C_18  and  C_19
REMARK   10  A    between atoms: C_25  and  C_26
REMARK   11  A    between atoms: C_25  and  N_72
REMARK   12  A    between atoms: C_29  and  C_39
REMARK   13  A    between atoms: C_31  and  C_38
REMARK                            x       y       z     vdW  Elec       q    Type
REMARK                         _______ _______ _______ _____ _____    ______ ____
ROOT
ATOM      1  N   UNL     1       1.656   7.612  -3.114  0.00  0.00    +0.389 N 
ATOM      2  H   UNL     1       2.064   8.097  -3.922  0.00  0.00    -0.080 HD
ENDROOT
BRANCH   1   3
ATOM      3  C   UNL     1       2.747   7.124  -2.245  0.00  0.00    +0.003 C 
BRANCH   3   4
ATOM      4  C   UNL     1       2.200   6.232  -1.161  0.00  0.00    +0.138 A 
ATOM      5  N   UNL     1       1.315   5.276  -1.306  0.00  0.00    -0.115 NA
ATOM      6  N   UNL     1       1.108   4.747  -0.150  0.00  0.00    -0.023 NA
ATOM      7  N   UNL     1       1.842   5.336   0.728  0.00  0.00    -0.044 NA
ATOM      8  N   UNL     1       2.526   6.262   0.145  0.00  0.00    -0.226 N 
BRANCH   8   9
ATOM      9  C   UNL     1       3.482   7.170   0.783  0.00  0.00    +0.182 C 
BRANCH   9  10
ATOM     10  C   UNL     1       2.764   8.413   1.242  0.00  0.00    -0.026 A 
ATOM     11  C   UNL     1       2.218   8.468   2.511  0.00  0.00    +0.005 A 
ATOM     12  C   UNL     1       1.560   9.608   2.932  0.00  0.00    +0.000 A 
ATOM     13  C   UNL     1       1.442  10.692   2.082  0.00  0.00    +0.000 A 
ATOM     14  C   UNL     1       1.993  10.639   0.815  0.00  0.00    +0.000 A 
ATOM     15  C   UNL     1       2.652   9.499   0.394  0.00  0.00    +0.005 A 
ENDBRANCH   9  10
ENDBRANCH   8   9
ENDBRANCH   3   4
BRANCH   3  17
ATOM     16  C   UNL     1       4.357   7.264  -4.150  0.00  0.00    +0.002 C 
ATOM     17  C   UNL     1       3.743   6.337  -3.099  0.00  0.00    -0.011 C 
ENDBRANCH   3  17
ENDBRANCH   1   3
BRANCH   1  18
ATOM     18  C   UNL     1       0.847   6.473  -3.597  0.00  0.00    -0.073 C 
BRANCH  18  19
ATOM     19  C   UNL     1       0.123   6.895  -4.877  0.00  0.00    +0.016 C 
BRANCH  19  20
ATOM     20  C   UNL     1      -0.575   5.701  -5.476  0.00  0.00    -0.049 A 
ATOM     21  C   UNL     1       0.103   4.870  -6.348  0.00  0.00    +0.003 A 
ATOM     22  C   UNL     1      -0.535   3.772  -6.894  0.00  0.00    +0.000 A 
ATOM     23  C   UNL     1      -1.855   3.512  -6.576  0.00  0.00    +0.000 A 
ATOM     24  C   UNL     1      -2.535   4.346  -5.708  0.00  0.00    +0.000 A 
ATOM     25  C   UNL     1      -1.895   5.441  -5.158  0.00  0.00    +0.003 A 
ENDBRANCH  19  20
ENDBRANCH  18  19
ENDBRANCH   1  18
BRANCH   1  26
ATOM     26  C   UNL     1       0.800   8.559  -2.368  0.00  0.00    -0.037 C 
BRANCH  26  27
ATOM     27  C   UNL     1      -0.030   9.340  -3.353  0.00  0.00    +0.001 A 
ATOM     28  C   UNL     1      -1.369   9.139  -3.418  0.00  0.00    +0.017 A 
ATOM     29  C   UNL     1      -2.147   9.914  -4.386  0.00  0.00    +0.002 A 
ATOM     30  C   UNL     1      -3.532   9.750  -4.498  0.00  0.00    -0.041 A 
ATOM     31  C   UNL     1      -4.229  10.489  -5.412  0.00  0.00    +0.007 A 
ATOM     32  C   UNL     1      -3.576  11.401  -6.229  0.00  0.00    -0.048 A 
ATOM     33  C   UNL     1      -2.213  11.579  -6.136  0.00  0.00    +0.029 A 
ATOM     34  C   UNL     1      -1.482  10.838  -5.213  0.00  0.00    +0.050 A 
ATOM     35  N   UNL     1      -0.117  10.996  -5.098  0.00  0.00    -0.322 N 
ATOM     36  H   UNL     1       0.340  11.633  -5.669  0.00  0.00    +0.169 HD
ATOM     37  C   UNL     1       0.589  10.284  -4.202  0.00  0.00    +0.251 A 
ATOM     38  O   UNL     1       1.793  10.453  -4.124  0.00  0.00    -0.268 OA
ATOM     39  C   UNL     1      -4.366  12.205  -7.229  0.00  0.00    +0.044 C 
ATOM     40  C   UNL     1      -4.251   8.762  -3.616  0.00  0.00    +0.044 C 
ENDBRANCH  26  27
ENDBRANCH   1  26
TORSDOF 10
