REMARK  Name = ZINC20394762
REMARK  12 active torsions:
REMARK  status: ('A' for Active; 'I' for Inactive)
REMARK    1  A    between atoms: C_1  and  N_2
REMARK    2  A    between atoms: C_12  and  C_23
REMARK    3  A    between atoms: N_16  and  C_17
REMARK    4  A    between atoms: C_17  and  C_18
REMARK    5  A    between atoms: C_18  and  N_19
REMARK    6  A    between atoms: N_19  and  C_20
REMARK    7  A    between atoms: N_19  and  C_21
REMARK    8  A    between atoms: C_23  and  C_25
REMARK    9  A    between atoms: C_28  and  S_31
REMARK   10  A    between atoms: S_31  and  N_34
REMARK   11  A    between atoms: N_34  and  C_35
REMARK   12  A    between atoms: N_34  and  C_36
REMARK                            x       y       z     vdW  Elec       q    Type
REMARK                         _______ _______ _______ _____ _____    ______ ____
ROOT
ATOM      1  C   UNL     1       5.631   0.747  -1.300  0.00  0.00    +0.138 C 
ATOM      2  N   UNL     1       4.389   0.744  -0.523  0.00  0.00    -0.272 N 
ATOM      3  C   UNL     1       4.343   0.763   0.872  0.00  0.00    +0.042 A 
ATOM      4  C   UNL     1       5.367   0.787   1.817  0.00  0.00    +0.024 A 
ATOM      5  C   UNL     1       5.067   0.803   3.163  0.00  0.00    +0.002 A 
ATOM      6  C   UNL     1       3.751   0.795   3.587  0.00  0.00    +0.000 A 
ATOM      7  C   UNL     1       2.728   0.771   2.655  0.00  0.00    +0.008 A 
ATOM      8  C   UNL     1       3.023   0.755   1.310  0.00  0.00    +0.011 A 
ATOM      9  C   UNL     1       2.173   0.730   0.068  0.00  0.00    +0.174 C 
ATOM     10  C   UNL     1       3.160   0.723  -1.072  0.00  0.00    +0.253 C 
ATOM     11  O   UNL     1       2.898   0.703  -2.256  0.00  0.00    -0.272 OA
ATOM     12  C   UNL     1       1.272   1.932  -0.003  0.00  0.00    +0.089 C 
ATOM     13  C   UNL     1       0.003   1.457  -0.072  0.00  0.00    +0.250 C 
ATOM     14  C   UNL     1       0.037  -0.021  -0.050  0.00  0.00    +0.288 C 
ATOM     15  O   UNL     1      -0.939  -0.742  -0.100  0.00  0.00    -0.266 OA
ATOM     16  N   UNL     1       1.312  -0.450   0.032  0.00  0.00    -0.275 N 
ATOM     17  O   UNL     1      -1.114   2.215  -0.155  0.00  0.00    -0.282 OA
ENDROOT
BRANCH  12  18
ATOM     18  C   UNL     1       1.683   3.339   0.003  0.00  0.00    +0.196 C 
ATOM     19  O   UNL     1       2.032   3.867   1.042  0.00  0.00    -0.287 OA
BRANCH  18  20
ATOM     20  C   UNL     1       1.673   4.117  -1.255  0.00  0.00    +0.022 A 
ATOM     21  C   UNL     1       1.166   3.550  -2.426  0.00  0.00    +0.013 A 
ATOM     22  C   UNL     1       1.156   4.283  -3.595  0.00  0.00    +0.029 A 
ATOM     23  C   UNL     1       1.655   5.573  -3.611  0.00  0.00    +0.105 A 
ATOM     24  C   UNL     1       2.163   6.139  -2.454  0.00  0.00    +0.029 A 
ATOM     25  C   UNL     1       2.175   5.420  -1.278  0.00  0.00    +0.013 A 
BRANCH  23  26
ATOM     26  S   UNL     1       1.645   6.499  -5.109  0.00  0.00    +0.060 S 
ATOM     27  O   UNL     1       0.620   5.945  -5.922  0.00  0.00    -0.153 OA
ATOM     28  O   UNL     1       1.665   7.871  -4.739  0.00  0.00    -0.153 OA
BRANCH  26  29
ATOM     29  N   UNL     1       3.078   6.196  -5.882  0.00  0.00    -0.183 NA
ATOM     30  C   UNL     1       3.179   5.081  -6.827  0.00  0.00    +0.131 C 
ATOM     31  C   UNL     1       4.244   7.044  -5.621  0.00  0.00    +0.131 C 
ENDBRANCH  26  29
ENDBRANCH  23  26
ENDBRANCH  18  20
ENDBRANCH  12  18
BRANCH  16  32
ATOM     32  C   UNL     1       1.755  -1.846   0.078  0.00  0.00    +0.091 C 
BRANCH  32  33
ATOM     33  C   UNL     1       1.996  -2.351  -1.346  0.00  0.00    -0.060 C 
BRANCH  33  34
ATOM     34  N   UNL     1       2.440  -3.751  -1.300  0.00  0.00    +0.377 N 
ATOM     35  C   UNL     1       2.454  -4.343  -2.644  0.00  0.00    -0.097 C 
ATOM     36  C   UNL     1       3.758  -3.865  -0.661  0.00  0.00    -0.097 C 
ATOM     37  H   UNL     1       1.719  -4.314  -0.690  0.00  0.00    -0.083 HD
ENDBRANCH  33  34
ENDBRANCH  32  33
ENDBRANCH  16  32
TORSDOF 7
