REMARK  Name = ZINC23044485
REMARK  9 active torsions:
REMARK  status: ('A' for Active; 'I' for Inactive)
REMARK    1  A    between atoms: C_1  and  C_2
REMARK    2  A    between atoms: C_2  and  C_3
REMARK    3  A    between atoms: C_3  and  N_4
REMARK    4  A    between atoms: C_8  and  S_26
REMARK    5  A    between atoms: C_12  and  S_13
REMARK    6  A    between atoms: S_13  and  C_14
REMARK    7  A    between atoms: C_14  and  C_15
REMARK    8  A    between atoms: N_17  and  C_18
REMARK    9  A    between atoms: S_26  and  N_29
REMARK                            x       y       z     vdW  Elec       q    Type
REMARK                         _______ _______ _______ _____ _____    ______ ____
ROOT
ATOM      1  N   UNL     1       1.263   1.788  -0.000  0.00  0.00    -0.319 N 
ATOM      2  C   UNL     1       2.113   0.694  -0.014  0.00  0.00    +0.070 A 
ATOM      3  C   UNL     1       3.492   0.548  -0.028  0.00  0.00    +0.030 A 
ATOM      4  C   UNL     1       4.049  -0.714  -0.040  0.00  0.00    +0.030 A 
ATOM      5  C   UNL     1       3.239  -1.840  -0.038  0.00  0.00    +0.107 A 
ATOM      6  C   UNL     1       1.868  -1.714  -0.025  0.00  0.00    +0.058 A 
ATOM      7  C   UNL     1       1.288  -0.443  -0.013  0.00  0.00    +0.092 A 
ATOM      8  N   UNL     1       0.002  -0.004   0.002  0.00  0.00    -0.222 NA
ATOM      9  C   UNL     1      -0.016   1.306   0.009  0.00  0.00    +0.170 A 
ENDROOT
BRANCH   5  10
ATOM     10  S   UNL     1       3.970  -3.443  -0.052  0.00  0.00    +0.056 S 
ATOM     11  O   UNL     1       3.000  -4.326  -0.599  0.00  0.00    -0.153 OA
ATOM     12  O   UNL     1       5.267  -3.293  -0.614  0.00  0.00    -0.153 OA
BRANCH  10  13
ATOM     13  N   UNL     1       4.187  -3.896   1.525  0.00  0.00    -0.204 NA
ATOM     14  H   UNL     1       4.644  -4.897   1.560  0.00  0.00    +0.144 HD
ATOM     15  H   UNL     1       3.214  -3.919   2.038  0.00  0.00    +0.144 HD
ENDBRANCH  10  13
ENDBRANCH   5  10
BRANCH   1  16
ATOM     16  C   UNL     1       1.661   3.197   0.003  0.00  0.00    +0.124 C 
BRANCH  16  18
ATOM     17  C   UNL     1       2.229   5.154   1.449  0.00  0.00    +0.005 C 
ATOM     18  C   UNL     1       1.814   3.681   1.446  0.00  0.00    +0.018 C 
ENDBRANCH  16  18
ENDBRANCH   1  16
BRANCH   9  19
ATOM     19  S   UNL     1      -1.471   2.299   0.022  0.00  0.00    -0.078 S 
BRANCH  19  20
ATOM     20  C   UNL     1      -2.735   1.004   0.022  0.00  0.00    +0.173 C 
BRANCH  20  21
ATOM     21  C   UNL     1      -4.103   1.637   0.032  0.00  0.00    +0.224 C 
ATOM     22  O   UNL     1      -4.212   2.845   0.039  0.00  0.00    -0.275 OA
ATOM     23  N   UNL     1      -5.205   0.860   0.034  0.00  0.00    -0.312 N 
ATOM     24  H   UNL     1      -5.106  -0.235   0.028  0.00  0.00    +0.149 HD
BRANCH  23  25
ATOM     25  C   UNL     1      -6.534   1.476   0.044  0.00  0.00    +0.073 C 
ATOM     26  C   UNL     1      -6.937   1.796   1.485  0.00  0.00    +0.022 C 
ATOM     27  C   UNL     1      -8.111   2.777   1.479  0.00  0.00    +0.002 C 
ATOM     28  C   UNL     1      -7.854   3.877   0.449  0.00  0.00    +0.000 C 
ATOM     29  C   UNL     1      -8.864   3.753  -0.694  0.00  0.00    +0.000 C 
ATOM     30  C   UNL     1      -8.466   2.587  -1.601  0.00  0.00    +0.000 C 
ATOM     31  C   UNL     1      -8.829   1.266  -0.922  0.00  0.00    +0.002 C 
ATOM     32  C   UNL     1      -7.549   0.506  -0.566  0.00  0.00    +0.022 C 
ENDBRANCH  23  25
ENDBRANCH  20  21
ENDBRANCH  19  20
ENDBRANCH   9  19
TORSDOF 8
