REMARK  Name = ZINC01171959
REMARK  10 active torsions:
REMARK  status: ('A' for Active; 'I' for Inactive)
REMARK    1  A    between atoms: C_1  and  C_2
REMARK    2  A    between atoms: C_5  and  N_9
REMARK    3  A    between atoms: C_6  and  C_8
REMARK    4  A    between atoms: C_10  and  C_12
REMARK    5  A    between atoms: C_13  and  C_30
REMARK    6  A    between atoms: C_18  and  C_20
REMARK    7  A    between atoms: C_22  and  O_28
REMARK    8  A    between atoms: C_25  and  O_26
REMARK    9  A    between atoms: O_26  and  C_27
REMARK   10  A    between atoms: O_28  and  C_29
REMARK                            x       y       z     vdW  Elec       q    Type
REMARK                         _______ _______ _______ _____ _____    ______ ____
ROOT
ATOM      1  C   UNL     1      -2.810   0.902   0.389  0.00  0.00    +0.056 C 
ATOM      2  C   UNL     1      -4.032   1.456   0.543  0.00  0.00    +0.017 C 
ATOM      3  N   UNL     1      -5.167   0.716   0.371  0.00  0.00    -0.300 N 
ATOM      4  C   UNL     1      -5.165  -0.585   0.055  0.00  0.00    +0.135 C 
ATOM      5  S   UNL     1      -6.662  -1.396  -0.124  0.00  0.00    -0.019 S 
ATOM      6  N   UNL     1      -4.022  -1.277  -0.126  0.00  0.00    -0.315 N 
ATOM      7  C   UNL     1      -2.741  -0.568   0.031  0.00  0.00    +0.143 C 
ATOM      8  C   UNL     1      -4.145   2.914   0.904  0.00  0.00    +0.061 C 
ATOM      9  H   UNL     1      -6.023   1.157   0.489  0.00  0.00    +0.154 HD
ATOM     10  H   UNL     1      -4.044  -2.220  -0.354  0.00  0.00    +0.149 HD
ENDROOT
BRANCH   7  11
ATOM     11  C   UNL     1      -1.950  -1.271   1.104  0.00  0.00    +0.022 A 
ATOM     12  C   UNL     1      -2.599  -1.817   2.195  0.00  0.00    +0.055 A 
ATOM     13  C   UNL     1      -1.871  -2.467   3.180  0.00  0.00    +0.121 A 
ATOM     14  C   UNL     1      -0.491  -2.561   3.075  0.00  0.00    +0.049 A 
ATOM     15  C   UNL     1       0.158  -2.011   1.987  0.00  0.00    +0.049 A 
ATOM     16  C   UNL     1      -0.571  -1.365   0.999  0.00  0.00    +0.126 A 
BRANCH  16  17
ATOM     17  O   UNL     1       0.068  -0.823  -0.072  0.00  0.00    -0.495 OA
ATOM     18  C   UNL     1       1.475  -1.054  -0.173  0.00  0.00    +0.277 C 
ENDBRANCH  16  17
BRANCH  13  19
ATOM     19  O   UNL     1      -2.510  -3.009   4.252  0.00  0.00    -0.495 OA
ATOM     20  C   UNL     1      -1.697  -3.659   5.231  0.00  0.00    +0.277 C 
ENDBRANCH  13  19
ENDBRANCH   7  11
BRANCH   1  22
ATOM     21  N   UNL     1      -1.213   1.992   1.802  0.00  0.00    -0.281 N 
ATOM     22  C   UNL     1      -1.632   1.670   0.562  0.00  0.00    +0.248 C 
ATOM     23  O   UNL     1      -0.997   2.038  -0.410  0.00  0.00    -0.270 OA
ATOM     24  H   UNL     1      -1.685   1.648   2.577  0.00  0.00    +0.155 HD
BRANCH  21  29
ATOM     25  C   UNL     1       3.318   5.335   2.487  0.00  0.00    +0.044 C 
ATOM     26  C   UNL     1       2.114   4.447   2.304  0.00  0.00    -0.050 A 
ATOM     27  C   UNL     1       1.807   3.949   1.051  0.00  0.00    +0.005 A 
ATOM     28  C   UNL     1       0.707   3.131   0.882  0.00  0.00    +0.024 A 
ATOM     29  C   UNL     1      -0.097   2.816   1.970  0.00  0.00    +0.037 A 
ATOM     30  C   UNL     1       0.214   3.318   3.227  0.00  0.00    -0.029 A 
ATOM     31  C   UNL     1       1.318   4.132   3.391  0.00  0.00    +0.008 A 
ATOM     32  C   UNL     1      -0.652   2.974   4.412  0.00  0.00    +0.045 C 
ENDBRANCH  21  29
ENDBRANCH   1  22
TORSDOF 5
