REMARK  Name = ZINC42805352
REMARK  6 active torsions:
REMARK  status: ('A' for Active; 'I' for Inactive)
REMARK    1  A    between atoms: C_1  and  C_2
REMARK    2  A    between atoms: C_8  and  N_10
REMARK    3  A    between atoms: C_11  and  C_13
REMARK    4  A    between atoms: C_15  and  N_23
REMARK    5  A    between atoms: C_17  and  S_19
REMARK    6  A    between atoms: S_19  and  C_22
REMARK                            x       y       z     vdW  Elec       q    Type
REMARK                         _______ _______ _______ _____ _____    ______ ____
ROOT
ATOM      1  C   UNL     1       4.182   0.639   2.378  0.00  0.00    +0.040 A 
ATOM      2  C   UNL     1       4.789   0.992   1.172  0.00  0.00    +0.036 A 
ATOM      3  C   UNL     1       6.090   1.471   1.170  0.00  0.00    +0.027 A 
ATOM      4  C   UNL     1       6.785   1.599   2.368  0.00  0.00    +0.049 A 
ATOM      5  C   UNL     1       6.184   1.249   3.562  0.00  0.00    +0.090 A 
ATOM      6  C   UNL     1       4.887   0.777   3.575  0.00  0.00    +0.040 A 
ENDROOT
BRANCH   1   8
ATOM      7  N   UNL     1       2.116  -0.004   1.231  0.00  0.00    -0.308 N 
ATOM      8  C   UNL     1       2.795   0.128   2.388  0.00  0.00    +0.244 C 
ATOM      9  O   UNL     1       2.267  -0.174   3.440  0.00  0.00    -0.270 OA
ATOM     10  H   UNL     1       2.538   0.237   0.392  0.00  0.00    +0.149 HD
BRANCH   7  17
ATOM     11  C   UNL     1      -0.019   1.526   0.010  0.00  0.00    +0.009 C 
ATOM     12  C   UNL     1       0.002  -0.004   0.002  0.00  0.00    +0.006 C 
ATOM     13  C   UNL     1       0.718  -0.497  -1.257  0.00  0.00    +0.005 C 
ATOM     14  C   UNL     1       0.739  -2.027  -1.265  0.00  0.00    +0.000 C 
ATOM     15  C   UNL     1       1.479  -2.534  -0.026  0.00  0.00    +0.002 C 
ATOM     16  C   UNL     1       0.763  -2.041   1.233  0.00  0.00    +0.022 C 
ATOM     17  C   UNL     1       0.742  -0.511   1.242  0.00  0.00    +0.076 C 
ENDBRANCH   7  17
ENDBRANCH   1   8
BRANCH   5  18
ATOM     18  S   UNL     1       7.073   1.414   5.074  0.00  0.00    -0.006 S 
ATOM     19  O   UNL     1       6.486   0.458   5.946  0.00  0.00    -0.170 OA
ATOM     20  O   UNL     1       8.441   1.311   4.703  0.00  0.00    -0.170 OA
ATOM     21  C   UNL     1       6.707   3.094   5.650  0.00  0.00    +0.200 C 
ENDBRANCH   5  18
BRANCH   3  22
ATOM     22  N   UNL     1       6.702   1.826  -0.034  0.00  0.00    -0.358 N 
ATOM     23  H   UNL     1       6.217   1.736  -0.870  0.00  0.00    +0.142 HD
ATOM     24  H   UNL     1       7.612   2.161  -0.035  0.00  0.00    +0.142 HD
ENDBRANCH   3  22
TORSDOF 4
