REMARK  Name = ZINC21237569
REMARK  4 active torsions:
REMARK  status: ('A' for Active; 'I' for Inactive)
REMARK    1  A    between atoms: C_9  and  S_13
REMARK    2  A    between atoms: S_13  and  C_14
REMARK    3  A    between atoms: C_14  and  C_15
REMARK    4  A    between atoms: N_17  and  C_18
REMARK                            x       y       z     vdW  Elec       q    Type
REMARK                         _______ _______ _______ _____ _____    ______ ____
ROOT
ATOM      1  C   UNL     1       0.631  -6.530  -0.230  0.00  0.00    +0.005 C 
ATOM      2  C   UNL     1      -0.516  -6.860  -1.190  0.00  0.00    +0.005 C 
ATOM      3  C   UNL     1      -1.755  -6.056  -0.772  0.00  0.00    +0.043 C 
ATOM      4  C   UNL     1      -1.343  -4.632  -0.548  0.00  0.00    -0.004 A 
ATOM      5  C   UNL     1      -0.089  -4.158  -0.408  0.00  0.00    -0.025 A 
ATOM      6  C   UNL     1       0.056  -2.716  -0.197  0.00  0.00    +0.051 A 
ATOM      7  C   UNL     1       1.249  -1.959  -0.021  0.00  0.00    +0.129 A 
ATOM      8  N   UNL     1       1.164  -0.651   0.153  0.00  0.00    -0.207 NA
ATOM      9  C   UNL     1      -0.002  -0.017   0.179  0.00  0.00    +0.191 A 
ATOM     10  N   UNL     1      -1.145  -0.671   0.020  0.00  0.00    -0.214 NA
ATOM     11  C   UNL     1      -1.143  -1.977  -0.164  0.00  0.00    +0.115 A 
ATOM     12  S   UNL     1      -2.393  -3.211  -0.411  0.00  0.00    -0.073 S 
ATOM     13  N   UNL     1       2.482  -2.584  -0.037  0.00  0.00    -0.343 N 
ATOM     14  C   UNL     1       1.112  -5.098  -0.470  0.00  0.00    +0.037 C 
ATOM     15  H   UNL     1       3.400  -1.994   0.100  0.00  0.00    +0.144 HD
ATOM     16  H   UNL     1       2.546  -3.672  -0.186  0.00  0.00    +0.144 HD
ENDROOT
BRANCH   9  17
ATOM     17  S   UNL     1      -0.032   1.728   0.422  0.00  0.00    -0.077 S 
BRANCH  17  18
ATOM     18  C   UNL     1       1.742   2.054   0.573  0.00  0.00    +0.173 C 
BRANCH  18  19
ATOM     19  C   UNL     1       1.965   3.529   0.793  0.00  0.00    +0.224 C 
ATOM     20  O   UNL     1       1.018   4.284   0.843  0.00  0.00    -0.275 OA
ATOM     21  N   UNL     1       3.217   4.007   0.934  0.00  0.00    -0.309 N 
ATOM     22  H   UNL     1       4.076   3.322   0.888  0.00  0.00    +0.149 HD
BRANCH  21  23
ATOM     23  C   UNL     1       3.433   5.440   1.148  0.00  0.00    +0.035 C 
ATOM     24  C   UNL     1       2.869   6.224  -0.039  0.00  0.00    +0.029 C 
ATOM     25  C   UNL     1       3.095   7.721   0.184  0.00  0.00    -0.008 C 
ATOM     26  C   UNL     1       4.595   7.997   0.312  0.00  0.00    +0.007 C 
ATOM     27  C   UNL     1       5.159   7.213   1.498  0.00  0.00    -0.008 C 
ATOM     28  C   UNL     1       4.933   5.716   1.275  0.00  0.00    +0.029 C 
ATOM     29  C   UNL     1       4.449   7.650   2.782  0.00  0.00    +0.007 C 
ATOM     30  C   UNL     1       2.950   7.374   2.655  0.00  0.00    -0.008 C 
ATOM     31  C   UNL     1       2.386   8.158   1.468  0.00  0.00    +0.007 C 
ATOM     32  C   UNL     1       2.724   5.877   2.431  0.00  0.00    +0.029 C 
ENDBRANCH  21  23
ENDBRANCH  18  19
ENDBRANCH  17  18
ENDBRANCH   9  17
TORSDOF 4
