REMARK  Name = ZINC39083249
REMARK  4 active torsions:
REMARK  status: ('A' for Active; 'I' for Inactive)
REMARK    1  A    between atoms: C_1  and  C_2
REMARK    2  A    between atoms: C_2  and  C_11
REMARK    3  A    between atoms: C_5  and  C_7
REMARK    4  A    between atoms: C_5  and  N_10
REMARK                            x       y       z     vdW  Elec       q    Type
REMARK                         _______ _______ _______ _____ _____    ______ ____
ROOT
ATOM      1  C   UNL     1      -0.019   1.526   0.010  0.00  0.00    +0.023 C 
ATOM      2  C   UNL     1       0.002  -0.004   0.002  0.00  0.00    +0.068 C 
ATOM      3  C   UNL     1       0.835  -0.528  -1.194  0.00  0.00    +0.017 C 
ATOM      4  C   UNL     1       2.290  -0.403  -0.678  0.00  0.00    -0.001 C 
ATOM      5  C   UNL     1       2.199  -0.795   0.811  0.00  0.00    +0.034 C 
ATOM      6  C   UNL     1       0.744  -0.541   1.244  0.00  0.00    +0.016 C 
ENDROOT
BRANCH   5   7
ATOM      7  N   UNL     1       2.533  -2.215   0.980  0.00  0.00    +0.389 N 
ATOM      8  H   UNL     1       3.481  -2.376   0.672  0.00  0.00    -0.088 HD
ATOM      9  H   UNL     1       2.447  -2.468   1.953  0.00  0.00    -0.088 HD
ATOM     10  H   UNL     1       1.901  -2.777   0.429  0.00  0.00    -0.088 HD
ENDBRANCH   5   7
BRANCH   5  11
ATOM     11  C   UNL     1       3.136   0.058   1.627  0.00  0.00    +0.345 C 
ATOM     12  O   UNL     1       3.020   1.271   1.619  0.00  0.00    -0.248 OA
ATOM     13  O   UNL     1       4.011  -0.467   2.296  0.00  0.00    -0.248 OA
ENDBRANCH   5  11
BRANCH   2  14
ATOM     14  C   UNL     1      -1.402  -0.549  -0.050  0.00  0.00    +0.362 C 
ATOM     15  O   UNL     1      -2.133  -0.262  -0.982  0.00  0.00    -0.246 OA
ATOM     16  O   UNL     1      -1.807  -1.278   0.840  0.00  0.00    -0.246 OA
ENDBRANCH   2  14
TORSDOF 3
