REMARK  Name = ZINC03850671
REMARK  8 active torsions:
REMARK  status: ('A' for Active; 'I' for Inactive)
REMARK    1  A    between atoms: C_4  and  O_7
REMARK    2  A    between atoms: O_7  and  C_8
REMARK    3  A    between atoms: C_8  and  C_10
REMARK    4  A    between atoms: C_11  and  N_28
REMARK    5  A    between atoms: C_13  and  N_27
REMARK    6  A    between atoms: C_14  and  C_18
REMARK    7  A    between atoms: C_18  and  O_20
REMARK    8  A    between atoms: O_20  and  C_21
REMARK                            x       y       z     vdW  Elec       q    Type
REMARK                         _______ _______ _______ _____ _____    ______ ____
ROOT
ATOM      1  C   UNL     1       0.250  -2.659   0.024  0.00  0.00    +0.119 A 
ATOM      2  C   UNL     1       1.366  -1.849   0.084  0.00  0.00    +0.056 A 
ATOM      3  C   UNL     1       1.221  -0.430   0.075  0.00  0.00    +0.039 A 
ATOM      4  C   UNL     1       2.159   0.643   0.126  0.00  0.00    +0.056 A 
ATOM      5  C   UNL     1       1.716   1.950   0.101  0.00  0.00    +0.119 A 
ATOM      6  S   UNL     1      -0.056   1.758   0.006  0.00  0.00    -0.073 S 
ATOM      7  C   UNL     1      -0.119  -0.003   0.003  0.00  0.00    +0.062 A 
ATOM      8  S   UNL     1      -1.085  -1.475  -0.049  0.00  0.00    -0.073 S 
ENDROOT
BRANCH   4   9
ATOM      9  N   UNL     1       3.517   0.374   0.199  0.00  0.00    -0.356 N 
ATOM     10  H   UNL     1       3.880  -0.414  -0.237  0.00  0.00    +0.142 HD
ATOM     11  H   UNL     1       4.105   0.973   0.685  0.00  0.00    +0.142 HD
ENDBRANCH   4   9
BRANCH   2  12
ATOM     12  N   UNL     1       2.630  -2.417   0.153  0.00  0.00    -0.356 N 
ATOM     13  H   UNL     1       2.726  -3.379   0.220  0.00  0.00    +0.142 HD
ATOM     14  H   UNL     1       3.417  -1.850   0.134  0.00  0.00    +0.142 HD
ENDBRANCH   2  12
BRANCH   1  15
ATOM     15  C   UNL     1       0.180  -4.066   0.021  0.00  0.00    +0.353 C 
ATOM     16  O   UNL     1       1.202  -4.726   0.076  0.00  0.00    -0.244 OA
BRANCH  15  17
ATOM     17  O   UNL     1      -1.019  -4.683  -0.044  0.00  0.00    -0.422 OA
BRANCH  17  21
ATOM     18  C   UNL     1      -1.104  -8.794   0.300  0.00  0.00    +0.000 A 
ATOM     19  C   UNL     1      -0.912  -8.011   1.423  0.00  0.00    +0.004 A 
ATOM     20  C   UNL     1      -0.883  -6.634   1.311  0.00  0.00    +0.046 A 
ATOM     21  C   UNL     1      -1.047  -6.037   0.069  0.00  0.00    +0.132 A 
ATOM     22  C   UNL     1      -1.246  -6.825  -1.056  0.00  0.00    +0.046 A 
ATOM     23  C   UNL     1      -1.268  -8.201  -0.939  0.00  0.00    +0.004 A 
ENDBRANCH  17  21
ENDBRANCH  15  17
ENDBRANCH   1  15
BRANCH   5  24
ATOM     24  C   UNL     1       2.473   3.138   0.141  0.00  0.00    +0.353 C 
ATOM     25  O   UNL     1       3.688   3.085   0.207  0.00  0.00    -0.244 OA
BRANCH  24  26
ATOM     26  O   UNL     1       1.851   4.337   0.108  0.00  0.00    -0.422 OA
BRANCH  26  27
ATOM     27  C   UNL     1       2.621   5.454   0.028  0.00  0.00    +0.132 A 
ATOM     28  C   UNL     1       2.703   6.319   1.109  0.00  0.00    +0.046 A 
ATOM     29  C   UNL     1       3.491   7.451   1.028  0.00  0.00    +0.004 A 
ATOM     30  C   UNL     1       4.189   7.727  -0.134  0.00  0.00    +0.000 A 
ATOM     31  C   UNL     1       4.104   6.869  -1.214  0.00  0.00    +0.004 A 
ATOM     32  C   UNL     1       3.322   5.733  -1.136  0.00  0.00    +0.046 A 
ENDBRANCH  26  27
ENDBRANCH  24  26
ENDBRANCH   5  24
TORSDOF 8
