REMARK  Name = ZINC33958664
REMARK  7 active torsions:
REMARK  status: ('A' for Active; 'I' for Inactive)
REMARK    1  A    between atoms: C_7  and  C_14
REMARK    2  A    between atoms: N_9  and  C_10
REMARK    3  A    between atoms: C_10  and  C_11
REMARK    4  A    between atoms: N_15  and  N_16
REMARK    5  A    between atoms: C_17  and  C_19
REMARK    6  A    between atoms: C_19  and  O_20
REMARK    7  A    between atoms: O_20  and  C_21
REMARK                            x       y       z     vdW  Elec       q    Type
REMARK                         _______ _______ _______ _____ _____    ______ ____
ROOT
ATOM      1  C   UNL     1      -0.017   1.373   0.010  0.00  0.00    +0.001 A 
ATOM      2  C   UNL     1       1.172   2.090   0.002  0.00  0.00    +0.002 A 
ATOM      3  C   UNL     1       2.385   1.438  -0.013  0.00  0.00    +0.026 A 
ATOM      4  C   UNL     1       2.425   0.047  -0.021  0.00  0.00    +0.050 A 
ATOM      5  C   UNL     1       1.222  -0.677  -0.013  0.00  0.00    +0.009 A 
ATOM      6  C   UNL     1       0.002  -0.004   0.002  0.00  0.00    +0.010 A 
ATOM      7  C   UNL     1       1.604  -2.101  -0.025  0.00  0.00    +0.020 A 
ATOM      8  C   UNL     1       2.964  -2.137  -0.039  0.00  0.00    +0.096 A 
ATOM      9  N   UNL     1       3.458  -0.867  -0.037  0.00  0.00    -0.337 N 
ENDROOT
BRANCH   7  10
ATOM     10  C   UNL     1       0.693  -3.256  -0.022  0.00  0.00    +0.140 C 
ATOM     11  N   UNL     1      -0.593  -3.070  -0.008  0.00  0.00    -0.188 NA
BRANCH  11  12
ATOM     12  N   UNL     1      -1.460  -4.170  -0.006  0.00  0.00    -0.204 N 
ATOM     13  C   UNL     1      -2.794  -3.977   0.009  0.00  0.00    +0.270 C 
ATOM     14  O   UNL     1      -3.243  -2.849   0.020  0.00  0.00    -0.270 OA
ATOM     15  H   UNL     1      -1.101  -5.071  -0.014  0.00  0.00    +0.177 HD
BRANCH  13  16
ATOM     16  C   UNL     1      -3.727  -5.160   0.012  0.00  0.00    +0.326 C 
BRANCH  16  17
ATOM     17  O   UNL     1      -5.080  -4.700   0.028  0.00  0.00    -0.483 OA
BRANCH  17  18
ATOM     18  C   UNL     1      -6.054  -5.647   0.032  0.00  0.00    +0.122 A 
ATOM     19  C   UNL     1      -5.714  -6.993   0.027  0.00  0.00    +0.046 A 
ATOM     20  C   UNL     1      -6.705  -7.955   0.032  0.00  0.00    +0.005 A 
ATOM     21  C   UNL     1      -8.036  -7.578   0.041  0.00  0.00    +0.015 A 
ATOM     22  C   UNL     1      -8.377  -6.238   0.046  0.00  0.00    +0.021 A 
ATOM     23  C   UNL     1      -7.388  -5.271   0.048  0.00  0.00    +0.061 A 
ATOM     24 BR   UNL     1     -10.198  -5.726   0.058  0.00  0.00    -0.050 Br
ENDBRANCH  17  18
ENDBRANCH  16  17
ENDBRANCH  13  16
ENDBRANCH  11  12
ENDBRANCH   7  10
BRANCH   9  25
ATOM     25  C   UNL     1       4.881  -0.522  -0.050  0.00  0.00    +0.217 C 
BRANCH  25  26
ATOM     26  C   UNL     1       5.355  -0.290   1.362  0.00  0.00    +0.230 C 
ATOM     27  O   UNL     1       4.580  -0.403   2.288  0.00  0.00    -0.274 OA
ATOM     28  N   UNL     1       6.641   0.041   1.595  0.00  0.00    -0.328 N 
ATOM     29  H   UNL     1       7.261   0.131   0.855  0.00  0.00    +0.145 HD
ATOM     30  H   UNL     1       6.946   0.190   2.504  0.00  0.00    +0.145 HD
ENDBRANCH  25  26
ENDBRANCH   9  25
TORSDOF 7
