REMARK  Name = ZINC28814060
REMARK  6 active torsions:
REMARK  status: ('A' for Active; 'I' for Inactive)
REMARK    1  A    between atoms: C_1  and  C_2
REMARK    2  A    between atoms: C_2  and  O_3
REMARK    3  A    between atoms: O_3  and  C_4
REMARK    4  A    between atoms: N_6  and  N_7
REMARK    5  A    between atoms: C_8  and  C_10
REMARK    6  A    between atoms: C_15  and  O_16
REMARK                            x       y       z     vdW  Elec       q    Type
REMARK                         _______ _______ _______ _____ _____    ______ ____
ROOT
ATOM      1  N   UNL     1       2.389   5.297   0.007  0.00  0.00    -0.228 N 
ATOM      2  C   UNL     1       2.417   3.950   0.000  0.00  0.00    +0.264 C 
ATOM      3  O   UNL     1       3.482   3.364  -0.012  0.00  0.00    -0.269 OA
ATOM      4  H   UNL     1       1.425   5.827   0.019  0.00  0.00    +0.173 HD
ENDROOT
BRANCH   2   5
ATOM      5  C   UNL     1       1.155   3.186   0.008  0.00  0.00    +0.081 A 
ATOM      6  C   UNL     1      -0.071   3.855   0.022  0.00  0.00    +0.032 A 
ATOM      7  C   UNL     1      -1.247   3.135   0.030  0.00  0.00    +0.019 A 
ATOM      8  C   UNL     1      -1.218   1.749   0.017  0.00  0.00    +0.019 A 
ATOM      9  C   UNL     1      -0.013   1.076   0.008  0.00  0.00    +0.047 A 
ATOM     10  C   UNL     1       1.180   1.785   0.000  0.00  0.00    +0.129 A 
ATOM     11 BR   UNL     1      -2.906   4.041   0.049  0.00  0.00    -0.050 Br
BRANCH  10  12
ATOM     12  O   UNL     1       2.365   1.124  -0.015  0.00  0.00    -0.506 OA
ATOM     13  H   UNL     1       2.381   0.024  -0.020  0.00  0.00    +0.292 HD
ENDBRANCH  10  12
ENDBRANCH   2   5
BRANCH   1  16
ATOM     14  C   UNL     1       3.559   7.370   0.007  0.00  0.00    +0.417 C 
ATOM     15  O   UNL     1       4.598   8.000   0.001  0.00  0.00    -0.225 OA
ATOM     16  N   UNL     1       3.587   6.023   0.000  0.00  0.00    -0.199 N 
ATOM     17  H   UNL     1       4.551   5.493  -0.011  0.00  0.00    +0.176 HD
BRANCH  14  18
ATOM     18  O   UNL     1       2.379   8.019   0.021  0.00  0.00    -0.450 OA
BRANCH  18  20
ATOM     19  C   UNL     1       0.999  10.025   0.044  0.00  0.00    +0.048 C 
ATOM     20  C   UNL     1       2.425   9.470   0.028  0.00  0.00    +0.230 C 
ENDBRANCH  18  20
ENDBRANCH  14  18
ENDBRANCH   1  16
TORSDOF 5
