REMARK  Name = ZINC09602487
REMARK  10 active torsions:
REMARK  status: ('A' for Active; 'I' for Inactive)
REMARK    1  A    between atoms: C_1  and  C_2
REMARK    2  A    between atoms: C_7  and  N_8
REMARK    3  A    between atoms: C_9  and  C_11
REMARK    4  A    between atoms: C_11  and  C_12
REMARK    5  A    between atoms: N_23  and  C_24
REMARK    6  A    between atoms: C_24  and  C_25
REMARK    7  A    between atoms: C_25  and  O_26
REMARK    8  A    between atoms: O_26  and  C_27
REMARK    9  A    between atoms: C_30  and  S_33
REMARK   10  A    between atoms: S_33  and  N_36
REMARK                            x       y       z     vdW  Elec       q    Type
REMARK                         _______ _______ _______ _____ _____    ______ ____
ROOT
ATOM      1  C   UNL     1      -1.023  -0.590   0.694  0.00  0.00    +0.169 C 
ATOM      2  C   UNL     1      -0.709  -2.062   0.771  0.00  0.00    +0.238 C 
ATOM      3  O   UNL     1      -1.595  -2.884   0.668  0.00  0.00    -0.273 OA
ATOM      4  N   UNL     1       0.569  -2.457   0.957  0.00  0.00    -0.282 N 
ATOM      5  C   UNL     1       1.582  -1.488   0.969  0.00  0.00    +0.055 A 
ATOM      6  C   UNL     1       2.851  -1.807   1.424  0.00  0.00    +0.025 A 
ATOM      7  C   UNL     1       3.841  -0.841   1.443  0.00  0.00    +0.002 A 
ATOM      8  C   UNL     1       3.569   0.440   1.000  0.00  0.00    +0.002 A 
ATOM      9  C   UNL     1       2.312   0.760   0.524  0.00  0.00    +0.025 A 
ATOM     10  C   UNL     1       1.314  -0.204   0.494  0.00  0.00    +0.052 A 
ATOM     11  N   UNL     1       0.051   0.116  -0.011  0.00  0.00    -0.313 N 
ATOM     12  H   UNL     1       0.782  -3.395   1.082  0.00  0.00    +0.155 HD
ENDROOT
BRANCH   1  13
ATOM     13  C   UNL     1      -1.158  -0.024   2.109  0.00  0.00    +0.128 C 
BRANCH  13  15
ATOM     14  N   UNL     1      -2.574  -0.418   4.098  0.00  0.00    -0.285 N 
ATOM     15  C   UNL     1      -2.338  -0.663   2.794  0.00  0.00    +0.219 C 
ATOM     16  O   UNL     1      -3.076  -1.399   2.173  0.00  0.00    -0.275 OA
ATOM     17  H   UNL     1      -2.026   0.223   4.578  0.00  0.00    +0.155 HD
BRANCH  14  24
ATOM     18  C   UNL     1      -2.359  -0.779   6.912  0.00  0.00    +0.045 C 
ATOM     19  C   UNL     1      -3.546  -1.284   6.133  0.00  0.00    -0.029 A 
ATOM     20  C   UNL     1      -4.570  -1.944   6.783  0.00  0.00    +0.005 A 
ATOM     21  C   UNL     1      -5.660  -2.407   6.068  0.00  0.00    +0.000 A 
ATOM     22  C   UNL     1      -5.727  -2.211   4.700  0.00  0.00    +0.002 A 
ATOM     23  C   UNL     1      -4.709  -1.547   4.045  0.00  0.00    +0.023 A 
ATOM     24  C   UNL     1      -3.611  -1.086   4.760  0.00  0.00    +0.036 A 
ENDBRANCH  14  24
ENDBRANCH  13  15
ENDBRANCH   1  13
BRANCH  11  25
ATOM     25  C   UNL     1      -0.171   1.567   0.007  0.00  0.00    +0.147 C 
BRANCH  25  26
ATOM     26  C   UNL     1      -1.448   1.898  -0.768  0.00  0.00    +0.248 C 
BRANCH  26  27
ATOM     27  O   UNL     1      -2.579   1.383  -0.064  0.00  0.00    -0.490 OA
BRANCH  27  28
ATOM     28  C   UNL     1      -3.801   1.592  -0.622  0.00  0.00    +0.121 A 
ATOM     29  C   UNL     1      -3.908   2.284  -1.819  0.00  0.00    +0.047 A 
ATOM     30  C   UNL     1      -5.151   2.490  -2.388  0.00  0.00    +0.032 A 
ATOM     31  C   UNL     1      -6.287   2.018  -1.758  0.00  0.00    +0.105 A 
ATOM     32  C   UNL     1      -6.183   1.333  -0.561  0.00  0.00    +0.032 A 
ATOM     33  C   UNL     1      -4.943   1.119   0.008  0.00  0.00    +0.047 A 
BRANCH  31  34
ATOM     34  S   UNL     1      -7.871   2.289  -2.481  0.00  0.00    +0.056 S 
ATOM     35  O   UNL     1      -7.655   2.478  -3.873  0.00  0.00    -0.153 OA
ATOM     36  O   UNL     1      -8.728   1.275  -1.974  0.00  0.00    -0.153 OA
BRANCH  34  37
ATOM     37  N   UNL     1      -8.439   3.728  -1.890  0.00  0.00    -0.204 NA
ATOM     38  H   UNL     1      -7.904   4.240  -1.264  0.00  0.00    +0.144 HD
ATOM     39  H   UNL     1      -9.306   4.059  -2.171  0.00  0.00    +0.144 HD
ENDBRANCH  34  37
ENDBRANCH  31  34
ENDBRANCH  27  28
ENDBRANCH  26  27
ENDBRANCH  25  26
ENDBRANCH  11  25
TORSDOF 9
