REMARK  Name = ZINC51819819
REMARK  7 active torsions:
REMARK  status: ('A' for Active; 'I' for Inactive)
REMARK    1  A    between atoms: C_1  and  C_2
REMARK    2  A    between atoms: C_2  and  C_4
REMARK    3  A    between atoms: C_2  and  O_19
REMARK    4  A    between atoms: C_4  and  N_5
REMARK    5  A    between atoms: N_5  and  C_6
REMARK    6  A    between atoms: N_5  and  C_7
REMARK    7  A    between atoms: C_12  and  N_13
REMARK                            x       y       z     vdW  Elec       q    Type
REMARK                         _______ _______ _______ _____ _____    ______ ____
ROOT
ATOM      1  C   UNL     1       1.631  -2.747  -0.733  0.00  0.00    +0.052 A 
ATOM      2  C   UNL     1       1.501  -3.154   0.586  0.00  0.00    +0.052 A 
ATOM      3  C   UNL     1       2.488  -3.933   1.168  0.00  0.00    +0.078 A 
ATOM      4  C   UNL     1       3.610  -4.308   0.431  0.00  0.00    +0.144 A 
ATOM      5  C   UNL     1       3.741  -3.901  -0.885  0.00  0.00    +0.072 A 
ATOM      6  C   UNL     1       2.751  -3.126  -1.472  0.00  0.00    +0.049 A 
ATOM      7  O   UNL     1       4.572  -5.071   1.018  0.00  0.00    -0.481 OA
ATOM      8  C   UNL     1       4.790  -4.868   2.417  0.00  0.00    +0.325 C 
ATOM      9  C   UNL     1       3.466  -4.833   3.136  0.00  0.00    +0.255 C 
ATOM     10  O   UNL     1       3.382  -5.231   4.279  0.00  0.00    -0.272 OA
ATOM     11  N   UNL     1       2.372  -4.356   2.503  0.00  0.00    -0.280 N 
ATOM     12  H   UNL     1       1.519  -4.306   2.963  0.00  0.00    +0.155 HD
ENDROOT
BRANCH   6  13
ATOM     13  N   UNL     1       2.879  -2.719  -2.808  0.00  0.00    -0.356 N 
ATOM     14  H   UNL     1       2.189  -2.174  -3.217  0.00  0.00    +0.142 HD
ATOM     15  H   UNL     1       3.658  -2.983  -3.322  0.00  0.00    +0.142 HD
ENDBRANCH   6  13
BRANCH   1  16
ATOM     16  N   UNL     1       0.634  -1.958  -1.325  0.00  0.00    -0.329 N 
ATOM     17  C   UNL     1      -0.492  -2.596  -2.013  0.00  0.00    +0.129 C 
BRANCH  16  18
ATOM     18  C   UNL     1       0.718  -0.497  -1.257  0.00  0.00    +0.135 C 
BRANCH  18  20
ATOM     19  C   UNL     1      -0.019   1.526   0.010  0.00  0.00    +0.039 C 
ATOM     20  C   UNL     1       0.002  -0.004   0.002  0.00  0.00    +0.129 C 
BRANCH  20  21
ATOM     21  O   UNL     1       0.693  -0.477   1.160  0.00  0.00    -0.391 OA
ATOM     22  H   UNL     1       0.294  -0.202   1.996  0.00  0.00    +0.210 HD
ENDBRANCH  20  21
ENDBRANCH  18  20
ENDBRANCH  16  18
ENDBRANCH   1  16
TORSDOF 5
