REMARK  Name = ZINC32106539
REMARK  7 active torsions:
REMARK  status: ('A' for Active; 'I' for Inactive)
REMARK    1  A    between atoms: C_1  and  C_2
REMARK    2  A    between atoms: C_2  and  O_3
REMARK    3  A    between atoms: O_3  and  C_4
REMARK    4  A    between atoms: C_4  and  C_6
REMARK    5  A    between atoms: C_8  and  C_22
REMARK    6  A    between atoms: C_15  and  C_16
REMARK    7  A    between atoms: C_15  and  O_17
REMARK                            x       y       z     vdW  Elec       q    Type
REMARK                         _______ _______ _______ _____ _____    ______ ____
ROOT
ATOM      1  C   UNL     1       1.065   3.253  -0.096  0.00  0.00    +0.137 C 
ATOM      2  C   UNL     1       0.297   2.955   1.208  0.00  0.00    +0.049 C 
ATOM      3  C   UNL     1       1.308   2.373   2.169  0.00  0.00    +0.109 C 
ATOM      4  C   UNL     1       1.744   1.002   1.578  0.00  0.00    +0.084 C 
ATOM      5  C   UNL     1       2.626   1.308   0.393  0.00  0.00    +0.058 C 
ATOM      6  C   UNL     1       1.739   2.005  -0.655  0.00  0.00    +0.078 C 
ATOM      7  C   UNL     1       2.603   2.402  -1.853  0.00  0.00    +0.042 C 
ATOM      8  N   UNL     1       2.309   0.393   2.772  0.00  0.00    -0.334 NA
ATOM      9  N   UNL     1       1.487   0.857   3.829  0.00  0.00    -0.167 NA
ATOM     10  C   UNL     1       0.894   1.982   3.546  0.00  0.00    +0.265 C 
ATOM     11  O   UNL     1       0.053   2.672   4.357  0.00  0.00    -0.269 OA
ATOM     12  H   UNL     1       2.275  -0.702   2.676  0.00  0.00    +0.143 HD
ATOM     13  H   UNL     1       3.353   0.718   2.890  0.00  0.00    +0.143 HD
ENDROOT
BRANCH   2  14
ATOM     14  C   UNL     1      -0.802   1.958   0.946  0.00  0.00    -0.043 A 
ATOM     15  C   UNL     1      -1.380   1.274   1.998  0.00  0.00    +0.004 A 
ATOM     16  C   UNL     1      -2.392   0.363   1.758  0.00  0.00    +0.000 A 
ATOM     17  C   UNL     1      -2.819   0.129   0.464  0.00  0.00    +0.000 A 
ATOM     18  C   UNL     1      -2.237   0.810  -0.589  0.00  0.00    +0.000 A 
ATOM     19  C   UNL     1      -1.229   1.725  -0.348  0.00  0.00    +0.004 A 
ENDBRANCH   2  14
BRANCH   1  20
ATOM     20  C   UNL     1       0.100   3.791  -1.121  0.00  0.00    +0.314 C 
ATOM     21  O   UNL     1      -0.952   4.270  -0.768  0.00  0.00    -0.250 OA
BRANCH  20  22
ATOM     22  O   UNL     1       0.410   3.739  -2.426  0.00  0.00    -0.465 OA
BRANCH  22  24
ATOM     23  C   UNL     1      -0.042   4.130  -4.787  0.00  0.00    +0.048 C 
ATOM     24  C   UNL     1      -0.567   4.276  -3.357  0.00  0.00    +0.229 C 
ENDBRANCH  22  24
ENDBRANCH  20  22
ENDBRANCH   1  20
BRANCH   6  25
ATOM     25  O   UNL     1       0.732   1.090  -1.092  0.00  0.00    -0.388 OA
ATOM     26  H   UNL     1       1.020   0.123  -1.530  0.00  0.00    +0.210 HD
ENDBRANCH   6  25
TORSDOF 5
