REMARK  Name = ZINC14653826
REMARK  12 active torsions:
REMARK  status: ('A' for Active; 'I' for Inactive)
REMARK    1  A    between atoms: C_1  and  C_2
REMARK    2  A    between atoms: C_3  and  C_28
REMARK    3  A    between atoms: C_5  and  N_10
REMARK    4  A    between atoms: C_6  and  C_7
REMARK    5  A    between atoms: N_10  and  C_11
REMARK    6  A    between atoms: C_11  and  N_13
REMARK    7  A    between atoms: C_14  and  C_16
REMARK    8  A    between atoms: C_19  and  O_23
REMARK    9  A    between atoms: O_23  and  C_24
REMARK   10  A    between atoms: C_24  and  C_25
REMARK   11  A    between atoms: C_25  and  C_26
REMARK   12  A    between atoms: C_25  and  C_27
REMARK                            x       y       z     vdW  Elec       q    Type
REMARK                         _______ _______ _______ _____ _____    ______ ____
ROOT
ATOM      1  C   UNL     1      -0.935   3.568   0.026  0.00  0.00    +0.141 C 
ATOM      2  S   UNL     1       0.648   4.219   0.022  0.00  0.00    -0.018 S 
ENDROOT
BRANCH   1   3
ATOM      3  N   UNL     1      -2.003   4.391   0.036  0.00  0.00    -0.264 N 
ATOM      4  C   UNL     1      -1.824   5.726   0.042  0.00  0.00    +0.250 C 
ATOM      5  O   UNL     1      -0.700   6.189   0.039  0.00  0.00    -0.270 OA
ATOM      6  H   UNL     1      -2.900   4.021   0.038  0.00  0.00    +0.157 HD
BRANCH   4   7
ATOM      7  C   UNL     1      -2.992   6.627   0.053  0.00  0.00    +0.038 A 
ATOM      8  C   UNL     1      -4.286   6.097   0.051  0.00  0.00    +0.017 A 
ATOM      9  C   UNL     1      -5.374   6.941   0.067  0.00  0.00    +0.047 A 
ATOM     10  C   UNL     1      -5.188   8.318   0.073  0.00  0.00    +0.134 A 
ATOM     11  C   UNL     1      -3.903   8.850   0.070  0.00  0.00    +0.060 A 
ATOM     12  C   UNL     1      -2.809   8.012   0.060  0.00  0.00    +0.032 A 
ATOM     13 BR   UNL     1      -3.657  10.725   0.079  0.00  0.00    -0.046 Br
BRANCH  10  14
ATOM     14  O   UNL     1      -6.263   9.146   0.082  0.00  0.00    -0.491 OA
BRANCH  14  15
ATOM     15  C   UNL     1      -7.554   8.533   0.085  0.00  0.00    +0.232 C 
BRANCH  15  16
ATOM     16  C   UNL     1      -8.633   9.617   0.096  0.00  0.00    +0.020 C 
ATOM     17  C   UNL     1     -10.012   8.966  -0.027  0.00  0.00    +0.010 C 
ATOM     18  C   UNL     1      -8.555  10.402   1.407  0.00  0.00    +0.010 C 
ENDBRANCH  15  16
ENDBRANCH  14  15
ENDBRANCH  10  14
ENDBRANCH   4   7
ENDBRANCH   1   3
BRANCH   1  19
ATOM     19  N   UNL     1      -1.114   2.232   0.020  0.00  0.00    -0.291 N 
ATOM     20  H   UNL     1      -2.011   1.863   0.022  0.00  0.00    +0.154 HD
BRANCH  19  25
ATOM     21  C   UNL     1       1.444  -2.135  -0.023  0.00  0.00    +0.045 C 
ATOM     22  C   UNL     1       1.300  -0.635  -0.014  0.00  0.00    -0.027 A 
ATOM     23  C   UNL     1       2.376   0.172  -0.020  0.00  0.00    -0.008 A 
ATOM     24  S   UNL     1       1.663   1.804  -0.004  0.00  0.00    -0.078 S 
ATOM     25  C   UNL     1      -0.017   1.386   0.010  0.00  0.00    +0.084 A 
ATOM     26  C   UNL     1       0.002  -0.004   0.002  0.00  0.00    +0.068 A 
ATOM     27  C   UNL     1       3.833  -0.212  -0.037  0.00  0.00    +0.052 C 
BRANCH  26  28
ATOM     28  C   UNL     1      -1.235  -0.790   0.010  0.00  0.00    +0.244 C 
ATOM     29  O   UNL     1      -1.759  -1.111  -1.041  0.00  0.00    -0.270 OA
ATOM     30  N   UNL     1      -1.793  -1.157   1.181  0.00  0.00    -0.325 N 
ATOM     31  H   UNL     1      -1.375  -0.901   2.018  0.00  0.00    +0.145 HD
ATOM     32  H   UNL     1      -2.611  -1.677   1.186  0.00  0.00    +0.145 HD
ENDBRANCH  26  28
ENDBRANCH  19  25
ENDBRANCH   1  19
TORSDOF 8
