REMARK  Name = ZINC61690785
REMARK  6 active torsions:
REMARK  status: ('A' for Active; 'I' for Inactive)
REMARK    1  A    between atoms: C_1  and  C_2
REMARK    2  A    between atoms: C_2  and  C_4
REMARK    3  A    between atoms: C_2  and  N_12
REMARK    4  A    between atoms: C_6  and  O_11
REMARK    5  A    between atoms: C_9  and  O_10
REMARK    6  A    between atoms: N_12  and  C_13
REMARK                            x       y       z     vdW  Elec       q    Type
REMARK                         _______ _______ _______ _____ _____    ______ ____
ROOT
ATOM      1  C   UNL     1      -0.019   1.526   0.010  0.00  0.00    +0.033 C 
ATOM      2  C   UNL     1       0.002  -0.004   0.002  0.00  0.00    +0.101 C 
ENDROOT
BRANCH   2   3
ATOM      3  C   UNL     1       0.731  -0.503   1.223  0.00  0.00    +0.017 A 
ATOM      4  C   UNL     1       2.076  -0.808   1.148  0.00  0.00    +0.054 A 
ATOM      5  C   UNL     1       2.747  -1.267   2.271  0.00  0.00    +0.117 A 
ATOM      6  C   UNL     1       2.067  -1.420   3.471  0.00  0.00    +0.049 A 
ATOM      7  C   UNL     1       0.722  -1.116   3.546  0.00  0.00    +0.049 A 
ATOM      8  C   UNL     1       0.052  -0.651   2.423  0.00  0.00    +0.122 A 
BRANCH   8   9
ATOM      9  O   UNL     1      -1.271  -0.346   2.499  0.00  0.00    -0.506 OA
ATOM     10  H   UNL     1      -1.857  -1.090   2.302  0.00  0.00    +0.292 HD
ENDBRANCH   8   9
BRANCH   5  11
ATOM     11  O   UNL     1       4.071  -1.567   2.197  0.00  0.00    -0.507 OA
ATOM     12  H   UNL     1       4.655  -0.822   2.396  0.00  0.00    +0.292 HD
ENDBRANCH   5  11
ENDBRANCH   2   3
BRANCH   2  13
ATOM     13  N   UNL     1       0.688  -0.476  -1.203  0.00  0.00    -0.336 N 
ATOM     14  H   UNL     1       1.632  -0.695  -1.170  0.00  0.00    +0.147 HD
BRANCH  13  15
ATOM     15  C   UNL     1      -0.019  -0.613  -2.401  0.00  0.00    +0.047 A 
ATOM     16  C   UNL     1      -1.370  -0.296  -2.452  0.00  0.00    +0.039 A 
ATOM     17  C   UNL     1      -2.066  -0.431  -3.638  0.00  0.00    +0.020 A 
ATOM     18  C   UNL     1      -1.418  -0.883  -4.775  0.00  0.00    +0.017 A 
ATOM     19  C   UNL     1      -0.073  -1.200  -4.727  0.00  0.00    +0.023 A 
ATOM     20  C   UNL     1       0.630  -1.061  -3.546  0.00  0.00    +0.062 A 
ATOM     21 CL   UNL     1       2.321  -1.452  -3.489  0.00  0.00    -0.082 Cl
ATOM     22 BR   UNL     1      -3.906   0.000  -3.709  0.00  0.00    -0.050 Br
ENDBRANCH  13  15
ENDBRANCH   2  13
TORSDOF 5
