REMARK  Name = ZINC50693518
REMARK  2 active torsions:
REMARK  status: ('A' for Active; 'I' for Inactive)
REMARK    1  A    between atoms: C_2  and  C_9
REMARK    2  A    between atoms: N_11  and  C_12
REMARK                            x       y       z     vdW  Elec       q    Type
REMARK                         _______ _______ _______ _____ _____    ______ ____
ROOT
ATOM      1  C   UNL     1      -0.017   1.365   0.009  0.00  0.00    +0.038 A 
ATOM      2  C   UNL     1       1.208   2.051   0.002  0.00  0.00    +0.061 A 
ATOM      3  C   UNL     1       2.396   1.318  -0.014  0.00  0.00    +0.126 A 
ATOM      4  N   UNL     1       2.369   0.001  -0.021  0.00  0.00    -0.238 NA
ATOM      5  C   UNL     1       1.227  -0.671  -0.013  0.00  0.00    +0.135 A 
ATOM      6  C   UNL     1       0.002  -0.004   0.002  0.00  0.00    +0.081 A 
ATOM      7 CL   UNL     1      -1.484  -0.901   0.012  0.00  0.00    -0.080 Cl
ATOM      8  N   UNL     1       1.250  -2.058  -0.021  0.00  0.00    -0.342 N 
ATOM      9  H   UNL     1       2.097  -2.529  -0.032  0.00  0.00    +0.144 HD
ATOM     10  H   UNL     1       0.417  -2.557  -0.016  0.00  0.00    +0.144 HD
ENDROOT
BRANCH   2  11
ATOM     11  C   UNL     1       1.240   3.525   0.009  0.00  0.00    +0.281 C 
ATOM     12  O   UNL     1       0.084   4.226   0.023  0.00  0.00    -0.265 OA
ATOM     13  N   UNL     1       2.391   4.157   0.001  0.00  0.00    -0.181 NA
BRANCH  13  14
ATOM     14  C   UNL     1       2.420   5.516   0.008  0.00  0.00    +0.218 A 
ATOM     15  N   UNL     1       1.419   6.395   0.027  0.00  0.00    -0.122 NA
ATOM     16  N   UNL     1       1.630   7.638   0.031  0.00  0.00    -0.148 NA
ATOM     17  C   UNL     1       2.848   8.145   0.015  0.00  0.00    +0.183 A 
ATOM     18  S   UNL     1       3.815   6.638   0.000  0.00  0.00    -0.034 S 
ENDBRANCH  13  14
ENDBRANCH   2  11
TORSDOF 2
