REMARK  Name = ZINC35099437
REMARK  8 active torsions:
REMARK  status: ('A' for Active; 'I' for Inactive)
REMARK    1  A    between atoms: C_1  and  C_2
REMARK    2  A    between atoms: C_2  and  C_4
REMARK    3  A    between atoms: C_7  and  C_10
REMARK    4  A    between atoms: C_13  and  C_15
REMARK    5  A    between atoms: C_17  and  C_29
REMARK    6  A    between atoms: C_19  and  C_24
REMARK    7  A    between atoms: C_19  and  O_28
REMARK    8  A    between atoms: C_29  and  C_31
REMARK                            x       y       z     vdW  Elec       q    Type
REMARK                         _______ _______ _______ _____ _____    ______ ____
ROOT
ATOM      1  C   UNL     1      -8.544  -3.195   0.051  0.00  0.00    +0.156 C 
ATOM      2  C   UNL     1      -9.028  -2.883  -1.369  0.00  0.00    +0.147 C 
ATOM      3  C   UNL     1     -10.531  -2.586  -1.319  0.00  0.00    +0.243 C 
ATOM      4  N   UNL     1     -10.775  -1.505  -0.362  0.00  0.00    -0.264 N 
ATOM      5  C   UNL     1      -9.970  -1.313   0.693  0.00  0.00    +0.302 C 
ATOM      6  O   UNL     1     -10.223  -0.407   1.463  0.00  0.00    -0.253 OA
ATOM      7  N   UNL     1      -8.896  -2.082   0.934  0.00  0.00    -0.289 N 
ATOM      8  H   UNL     1     -11.534  -0.916  -0.494  0.00  0.00    +0.153 HD
ATOM      9  H   UNL     1      -8.342  -1.896   1.708  0.00  0.00    +0.151 HD
ENDROOT
BRANCH   1  13
ATOM     10  C   UNL     1      -4.901  -2.925   0.032  0.00  0.00    +0.135 A 
ATOM     11  C   UNL     1      -5.024  -4.281   0.036  0.00  0.00    +0.050 A 
ATOM     12  C   UNL     1      -6.403  -4.563   0.044  0.00  0.00    +0.047 A 
ATOM     13  C   UNL     1      -7.049  -3.379   0.044  0.00  0.00    +0.127 A 
ATOM     14  O   UNL     1      -6.139  -2.392   0.043  0.00  0.00    -0.458 OA
BRANCH  10  18
ATOM     15  C   UNL     1      -1.259  -0.755   0.010  0.00  0.00    +0.017 A 
ATOM     16  C   UNL     1      -2.482  -0.072   0.019  0.00  0.00    +0.012 A 
ATOM     17  C   UNL     1      -3.654  -0.771   0.026  0.00  0.00    +0.012 A 
ATOM     18  C   UNL     1      -3.635  -2.170   0.024  0.00  0.00    +0.017 A 
ATOM     19  C   UNL     1      -2.414  -2.854   0.015  0.00  0.00    +0.012 A 
ATOM     20  C   UNL     1      -1.241  -2.156   0.002  0.00  0.00    +0.012 A 
BRANCH  15  22
ATOM     21  C   UNL     1      -0.018   1.503   0.010  0.00  0.00    +0.091 C 
ATOM     22  C   UNL     1       0.002  -0.004   0.002  0.00  0.00    +0.160 C 
ATOM     23  O   UNL     1       1.061  -0.596  -0.011  0.00  0.00    -0.292 OA
ENDBRANCH  15  22
ENDBRANCH  10  18
ENDBRANCH   1  13
BRANCH   3  24
ATOM     24  C   UNL     1     -11.015  -2.160  -2.706  0.00  0.00    +0.436 C 
ATOM     25  F   UNL     1     -10.775  -3.191  -3.621  0.00  0.00    -0.166 F 
ATOM     26  F   UNL     1     -12.387  -1.889  -2.658  0.00  0.00    -0.166 F 
ATOM     27  F   UNL     1     -10.326  -1.011  -3.107  0.00  0.00    -0.166 F 
ENDBRANCH   3  24
BRANCH   3  28
ATOM     28  O   UNL     1     -11.236  -3.758  -0.904  0.00  0.00    -0.364 OA
ATOM     29  H   UNL     1     -12.194  -3.642  -0.850  0.00  0.00    +0.212 HD
ENDBRANCH   3  28
BRANCH   2  30
ATOM     30  C   UNL     1      -8.289  -1.684  -1.904  0.00  0.00    +0.173 C 
ATOM     31  O   UNL     1      -8.734  -0.570  -1.728  0.00  0.00    -0.292 OA
BRANCH  30  32
ATOM     32  C   UNL     1      -7.028  -1.865  -2.640  0.00  0.00    +0.018 A 
ATOM     33  C   UNL     1      -6.515  -3.149  -2.851  0.00  0.00    +0.011 A 
ATOM     34  C   UNL     1      -5.333  -3.311  -3.542  0.00  0.00    +0.001 A 
ATOM     35  C   UNL     1      -4.654  -2.206  -4.027  0.00  0.00    +0.000 A 
ATOM     36  C   UNL     1      -5.155  -0.932  -3.823  0.00  0.00    +0.001 A 
ATOM     37  C   UNL     1      -6.339  -0.755  -3.139  0.00  0.00    +0.011 A 
ENDBRANCH  30  32
ENDBRANCH   2  30
TORSDOF 7
