REMARK  Name = ZINC59714142
REMARK  7 active torsions:
REMARK  status: ('A' for Active; 'I' for Inactive)
REMARK    1  A    between atoms: C_1  and  C_2
REMARK    2  A    between atoms: C_7  and  O_8
REMARK    3  A    between atoms: O_8  and  C_9
REMARK    4  A    between atoms: C_9  and  C_10
REMARK    5  A    between atoms: N_12  and  C_13
REMARK    6  A    between atoms: C_16  and  S_19
REMARK    7  A    between atoms: S_19  and  N_22
REMARK                            x       y       z     vdW  Elec       q    Type
REMARK                         _______ _______ _______ _____ _____    ______ ____
ROOT
ATOM      1  C   UNL     1      -1.048   1.011   4.254  0.00  0.00    +0.255 C 
ATOM      2  O   UNL     1       0.074   1.248   4.650  0.00  0.00    -0.272 OA
ATOM      3  N   UNL     1      -2.115   1.404   4.977  0.00  0.00    -0.283 N 
ATOM      4  H   UNL     1      -3.011   1.275   4.629  0.00  0.00    +0.155 HD
ENDROOT
BRANCH   3   5
ATOM      5  C   UNL     1      -1.931   1.999   6.230  0.00  0.00    +0.034 A 
ATOM      6  C   UNL     1      -2.836   1.758   7.255  0.00  0.00    +0.025 A 
ATOM      7  C   UNL     1      -2.652   2.346   8.491  0.00  0.00    +0.030 A 
ATOM      8  C   UNL     1      -1.566   3.175   8.708  0.00  0.00    +0.105 A 
ATOM      9  C   UNL     1      -0.663   3.417   7.690  0.00  0.00    +0.030 A 
ATOM     10  C   UNL     1      -0.838   2.827   6.454  0.00  0.00    +0.025 A 
BRANCH   8  11
ATOM     11  S   UNL     1      -1.334   3.923  10.286  0.00  0.00    +0.056 S 
ATOM     12  O   UNL     1      -0.546   5.086  10.072  0.00  0.00    -0.153 OA
ATOM     13  O   UNL     1      -2.613   3.973  10.904  0.00  0.00    -0.153 OA
BRANCH  11  14
ATOM     14  N   UNL     1      -0.412   2.886  11.190  0.00  0.00    -0.204 NA
ATOM     15  H   UNL     1      -0.113   2.046  10.808  0.00  0.00    +0.144 HD
ATOM     16  H   UNL     1      -0.171   3.119  12.100  0.00  0.00    +0.144 HD
ENDBRANCH  11  14
ENDBRANCH   8  11
ENDBRANCH   3   5
BRANCH   1  17
ATOM     17  C   UNL     1      -1.247   0.277   2.953  0.00  0.00    +0.325 C 
BRANCH  17  18
ATOM     18  O   UNL     1       0.025  -0.029   2.379  0.00  0.00    -0.481 OA
BRANCH  18  25
ATOM     19  C   UNL     1      -0.005   1.517   0.016  0.00  0.00    +0.047 C 
ATOM     20  C   UNL     1       0.008   0.011   0.000  0.00  0.00    -0.006 A 
ATOM     21  C   UNL     1       0.011  -0.668  -1.203  0.00  0.00    +0.027 A 
ATOM     22  C   UNL     1       0.023  -2.051  -1.219  0.00  0.00    +0.043 A 
ATOM     23  C   UNL     1       0.031  -2.759  -0.030  0.00  0.00    +0.043 A 
ATOM     24  C   UNL     1       0.028  -2.084   1.177  0.00  0.00    +0.084 A 
ATOM     25  C   UNL     1       0.022  -0.696   1.194  0.00  0.00    +0.142 A 
ATOM     26 CL   UNL     1       0.037  -2.971   2.669  0.00  0.00    -0.080 Cl
ATOM     27 CL   UNL     1       0.026  -2.901  -2.733  0.00  0.00    -0.083 Cl
ENDBRANCH  18  25
ENDBRANCH  17  18
ENDBRANCH   1  17
TORSDOF 6
