REMARK  Name = ZINC14459627
REMARK  7 active torsions:
REMARK  status: ('A' for Active; 'I' for Inactive)
REMARK    1  A    between atoms: C_1  and  O_2
REMARK    2  A    between atoms: O_2  and  C_3
REMARK    3  A    between atoms: C_7  and  C_10
REMARK    4  A    between atoms: C_8  and  O_9
REMARK    5  A    between atoms: C_20  and  N_28
REMARK    6  A    between atoms: C_23  and  O_26
REMARK    7  A    between atoms: O_26  and  C_27
REMARK                            x       y       z     vdW  Elec       q    Type
REMARK                         _______ _______ _______ _____ _____    ______ ____
ROOT
ATOM      1  C   UNL     1       1.226   1.295   2.462  0.00  0.00    +0.109 C 
ATOM      2  C   UNL     1       1.703  -0.110   2.836  0.00  0.00    +0.029 C 
ATOM      3  C   UNL     1       1.119  -1.103   1.791  0.00  0.00    +0.033 C 
ATOM      4  C   UNL     1      -0.292  -1.349   2.286  0.00  0.00    -0.030 C 
ATOM      5  C   UNL     1      -0.389  -1.061   3.560  0.00  0.00    -0.023 C 
ATOM      6  C   UNL     1       0.939  -0.577   4.095  0.00  0.00    +0.051 C 
ATOM      7  C   UNL     1       0.741   0.549   5.066  0.00  0.00    +0.014 A 
ATOM      8  C   UNL     1       0.219   0.245   6.318  0.00  0.00    +0.132 A 
ATOM      9  C   UNL     1       0.010   1.235   7.255  0.00  0.00    +0.037 A 
ATOM     10  C   UNL     1       0.320   2.550   6.955  0.00  0.00    +0.050 A 
ATOM     11  C   UNL     1       0.841   2.864   5.713  0.00  0.00    +0.141 A 
ATOM     12  C   UNL     1       1.055   1.860   4.763  0.00  0.00    +0.076 A 
ATOM     13  N   UNL     1       1.588   2.232   3.526  0.00  0.00    -0.333 N 
ATOM     14  H   UNL     1       1.319   3.174   3.285  0.00  0.00    +0.147 HD
ENDROOT
BRANCH   1  19
ATOM     15  C   UNL     1       3.819   2.475  -0.030  0.00  0.00    +0.162 A 
ATOM     16  C   UNL     1       3.079   2.498  -1.202  0.00  0.00    +0.049 A 
ATOM     17  C   UNL     1       1.745   2.136  -1.183  0.00  0.00    +0.004 A 
ATOM     18  C   UNL     1       1.146   1.752   0.002  0.00  0.00    +0.009 A 
ATOM     19  C   UNL     1       1.880   1.721   1.173  0.00  0.00    +0.018 A 
ATOM     20  C   UNL     1       3.216   2.088   1.163  0.00  0.00    +0.163 A 
BRANCH  15  22
ATOM     21  C   UNL     1       5.684   3.216  -1.307  0.00  0.00    +0.277 C 
ATOM     22  O   UNL     1       5.132   2.830  -0.047  0.00  0.00    -0.491 OA
ENDBRANCH  15  22
BRANCH  20  23
ATOM     23  O   UNL     1       3.939   2.064   2.315  0.00  0.00    -0.503 OA
ATOM     24  H   UNL     1       3.988   2.918   2.766  0.00  0.00    +0.292 HD
ENDBRANCH  20  23
ENDBRANCH   1  19
BRANCH   8  25
ATOM     25  N   UNL     1      -0.118  -1.158   6.649  0.00  0.00    +0.057 N 
ATOM     26  O   UNL     1      -0.576  -1.432   7.744  0.00  0.00    -0.126 OA
ATOM     27  O   UNL     1       0.063  -2.038   5.827  0.00  0.00    -0.126 OA
ENDBRANCH   8  25
BRANCH  11  28
ATOM     28  O   UNL     1       1.146   4.155   5.415  0.00  0.00    -0.493 OA
ATOM     29  C   UNL     1       0.903   5.131   6.430  0.00  0.00    +0.277 C 
ENDBRANCH  11  28
TORSDOF 5
