REMARK  Name = ZINC55552129
REMARK  8 active torsions:
REMARK  status: ('A' for Active; 'I' for Inactive)
REMARK    1  A    between atoms: C_1  and  C_2
REMARK    2  A    between atoms: C_2  and  O_3
REMARK    3  A    between atoms: O_3  and  C_4
REMARK    4  A    between atoms: C_9  and  C_10
REMARK    5  A    between atoms: C_12  and  C_15
REMARK    6  A    between atoms: C_15  and  C_16
REMARK    7  A    between atoms: N_18  and  C_19
REMARK    8  A    between atoms: C_22  and  N_25
REMARK                            x       y       z     vdW  Elec       q    Type
REMARK                         _______ _______ _______ _____ _____    ______ ____
ROOT
ATOM      1  C   UNL     1      -7.903  -2.228  -1.109  0.00  0.00    +0.223 C 
ATOM      2  O   UNL     1      -7.019  -2.521  -1.886  0.00  0.00    -0.275 OA
ATOM      3  N   UNL     1      -9.145  -2.719  -1.285  0.00  0.00    -0.285 N 
ATOM      4  H   UNL     1      -9.835  -2.540  -0.627  0.00  0.00    +0.155 HD
ENDROOT
BRANCH   3   5
ATOM      5  C   UNL     1      -9.440  -3.489  -2.418  0.00  0.00    +0.034 A 
ATOM      6  C   UNL     1     -10.690  -3.395  -3.015  0.00  0.00    +0.025 A 
ATOM      7  C   UNL     1     -10.981  -4.153  -4.131  0.00  0.00    +0.025 A 
ATOM      8  C   UNL     1     -10.023  -5.010  -4.657  0.00  0.00    +0.035 A 
ATOM      9  C   UNL     1      -8.773  -5.105  -4.059  0.00  0.00    +0.025 A 
ATOM     10  C   UNL     1      -8.480  -4.341  -2.947  0.00  0.00    +0.025 A 
BRANCH   8  11
ATOM     11  N   UNL     1     -10.318  -5.781  -5.789  0.00  0.00    -0.270 N 
ATOM     12  C   UNL     1      -9.809  -7.022  -5.911  0.00  0.00    +0.301 C 
ATOM     13  O   UNL     1      -9.027  -7.443  -5.080  0.00  0.00    -0.253 OA
ATOM     14  N   UNL     1     -10.166  -7.798  -6.954  0.00  0.00    -0.313 N 
ATOM     15  H   UNL     1     -10.889  -5.420  -6.486  0.00  0.00    +0.156 HD
ATOM     16  H   UNL     1     -10.790  -7.463  -7.616  0.00  0.00    +0.146 HD
ATOM     17  H   UNL     1      -9.800  -8.692  -7.041  0.00  0.00    +0.146 HD
ENDBRANCH   8  11
ENDBRANCH   3   5
BRANCH   1  18
ATOM     18  C   UNL     1      -7.611  -1.315   0.054  0.00  0.00    +0.152 C 
BRANCH  18  21
ATOM     19  C   UNL     1      -3.938  -1.497  -0.032  0.00  0.00    +0.112 A 
ATOM     20  N   UNL     1      -5.222  -1.827  -0.004  0.00  0.00    -0.243 NA
ATOM     21  C   UNL     1      -6.160  -0.909   0.023  0.00  0.00    +0.058 A 
ATOM     22  C   UNL     1      -5.821   0.407   0.023  0.00  0.00    +0.071 A 
ATOM     23  S   UNL     1      -4.037   0.288  -0.012  0.00  0.00    -0.075 S 
BRANCH  19  29
ATOM     24  C   UNL     1      -1.463  -1.808  -0.084  0.00  0.00    +0.130 A 
ATOM     25  C   UNL     1      -0.352  -2.635  -0.109  0.00  0.00    +0.046 A 
ATOM     26  C   UNL     1      -0.509  -4.008  -0.119  0.00  0.00    +0.004 A 
ATOM     27  C   UNL     1      -1.776  -4.567  -0.105  0.00  0.00    +0.001 A 
ATOM     28  C   UNL     1      -2.893  -3.757  -0.081  0.00  0.00    +0.014 A 
ATOM     29  C   UNL     1      -2.746  -2.370  -0.064  0.00  0.00    +0.049 A 
BRANCH  24  30
ATOM     30  O   UNL     1      -1.309  -0.459  -0.075  0.00  0.00    -0.492 OA
BRANCH  30  32
ATOM     31  C   UNL     1       0.002   1.571  -0.081  0.00  0.00    +0.048 C 
ATOM     32  C   UNL     1       0.029   0.041  -0.097  0.00  0.00    +0.226 C 
ENDBRANCH  30  32
ENDBRANCH  24  30
ENDBRANCH  19  29
ENDBRANCH  18  21
ENDBRANCH   1  18
TORSDOF 7
