REMARK  Name = ZINC39252884
REMARK  6 active torsions:
REMARK  status: ('A' for Active; 'I' for Inactive)
REMARK    1  A    between atoms: C_4  and  N_7
REMARK    2  A    between atoms: N_7  and  C_8
REMARK    3  A    between atoms: C_8  and  C_9
REMARK    4  A    between atoms: C_11  and  C_22
REMARK    5  A    between atoms: N_24  and  N_25
REMARK    6  A    between atoms: C_26  and  C_27
REMARK                            x       y       z     vdW  Elec       q    Type
REMARK                         _______ _______ _______ _____ _____    ______ ____
ROOT
ATOM      1  C   UNL     1       5.044  -2.707  -0.001  0.00  0.00    +0.154 C 
ATOM      2  C   UNL     1       4.993  -4.245   0.118  0.00  0.00    +0.240 C 
ATOM      3  N   UNL     1       5.668  -4.524   1.391  0.00  0.00    -0.156 NA
ATOM      4  N   UNL     1       6.044  -3.490   1.934  0.00  0.00    -0.077 NA
ATOM      5  N   UNL     1       5.752  -2.314   1.232  0.00  0.00    -0.176 N 
ATOM      6  C   UNL     1       6.068  -1.015   1.623  0.00  0.00    +0.228 A 
ATOM      7  C   UNL     1       6.859  -0.640   2.800  0.00  0.00    +0.204 A 
ATOM      8  N   UNL     1       6.944   0.660   2.840  0.00  0.00    -0.032 NA
ATOM      9  O   UNL     1       6.236   1.177   1.728  0.00  0.00    -0.239 OA
ATOM     10  N   UNL     1       5.715   0.077   1.002  0.00  0.00    -0.030 NA
ATOM     11  N   UNL     1       7.421  -1.522   3.717  0.00  0.00    -0.338 N 
ATOM     12  H   UNL     1       7.304  -2.478   3.605  0.00  0.00    +0.144 HD
ATOM     13  H   UNL     1       7.931  -1.181   4.468  0.00  0.00    +0.144 HD
ENDROOT
BRANCH   2  14
ATOM     14  C   UNL     1       3.564  -4.724   0.158  0.00  0.00    +0.261 C 
ATOM     15  O   UNL     1       3.050  -5.010   1.218  0.00  0.00    -0.272 OA
ATOM     16  N   UNL     1       2.859  -4.836  -0.985  0.00  0.00    -0.205 N 
ATOM     17  H   UNL     1       3.271  -4.607  -1.833  0.00  0.00    +0.177 HD
BRANCH  16  18
ATOM     18  N   UNL     1       1.531  -5.282  -0.949  0.00  0.00    -0.188 NA
ATOM     19  C   UNL     1       0.846  -5.390  -2.059  0.00  0.00    +0.136 C 
BRANCH  19  20
ATOM     20  C   UNL     1      -0.483  -5.836  -2.022  0.00  0.00    +0.000 C 
ATOM     21  C   UNL     1      -1.342  -6.012  -3.103  0.00  0.00    +0.004 A 
ATOM     22  C   UNL     1      -1.181  -5.815  -4.493  0.00  0.00    +0.010 A 
ATOM     23  C   UNL     1      -2.214  -6.073  -5.333  0.00  0.00    +0.001 A 
ATOM     24  C   UNL     1      -3.447  -6.532  -4.860  0.00  0.00    +0.002 A 
ATOM     25  C   UNL     1      -3.674  -6.743  -3.542  0.00  0.00    +0.026 A 
ATOM     26  C   UNL     1      -2.640  -6.495  -2.599  0.00  0.00    +0.043 A 
ATOM     27  N   UNL     1      -2.607  -6.619  -1.289  0.00  0.00    -0.380 N 
ATOM     28  C   UNL     1      -1.280  -6.234  -0.799  0.00  0.00    +0.150 C 
ATOM     29  H   UNL     1      -3.345  -6.921  -0.736  0.00  0.00    +0.160 HD
ENDBRANCH  19  20
ENDBRANCH  16  18
ENDBRANCH   2  14
BRANCH   1  30
ATOM     30  C   UNL     1       3.633  -2.116  -0.030  0.00  0.00    +0.128 C 
BRANCH  30  31
ATOM     31  N   UNL     1       3.030  -2.356  -1.344  0.00  0.00    -0.342 N 
ATOM     32  H   UNL     1       3.541  -2.803  -2.037  0.00  0.00    +0.146 HD
BRANCH  31  36
ATOM     33  C   UNL     1      -0.873  -1.119  -2.102  0.00  0.00    +0.000 A 
ATOM     34  C   UNL     1      -0.147  -1.756  -3.091  0.00  0.00    +0.002 A 
ATOM     35  C   UNL     1       1.148  -2.168  -2.843  0.00  0.00    +0.023 A 
ATOM     36  C   UNL     1       1.721  -1.941  -1.598  0.00  0.00    +0.027 A 
ATOM     37  C   UNL     1       0.989  -1.301  -0.607  0.00  0.00    +0.023 A 
ATOM     38  C   UNL     1      -0.305  -0.892  -0.861  0.00  0.00    +0.002 A 
ENDBRANCH  31  36
ENDBRANCH  30  31
ENDBRANCH   1  30
TORSDOF 6
