REMARK  Name = ZINC41834248
REMARK  10 active torsions:
REMARK  status: ('A' for Active; 'I' for Inactive)
REMARK    1  A    between atoms: C_1  and  C_2
REMARK    2  A    between atoms: C_6  and  C_20
REMARK    3  A    between atoms: C_8  and  C_10
REMARK    4  A    between atoms: C_8  and  N_13
REMARK    5  A    between atoms: N_13  and  C_14
REMARK    6  A    between atoms: C_14  and  C_15
REMARK    7  A    between atoms: C_14  and  C_16
REMARK    8  A    between atoms: C_14  and  C_17
REMARK    9  A    between atoms: C_20  and  C_21
REMARK   10  A    between atoms: C_20  and  C_22
REMARK                            x       y       z     vdW  Elec       q    Type
REMARK                         _______ _______ _______ _____ _____    ______ ____
ROOT
ATOM      1  C   UNL     1      -0.555  -0.933  -1.972  0.00  0.00    +0.007 C 
ATOM      2  C   UNL     1       0.291  -1.919  -1.164  0.00  0.00    -0.015 C 
ATOM      3  C   UNL     1       1.421  -2.460  -2.043  0.00  0.00    +0.003 C 
ATOM      4  C   UNL     1       2.268  -3.445  -1.235  0.00  0.00    +0.003 C 
ATOM      5  C   UNL     1       2.864  -2.730  -0.021  0.00  0.00    -0.009 C 
ATOM      6  C   UNL     1       1.734  -2.189   0.858  0.00  0.00    +0.040 C 
ATOM      7  C   UNL     1       0.887  -1.204   0.050  0.00  0.00    +0.002 C 
ENDROOT
BRANCH   6   8
ATOM      8  C   UNL     1       0.868  -3.332   1.323  0.00  0.00    +0.346 C 
ATOM      9  O   UNL     1       0.995  -3.772   2.453  0.00  0.00    -0.248 OA
ATOM     10  O   UNL     1       0.041  -3.816   0.569  0.00  0.00    -0.248 OA
ENDBRANCH   6   8
BRANCH   6  11
ATOM     11  N   UNL     1       2.306  -1.503   2.024  0.00  0.00    +0.399 N 
ATOM     12  H   UNL     1       2.681  -2.185   2.665  0.00  0.00    -0.083 HD
ATOM     13  H   UNL     1       3.044  -0.884   1.721  0.00  0.00    -0.083 HD
BRANCH  11  14
ATOM     14  C   UNL     1       1.258  -0.723   2.696  0.00  0.00    +0.005 C 
ATOM     15  C   UNL     1       1.095   0.626   1.991  0.00  0.00    -0.001 C 
ATOM     16  C   UNL     1      -0.064  -1.491   2.640  0.00  0.00    -0.001 C 
BRANCH  14  17
ATOM     17  C   UNL     1       1.646  -0.495   4.134  0.00  0.00    +0.199 C 
ATOM     18  O   UNL     1       1.352   0.546   4.683  0.00  0.00    -0.278 OA
ATOM     19  N   UNL     1       2.320  -1.447   4.809  0.00  0.00    -0.330 N 
ATOM     20  H   UNL     1       2.555  -2.279   4.370  0.00  0.00    +0.145 HD
ATOM     21  H   UNL     1       2.569  -1.300   5.735  0.00  0.00    +0.145 HD
ENDBRANCH  14  17
ENDBRANCH  11  14
ENDBRANCH   6  11
BRANCH   5  22
ATOM     22  C   UNL     1       3.710  -3.716   0.787  0.00  0.00    -0.015 C 
ATOM     23  C   UNL     1       2.983  -5.059   0.877  0.00  0.00    +0.007 C 
ATOM     24  C   UNL     1       5.061  -3.913   0.096  0.00  0.00    +0.007 C 
ENDBRANCH   5  22
TORSDOF 5
