REMARK  Name = ZINC00714208
REMARK  11 active torsions:
REMARK  status: ('A' for Active; 'I' for Inactive)
REMARK    1  A    between atoms: C_1  and  C_2
REMARK    2  A    between atoms: C_2  and  O_3
REMARK    3  A    between atoms: O_3  and  C_4
REMARK    4  A    between atoms: C_4  and  C_6
REMARK    5  A    between atoms: C_7  and  N_37
REMARK    6  A    between atoms: N_8  and  C_27
REMARK    7  A    between atoms: C_11  and  C_13
REMARK    8  A    between atoms: C_16  and  O_20
REMARK    9  A    between atoms: C_17  and  O_19
REMARK   10  A    between atoms: O_20  and  C_21
REMARK   11  A    between atoms: C_31  and  C_33
REMARK                            x       y       z     vdW  Elec       q    Type
REMARK                         _______ _______ _______ _____ _____    ______ ____
ROOT
ATOM      1  C   UNL     1       1.160   7.253  -0.230  0.00  0.00    +0.084 C 
ATOM      2  C   UNL     1       1.111   5.941   0.136  0.00  0.00    +0.103 C 
ATOM      3  N   UNL     1      -0.062   5.236   0.011  0.00  0.00    -0.261 N 
ATOM      4  C   UNL     1      -1.263   5.892  -0.080  0.00  0.00    +0.024 C 
ATOM      5  C   UNL     1      -1.312   7.192  -0.437  0.00  0.00    +0.025 C 
ATOM      6  C   UNL     1      -0.053   7.953  -0.767  0.00  0.00    +0.094 C 
ATOM      7  C   UNL     1      -2.538   7.876  -0.516  0.00  0.00    +0.162 C 
ATOM      8  O   UNL     1      -2.548   9.044  -0.850  0.00  0.00    -0.292 OA
ATOM      9  C   UNL     1      -3.837   7.189  -0.196  0.00  0.00    +0.080 C 
ATOM     10  C   UNL     1      -3.573   6.068   0.815  0.00  0.00    +0.014 C 
ATOM     11  C   UNL     1      -2.524   5.122   0.226  0.00  0.00    +0.052 C 
ENDROOT
BRANCH   6  12
ATOM     12  C   UNL     1       0.072   8.077  -2.264  0.00  0.00    -0.031 A 
ATOM     13  C   UNL     1       0.148   6.939  -3.046  0.00  0.00    +0.008 A 
ATOM     14  C   UNL     1       0.261   7.047  -4.419  0.00  0.00    +0.050 A 
ATOM     15  C   UNL     1       0.300   8.297  -5.015  0.00  0.00    +0.161 A 
ATOM     16  C   UNL     1       0.224   9.442  -4.228  0.00  0.00    +0.159 A 
ATOM     17  C   UNL     1       0.104   9.327  -2.852  0.00  0.00    +0.053 A 
BRANCH  16  18
ATOM     18  O   UNL     1       0.261  10.672  -4.808  0.00  0.00    -0.503 OA
ATOM     19  H   UNL     1      -0.608  11.020  -5.049  0.00  0.00    +0.292 HD
ENDBRANCH  16  18
BRANCH  15  20
ATOM     20  O   UNL     1       0.412   8.405  -6.366  0.00  0.00    -0.491 OA
ATOM     21  C   UNL     1       0.485   7.188  -7.110  0.00  0.00    +0.277 C 
ENDBRANCH  15  20
ENDBRANCH   6  12
BRANCH   3  22
ATOM     22  C   UNL     1      -0.032   3.837  -0.018  0.00  0.00    +0.040 A 
ATOM     23  C   UNL     1       0.327   3.125   1.120  0.00  0.00    +0.024 A 
ATOM     24  C   UNL     1       0.351   1.745   1.090  0.00  0.00    +0.002 A 
ATOM     25  C   UNL     1       0.029   1.071  -0.075  0.00  0.00    +0.012 A 
ATOM     26  C   UNL     1      -0.328   1.777  -1.209  0.00  0.00    +0.057 A 
ATOM     27  C   UNL     1      -0.359   3.158  -1.183  0.00  0.00    +0.036 A 
BRANCH  26  28
ATOM     28  C   UNL     1      -0.684   1.039  -2.473  0.00  0.00    +0.417 C 
ATOM     29  F   UNL     1      -0.580  -0.339  -2.254  0.00  0.00    -0.166 F 
ATOM     30  F   UNL     1      -1.996   1.355  -2.844  0.00  0.00    -0.166 F 
ATOM     31  F   UNL     1       0.193   1.416  -3.496  0.00  0.00    -0.166 F 
ENDBRANCH  26  28
ENDBRANCH   3  22
BRANCH   2  32
ATOM     32  N   UNL     1       2.233   5.321   0.623  0.00  0.00    -0.346 N 
ATOM     33  H   UNL     1       2.391   4.384   0.431  0.00  0.00    +0.143 HD
ATOM     34  H   UNL     1       2.868   5.821   1.160  0.00  0.00    +0.143 HD
ENDBRANCH   2  32
BRANCH   1  35
ATOM     35  C   UNL     1       2.363   7.961  -0.096  0.00  0.00    +0.339 C 
ATOM     36  O   UNL     1       3.377   7.380   0.250  0.00  0.00    -0.245 OA
BRANCH  35  37
ATOM     37  O   UNL     1       2.398   9.287  -0.352  0.00  0.00    -0.462 OA
BRANCH  37  39
ATOM     38  C   UNL     1       3.501  11.430  -0.526  0.00  0.00    +0.048 C 
ATOM     39  C   UNL     1       3.657   9.944  -0.196  0.00  0.00    +0.229 C 
ENDBRANCH  37  39
ENDBRANCH  35  37
ENDBRANCH   1  35
TORSDOF 9
