REMARK  Name = ZINC11859078
REMARK  8 active torsions:
REMARK  status: ('A' for Active; 'I' for Inactive)
REMARK    1  A    between atoms: C_1  and  C_2
REMARK    2  A    between atoms: C_2  and  O_3
REMARK    3  A    between atoms: O_3  and  C_4
REMARK    4  A    between atoms: C_4  and  C_6
REMARK    5  A    between atoms: C_8  and  C_20
REMARK    6  A    between atoms: C_14  and  C_15
REMARK    7  A    between atoms: C_14  and  O_19
REMARK    8  A    between atoms: C_23  and  O_26
REMARK                            x       y       z     vdW  Elec       q    Type
REMARK                         _______ _______ _______ _____ _____    ______ ____
ROOT
ATOM      1  C   UNL     1       1.302  -0.244  -0.860  0.00  0.00    +0.181 C 
ATOM      2  C   UNL     1       2.545   0.500  -0.358  0.00  0.00    +0.123 C 
ATOM      3  N   UNL     1       2.204   1.905  -0.129  0.00  0.00    -0.292 N 
ATOM      4  C   UNL     1       0.961   2.274   0.213  0.00  0.00    +0.302 C 
ATOM      5  O   UNL     1       0.733   3.454   0.402  0.00  0.00    -0.253 OA
ATOM      6  N   UNL     1      -0.042   1.394   0.355  0.00  0.00    -0.264 N 
ATOM      7  C   UNL     1       0.170  -0.040   0.153  0.00  0.00    +0.246 C 
ATOM      8  H   UNL     1       2.891   2.582  -0.227  0.00  0.00    +0.151 HD
ATOM      9  H   UNL     1      -0.926   1.715   0.592  0.00  0.00    +0.153 HD
ENDROOT
BRANCH   2  10
ATOM     10  C   UNL     1       3.638   0.407  -1.392  0.00  0.00    -0.026 A 
ATOM     11  C   UNL     1       3.619   1.243  -2.493  0.00  0.00    +0.009 A 
ATOM     12  C   UNL     1       4.622   1.164  -3.439  0.00  0.00    +0.046 A 
ATOM     13  C   UNL     1       5.645   0.238  -3.289  0.00  0.00    +0.117 A 
ATOM     14  C   UNL     1       5.659  -0.603  -2.185  0.00  0.00    +0.046 A 
ATOM     15  C   UNL     1       4.655  -0.516  -1.240  0.00  0.00    +0.009 A 
BRANCH  13  16
ATOM     16  O   UNL     1       6.630   0.155  -4.221  0.00  0.00    -0.507 OA
ATOM     17  H   UNL     1       6.442  -0.465  -4.938  0.00  0.00    +0.292 HD
ENDBRANCH  13  16
ENDBRANCH   2  10
BRANCH   7  18
ATOM     18  C   UNL     1      -1.114  -0.677  -0.381  0.00  0.00    +0.436 C 
ATOM     19  F   UNL     1      -1.391  -0.170  -1.656  0.00  0.00    -0.166 F 
ATOM     20  F   UNL     1      -0.951  -2.064  -0.456  0.00  0.00    -0.166 F 
ATOM     21  F   UNL     1      -2.176  -0.377   0.480  0.00  0.00    -0.166 F 
ENDBRANCH   7  18
BRANCH   1  22
ATOM     22  C   UNL     1       1.609  -1.714  -0.987  0.00  0.00    +0.317 C 
ATOM     23  O   UNL     1       2.232  -2.278  -0.120  0.00  0.00    -0.250 OA
BRANCH  22  24
ATOM     24  O   UNL     1       1.190  -2.396  -2.065  0.00  0.00    -0.465 OA
BRANCH  24  26
ATOM     25  C   UNL     1       0.964  -4.412  -3.412  0.00  0.00    +0.048 C 
ATOM     26  C   UNL     1       1.521  -3.808  -2.121  0.00  0.00    +0.229 C 
ENDBRANCH  24  26
ENDBRANCH  22  24
ENDBRANCH   1  22
BRANCH   7  27
ATOM     27  O   UNL     1       0.526  -0.650   1.396  0.00  0.00    -0.364 OA
ATOM     28  H   UNL     1      -0.144  -0.555   2.086  0.00  0.00    +0.212 HD
ENDBRANCH   7  27
TORSDOF 7
