REMARK  Name = ZINC04335997
REMARK  5 active torsions:
REMARK  status: ('A' for Active; 'I' for Inactive)
REMARK    1  A    between atoms: C_1  and  N_2
REMARK    2  A    between atoms: N_2  and  C_3
REMARK    3  A    between atoms: N_5  and  C_6
REMARK    4  A    between atoms: C_9  and  S_11
REMARK    5  A    between atoms: S_11  and  C_12
REMARK                            x       y       z     vdW  Elec       q    Type
REMARK                         _______ _______ _______ _____ _____    ______ ____
ROOT
ATOM      1  S   UNL     1      -7.645  -2.238   0.059  0.00  0.00    -0.060 S 
ENDROOT
BRANCH   1   2
ATOM      2  C   UNL     1      -7.629  -3.993  -0.090  0.00  0.00    +0.025 A 
ATOM      3  C   UNL     1      -6.436  -4.702  -0.080  0.00  0.00    +0.035 A 
ATOM      4  C   UNL     1      -6.457  -6.084  -0.200  0.00  0.00    +0.112 A 
ATOM      5  N   UNL     1      -7.581  -6.752  -0.323  0.00  0.00    -0.255 NA
ATOM      6  C   UNL     1      -8.768  -6.135  -0.340  0.00  0.00    +0.073 A 
ATOM      7  C   UNL     1      -8.834  -4.726  -0.217  0.00  0.00    +0.014 A 
ATOM      8  C   UNL     1     -10.080  -4.085  -0.230  0.00  0.00    +0.012 A 
ATOM      9  C   UNL     1     -11.217  -4.825  -0.355  0.00  0.00    +0.021 A 
ATOM     10  C   UNL     1     -11.157  -6.213  -0.470  0.00  0.00    +0.043 A 
ATOM     11  C   UNL     1      -9.961  -6.866  -0.472  0.00  0.00    +0.048 A 
ATOM     12 CL   UNL     1     -12.627  -7.122  -0.627  0.00  0.00    -0.083 Cl
ENDBRANCH   1   2
BRANCH   1  16
ATOM     13  C   UNL     1      -3.553  -0.846   0.960  0.00  0.00    +0.217 A 
ATOM     14  N   UNL     1      -3.793  -2.153   0.943  0.00  0.00    -0.120 NA
ATOM     15  N   UNL     1      -4.940  -2.615   0.693  0.00  0.00    -0.133 NA
ATOM     16  C   UNL     1      -5.973  -1.826   0.432  0.00  0.00    +0.165 A 
ATOM     17  S   UNL     1      -5.187  -0.224   0.574  0.00  0.00    -0.020 S 
BRANCH  13  22
ATOM     18  C   UNL     1      -0.122   1.312   1.689  0.00  0.00    +0.129 C 
ATOM     19  N   UNL     1      -0.138  -0.152   1.721  0.00  0.00    -0.327 N 
ATOM     20  C   UNL     1       1.092  -0.892   2.018  0.00  0.00    +0.129 C 
ATOM     21  C   UNL     1      -1.300  -0.829   1.472  0.00  0.00    +0.186 C 
ATOM     22  N   UNL     1      -2.394  -0.171   1.208  0.00  0.00    -0.213 NA
ENDBRANCH  13  22
ENDBRANCH   1  16
TORSDOF 3
