REMARK  Name = ZINC09765402
REMARK  12 active torsions:
REMARK  status: ('A' for Active; 'I' for Inactive)
REMARK    1  A    between atoms: C_1  and  C_2
REMARK    2  A    between atoms: C_2  and  O_3
REMARK    3  A    between atoms: O_3  and  C_4
REMARK    4  A    between atoms: C_4  and  C_5
REMARK    5  A    between atoms: C_5  and  N_6
REMARK    6  A    between atoms: C_8  and  O_33
REMARK    7  A    between atoms: N_15  and  C_16
REMARK    8  A    between atoms: C_16  and  C_18
REMARK    9  A    between atoms: C_21  and  S_24
REMARK   10  A    between atoms: S_24  and  N_27
REMARK   11  A    between atoms: O_33  and  C_34
REMARK   12  A    between atoms: C_34  and  C_35
REMARK                            x       y       z     vdW  Elec       q    Type
REMARK                         _______ _______ _______ _____ _____    ______ ____
ROOT
ATOM      1  N   UNL     1       1.356   2.033   0.000  0.00  0.00    -0.316 N 
ATOM      2  C   UNL     1       1.993   2.279  -1.204  0.00  0.00    +0.100 A 
ATOM      3  C   UNL     1       1.493   2.106  -2.509  0.00  0.00    +0.145 A 
ATOM      4  C   UNL     1       2.273   2.403  -3.606  0.00  0.00    +0.048 A 
ATOM      5  C   UNL     1       3.565   2.879  -3.459  0.00  0.00    +0.005 A 
ATOM      6  C   UNL     1       4.079   3.058  -2.187  0.00  0.00    +0.017 A 
ATOM      7  C   UNL     1       3.303   2.761  -1.090  0.00  0.00    +0.042 A 
ATOM      8  S   UNL     1       3.558   2.840   0.665  0.00  0.00    -0.052 S 
ATOM      9  C   UNL     1       2.002   2.267   1.173  0.00  0.00    +0.167 A 
ATOM     10  N   UNL     1       1.551   2.096   2.411  0.00  0.00    -0.152 NA
ENDROOT
BRANCH  10  11
ATOM     11  C   UNL     1       2.337   2.382   3.454  0.00  0.00    +0.269 C 
ATOM     12  O   UNL     1       3.467   2.799   3.269  0.00  0.00    -0.268 OA
BRANCH  11  13
ATOM     13  C   UNL     1       1.834   2.191   4.834  0.00  0.00    +0.039 A 
ATOM     14  C   UNL     1       0.539   1.719   5.049  0.00  0.00    +0.015 A 
ATOM     15  C   UNL     1       0.078   1.539   6.337  0.00  0.00    +0.029 A 
ATOM     16  C   UNL     1       0.893   1.836   7.414  0.00  0.00    +0.106 A 
ATOM     17  C   UNL     1       2.177   2.309   7.208  0.00  0.00    +0.029 A 
ATOM     18  C   UNL     1       2.651   2.489   5.925  0.00  0.00    +0.015 A 
BRANCH  16  19
ATOM     19  S   UNL     1       0.295   1.611   9.056  0.00  0.00    +0.061 S 
ATOM     20  O   UNL     1      -0.742   0.642   8.981  0.00  0.00    -0.153 OA
ATOM     21  O   UNL     1       1.436   1.442   9.885  0.00  0.00    -0.153 OA
BRANCH  19  22
ATOM     22  N   UNL     1      -0.418   3.033   9.517  0.00  0.00    -0.172 NA
ATOM     23  C   UNL     1       0.358   4.086  10.191  0.00  0.00    +0.137 C 
ATOM     24  C   UNL     1       0.106   5.412   9.455  0.00  0.00    +0.177 C 
ATOM     25  O   UNL     1      -1.302   5.631   9.350  0.00  0.00    -0.377 OA
ATOM     26  C   UNL     1      -1.993   4.641   8.583  0.00  0.00    +0.177 C 
ATOM     27  C   UNL     1      -1.848   3.278   9.269  0.00  0.00    +0.137 C 
ENDBRANCH  19  22
ENDBRANCH  16  19
ENDBRANCH  11  13
ENDBRANCH  10  11
BRANCH   1  28
ATOM     28  C   UNL     1      -0.019   1.526   0.010  0.00  0.00    +0.152 C 
BRANCH  28  29
ATOM     29  C   UNL     1       0.002  -0.004   0.002  0.00  0.00    +0.181 C 
BRANCH  29  30
ATOM     30  O   UNL     1      -1.339  -0.499   0.012  0.00  0.00    -0.378 OA
BRANCH  30  32
ATOM     31  C   UNL     1      -2.905  -2.339   0.017  0.00  0.00    +0.034 C 
ATOM     32  C   UNL     1      -1.432  -1.925   0.005  0.00  0.00    +0.156 C 
ENDBRANCH  30  32
ENDBRANCH  29  30
ENDBRANCH  28  29
ENDBRANCH   1  28
BRANCH   3  33
ATOM     33  O   UNL     1       0.228   1.640  -2.688  0.00  0.00    -0.490 OA
BRANCH  33  34
ATOM     34  C   UNL     1      -0.222   1.486  -4.036  0.00  0.00    +0.226 C 
ATOM     35  C   UNL     1      -1.657   0.956  -4.037  0.00  0.00    +0.048 C 
ENDBRANCH  33  34
ENDBRANCH   3  33
TORSDOF 10
