REMARK  Name = ZINC49563170
REMARK  6 active torsions:
REMARK  status: ('A' for Active; 'I' for Inactive)
REMARK    1  A    between atoms: C_1  and  C_2
REMARK    2  A    between atoms: C_3  and  C_10
REMARK    3  A    between atoms: C_10  and  N_11
REMARK    4  A    between atoms: N_11  and  C_12
REMARK    5  A    between atoms: C_17  and  O_18
REMARK    6  A    between atoms: O_18  and  C_19
REMARK                            x       y       z     vdW  Elec       q    Type
REMARK                         _______ _______ _______ _____ _____    ______ ____
ROOT
ATOM      1  N   UNL     1      -1.392  -0.174  -2.978  0.00  0.00    -0.335 N 
ATOM      2  H   UNL     1      -2.123  -0.383  -2.376  0.00  0.00    +0.147 HD
ENDROOT
BRANCH   1   3
ATOM      3  C   UNL     1      -1.661   0.256  -4.283  0.00  0.00    +0.071 A 
ATOM      4  C   UNL     1      -0.616   0.550  -5.147  0.00  0.00    +0.042 A 
ATOM      5  C   UNL     1      -0.884   0.974  -6.435  0.00  0.00    +0.020 A 
ATOM      6  C   UNL     1      -2.192   1.107  -6.865  0.00  0.00    +0.019 A 
ATOM      7  C   UNL     1      -3.238   0.816  -6.008  0.00  0.00    +0.048 A 
ATOM      8  C   UNL     1      -2.978   0.384  -4.718  0.00  0.00    +0.141 A 
ATOM      9 BR   UNL     1       0.540   1.375  -7.612  0.00  0.00    -0.050 Br
BRANCH   8  10
ATOM     10  O   UNL     1      -4.006   0.092  -3.877  0.00  0.00    -0.493 OA
ATOM     11  C   UNL     1      -5.330   0.247  -4.391  0.00  0.00    +0.277 C 
ENDBRANCH   8  10
ENDBRANCH   1   3
BRANCH   1  12
ATOM     12  C   UNL     1      -0.006  -0.309  -2.522  0.00  0.00    +0.157 C 
BRANCH  12  15
ATOM     13  C   UNL     1      -0.018   1.503   0.010  0.00  0.00    +0.067 C 
ATOM     14  C   UNL     1       0.002  -0.004   0.002  0.00  0.00    +0.062 A 
ATOM     15  C   UNL     1       0.008  -0.784  -1.092  0.00  0.00    +0.063 A 
ATOM     16  N   UNL     1       0.028  -2.110  -0.667  0.00  0.00    -0.296 N 
ATOM     17  C   UNL     1       0.043  -3.369  -1.226  0.00  0.00    +0.100 A 
ATOM     18  C   UNL     1       0.061  -4.457  -0.458  0.00  0.00    +0.067 A 
ATOM     19  S   UNL     1       0.059  -3.749   1.182  0.00  0.00    -0.058 S 
ATOM     20  C   UNL     1       0.034  -2.038   0.701  0.00  0.00    +0.178 A 
ATOM     21  N   UNL     1       0.024  -0.795   1.086  0.00  0.00    -0.226 NA
ENDBRANCH  12  15
ENDBRANCH   1  12
TORSDOF 4
