REMARK  Name = ZINC63753246
REMARK  5 active torsions:
REMARK  status: ('A' for Active; 'I' for Inactive)
REMARK    1  A    between atoms: C_3  and  S_23
REMARK    2  A    between atoms: C_6  and  N_7
REMARK    3  A    between atoms: C_8  and  C_10
REMARK    4  A    between atoms: C_14  and  C_17
REMARK    5  A    between atoms: S_23  and  N_26
REMARK                            x       y       z     vdW  Elec       q    Type
REMARK                         _______ _______ _______ _____ _____    ______ ____
ROOT
ATOM      1  N   UNL     1      -1.198  -0.721   0.010  0.00  0.00    -0.282 N 
ATOM      2  C   UNL     1      -1.182  -2.064  -0.099  0.00  0.00    +0.243 C 
ATOM      3  O   UNL     1      -0.120  -2.661  -0.113  0.00  0.00    -0.270 OA
ATOM      4  H   UNL     1      -2.043  -0.252   0.089  0.00  0.00    +0.155 HD
ENDROOT
BRANCH   2   5
ATOM      5  C   UNL     1      -2.397  -2.781  -0.197  0.00  0.00    +0.086 C 
ATOM      6  C   UNL     1      -2.380  -4.125  -0.306  0.00  0.00    +0.020 C 
ATOM      7  C   UNL     1      -3.642  -4.979  -0.418  0.00  0.00    +0.121 C 
ATOM      8  S   UNL     1      -3.079  -6.489   0.480  0.00  0.00    -0.130 S 
ATOM      9  C   UNL     1      -1.273  -6.123   0.443  0.00  0.00    +0.157 C 
ATOM     10  N   UNL     1      -1.239  -4.862  -0.335  0.00  0.00    -0.333 N 
ATOM     11  H   UNL     1      -0.455  -4.579  -0.830  0.00  0.00    +0.147 HD
BRANCH   9  12
ATOM     12  C   UNL     1      -0.726  -5.915   1.857  0.00  0.00    +0.158 C 
ATOM     13  C   UNL     1      -0.826  -7.199   2.650  0.00  0.00    +0.004 C 
ATOM     14  C   UNL     1      -1.620  -6.930   3.685  0.00  0.00    +0.017 C 
ATOM     15  C   UNL     1      -2.052  -5.533   3.617  0.00  0.00    +0.105 C 
ATOM     16  N   UNL     1      -1.551  -4.941   2.582  0.00  0.00    -0.282 NA
ENDBRANCH   9  12
ENDBRANCH   2   5
BRANCH   1  22
ATOM     17  C   UNL     1       0.065   1.248  -0.586  0.00  0.00    +0.025 A 
ATOM     18  C   UNL     1       1.253   1.953  -0.584  0.00  0.00    +0.030 A 
ATOM     19  C   UNL     1       2.378   1.413   0.011  0.00  0.00    +0.105 A 
ATOM     20  C   UNL     1       2.319   0.166   0.605  0.00  0.00    +0.030 A 
ATOM     21  C   UNL     1       1.135  -0.544   0.606  0.00  0.00    +0.025 A 
ATOM     22  C   UNL     1       0.003  -0.005   0.010  0.00  0.00    +0.034 A 
BRANCH  19  23
ATOM     23  S   UNL     1       3.892   2.316   0.011  0.00  0.00    +0.056 S 
ATOM     24  O   UNL     1       4.934   1.361   0.151  0.00  0.00    -0.153 OA
ATOM     25  O   UNL     1       3.826   3.218  -1.085  0.00  0.00    -0.153 OA
BRANCH  23  26
ATOM     26  N   UNL     1       3.910   3.241   1.384  0.00  0.00    -0.204 NA
ATOM     27  H   UNL     1       3.163   3.207   2.002  0.00  0.00    +0.144 HD
ATOM     28  H   UNL     1       4.667   3.817   1.571  0.00  0.00    +0.144 HD
ENDBRANCH  23  26
ENDBRANCH  19  23
ENDBRANCH   1  22
TORSDOF 5
