REMARK  Name = ZINC39367694
REMARK  5 active torsions:
REMARK  status: ('A' for Active; 'I' for Inactive)
REMARK    1  A    between atoms: C_1  and  O_2
REMARK    2  A    between atoms: O_2  and  C_3
REMARK    3  A    between atoms: C_3  and  C_5
REMARK    4  A    between atoms: C_8  and  C_11
REMARK    5  A    between atoms: C_12  and  C_13
REMARK                            x       y       z     vdW  Elec       q    Type
REMARK                         _______ _______ _______ _____ _____    ______ ____
ROOT
ATOM      1  C   UNL     1      -2.661  -8.447  -0.026  0.00  0.00    +0.147 C 
ATOM      2  N   UNL     1      -1.522  -9.123  -0.030  0.00  0.00    -0.157 NA
ATOM      3  C   UNL     1      -1.476 -10.454  -0.043  0.00  0.00    +0.272 C 
ATOM      4  O   UNL     1      -0.409 -11.046  -0.044  0.00  0.00    -0.268 OA
ATOM      5  C   UNL     1      -2.773 -11.205  -0.057  0.00  0.00    +0.071 C 
ATOM      6  C   UNL     1      -2.954 -12.535  -0.134  0.00  0.00    -0.042 C 
ATOM      7  C   UNL     1      -1.829 -13.533  -0.394  0.00  0.00    +0.033 C 
ATOM      8  C   UNL     1      -2.245 -14.358  -1.619  0.00  0.00    +0.004 C 
ATOM      9  C   UNL     1      -3.635 -14.953  -1.409  0.00  0.00    +0.002 C 
ATOM     10  C   UNL     1      -4.687 -13.847  -1.280  0.00  0.00    +0.019 C 
ATOM     11  C   UNL     1      -4.390 -13.036  -0.015  0.00  0.00    +0.079 C 
ATOM     12  S   UNL     1      -5.343 -11.471  -0.036  0.00  0.00    -0.097 S 
ATOM     13  C   UNL     1      -3.973 -10.341  -0.040  0.00  0.00    +0.112 C 
ATOM     14  N   UNL     1      -3.859  -9.038  -0.023  0.00  0.00    -0.223 NA
ENDROOT
BRANCH   1  16
ATOM     15  C   UNL     1      -1.412  -6.351  -0.020  0.00  0.00    +0.011 C 
ATOM     16  C   UNL     1      -2.604  -6.979  -0.018  0.00  0.00    +0.046 C 
BRANCH  15  20
ATOM     17  C   UNL     1      -1.247  -2.108   0.003  0.00  0.00    +0.059 A 
ATOM     18  C   UNL     1      -0.065  -2.853  -0.007  0.00  0.00    +0.015 A 
ATOM     19  C   UNL     1      -0.117  -4.228  -0.014  0.00  0.00    +0.009 A 
ATOM     20  C   UNL     1      -1.355  -4.880  -0.012  0.00  0.00    -0.025 A 
ATOM     21  C   UNL     1      -2.538  -4.134  -0.002  0.00  0.00    +0.009 A 
ATOM     22  C   UNL     1      -2.484  -2.759   0.011  0.00  0.00    +0.015 A 
BRANCH  17  23
ATOM     23  C   UNL     1      -1.190  -0.632   0.010  0.00  0.00    +0.339 C 
ATOM     24  O   UNL     1      -2.217   0.016   0.023  0.00  0.00    -0.245 OA
BRANCH  23  26
ATOM     25  C   UNL     1      -0.017   1.425   0.010  0.00  0.00    +0.280 C 
ATOM     26  O   UNL     1       0.002  -0.004   0.002  0.00  0.00    -0.464 OA
ENDBRANCH  23  26
ENDBRANCH  17  23
ENDBRANCH  15  20
ENDBRANCH   1  16
TORSDOF 4
