REMARK  Name = ZINC34756583
REMARK  13 active torsions:
REMARK  status: ('A' for Active; 'I' for Inactive)
REMARK    1  A    between atoms: C_1  and  C_2
REMARK    2  A    between atoms: C_2  and  N_3
REMARK    3  A    between atoms: N_3  and  C_4
REMARK    4  A    between atoms: C_4  and  C_5
REMARK    5  A    between atoms: C_6  and  C_8
REMARK    6  A    between atoms: C_8  and  N_9
REMARK    7  A    between atoms: C_22  and  S_24
REMARK    8  A    between atoms: S_24  and  C_25
REMARK    9  A    between atoms: C_25  and  C_26
REMARK   10  A    between atoms: N_28  and  C_29
REMARK   11  A    between atoms: N_28  and  C_31
REMARK   12  A    between atoms: C_29  and  C_30
REMARK   13  A    between atoms: C_31  and  C_32
REMARK                            x       y       z     vdW  Elec       q    Type
REMARK                         _______ _______ _______ _____ _____    ______ ____
ROOT
ATOM      1  N   UNL     1       4.625  -1.044   0.822  0.00  0.00    +0.387 N 
ATOM      2  C   UNL     1       5.933  -1.216   0.176  0.00  0.00    -0.059 C 
ATOM      3  C   UNL     1       6.928  -1.796   1.187  0.00  0.00    +0.088 C 
ATOM      4  N   UNL     1       6.946  -0.928   2.374  0.00  0.00    -0.318 N 
ATOM      5  C   UNL     1       5.660  -0.569   2.991  0.00  0.00    +0.088 C 
ATOM      6  C   UNL     1       4.725  -0.047   1.895  0.00  0.00    -0.059 C 
ATOM      7  C   UNL     1       8.139  -0.462   2.896  0.00  0.00    +0.134 A 
ATOM      8  C   UNL     1       8.770  -1.146   3.973  0.00  0.00    +0.051 A 
ATOM      9  C   UNL     1       8.327  -2.354   4.674  0.00  0.00    -0.025 A 
ATOM     10  C   UNL     1       9.114  -2.805   5.671  0.00  0.00    -0.004 A 
ATOM     11  S   UNL     1      10.473  -1.669   5.738  0.00  0.00    -0.073 S 
ATOM     12  C   UNL     1       9.980  -0.585   4.424  0.00  0.00    +0.115 A 
ATOM     13  N   UNL     1      10.484   0.504   3.876  0.00  0.00    -0.214 NA
ATOM     14  C   UNL     1       9.853   1.101   2.874  0.00  0.00    +0.191 A 
ATOM     15  N   UNL     1       8.710   0.621   2.396  0.00  0.00    -0.206 NA
ATOM     16  C   UNL     1       8.885  -4.008   6.535  0.00  0.00    +0.043 C 
ATOM     17  C   UNL     1       7.424  -4.453   6.369  0.00  0.00    +0.005 C 
ATOM     18  C   UNL     1       7.093  -4.502   4.875  0.00  0.00    +0.005 C 
ATOM     19  C   UNL     1       7.037  -3.082   4.309  0.00  0.00    +0.037 C 
ATOM     20  H   UNL     1       4.326  -1.926   1.210  0.00  0.00    -0.081 HD
ENDROOT
BRANCH   1  21
ATOM     21  C   UNL     1       3.645  -0.592  -0.174  0.00  0.00    +0.019 C 
BRANCH  21  23
ATOM     22  N   UNL     1       2.591  -1.474  -2.231  0.00  0.00    -0.304 N 
ATOM     23  C   UNL     1       3.451  -1.668  -1.212  0.00  0.00    +0.199 C 
ATOM     24  O   UNL     1       4.068  -2.709  -1.129  0.00  0.00    -0.278 OA
BRANCH  22  26
ATOM     25  C   UNL     1       3.401  -2.315  -4.380  0.00  0.00    +0.024 C 
ATOM     26  C   UNL     1       2.402  -2.520  -3.240  0.00  0.00    +0.104 C 
ENDBRANCH  22  26
BRANCH  22  27
ATOM     27  C   UNL     1       1.845  -0.217  -2.331  0.00  0.00    +0.104 C 
ATOM     28  C   UNL     1       0.521  -0.348  -1.577  0.00  0.00    +0.024 C 
ENDBRANCH  22  27
ENDBRANCH  21  23
ENDBRANCH   1  21
BRANCH  14  29
ATOM     29  S   UNL     1      10.546   2.554   2.158  0.00  0.00    -0.077 S 
BRANCH  29  30
ATOM     30  C   UNL     1      12.070   2.825   3.103  0.00  0.00    +0.173 C 
BRANCH  30  31
ATOM     31  C   UNL     1      12.771   4.054   2.586  0.00  0.00    +0.226 C 
ATOM     32  O   UNL     1      12.289   4.686   1.669  0.00  0.00    -0.275 OA
ATOM     33  N   UNL     1      13.933   4.452   3.141  0.00  0.00    -0.301 N 
BRANCH  33  34
ATOM     34  C   UNL     1      14.614   5.648   2.638  0.00  0.00    +0.104 C 
ATOM     35  C   UNL     1      14.122   6.876   3.406  0.00  0.00    +0.024 C 
ENDBRANCH  33  34
BRANCH  33  36
ATOM     36  C   UNL     1      14.515   3.689   4.248  0.00  0.00    +0.104 C 
ATOM     37  C   UNL     1      15.446   2.611   3.689  0.00  0.00    +0.024 C 
ENDBRANCH  33  36
ENDBRANCH  30  31
ENDBRANCH  29  30
ENDBRANCH  14  29
TORSDOF 9
