REMARK  Name = ZINC40482139
REMARK  10 active torsions:
REMARK  status: ('A' for Active; 'I' for Inactive)
REMARK    1  A    between atoms: C_1  and  C_2
REMARK    2  A    between atoms: C_2  and  C_3
REMARK    3  A    between atoms: C_2  and  C_6
REMARK    4  A    between atoms: C_2  and  N_18
REMARK    5  A    between atoms: N_8  and  CA_9
REMARK    6  A    between atoms: CA_9  and  C_11
REMARK    7  A    between atoms: CA_9  and  C_14
REMARK    8  A    between atoms: C_14  and  C_15
REMARK    9  A    between atoms: C_14  and  C_16
REMARK   10  A    between atoms: C_14  and  C_17
REMARK                            x       y       z     vdW  Elec       q    Type
REMARK                         _______ _______ _______ _____ _____    ______ ____
ROOT
ATOM      1  C   UNL     1       0.707  -0.490  -1.238  0.00  0.00    +0.202 C 
ATOM      2  O   UNL     1       1.889  -0.763  -1.196  0.00  0.00    -0.277 OA
ATOM      3  N   UNL     1       0.026  -0.622  -2.393  0.00  0.00    -0.303 N 
ATOM      4  H   UNL     1      -0.919  -0.404  -2.426  0.00  0.00    +0.149 HD
ENDROOT
BRANCH   1   6
ATOM      5  C   UNL     1      -0.019   1.526   0.010  0.00  0.00    -0.001 C 
ATOM      6  C   UNL     1       0.002  -0.004   0.002  0.00  0.00    +0.007 C 
BRANCH   6   7
ATOM      7  N   UNL     1      -1.376  -0.512   0.012  0.00  0.00    +0.388 N 
ATOM      8  H   UNL     1      -1.864  -0.178  -0.805  0.00  0.00    -0.089 HD
ATOM      9  H   UNL     1      -1.362  -1.521   0.007  0.00  0.00    -0.089 HD
ATOM     10  H   UNL     1      -1.848  -0.187   0.843  0.00  0.00    -0.089 HD
ENDBRANCH   6   7
BRANCH   6  11
ATOM     11  C   UNL     1       0.742  -0.511   1.242  0.00  0.00    -0.014 C 
ATOM     12  C   UNL     1       0.038  -1.559   2.105  0.00  0.00    +0.003 C 
ATOM     13  C   UNL     1       0.178  -0.122   2.610  0.00  0.00    +0.003 C 
ENDBRANCH   6  11
ENDBRANCH   1   6
BRANCH   3  14
ATOM     14  CA  UNL     1       0.712  -1.094  -3.598  0.00  0.00    +0.192 C 
BRANCH  14  15
ATOM     15  C   UNL     1      -0.304  -1.738  -4.544  0.00  0.00    -0.009 C 
ATOM     16  C   UNL     1      -1.365  -0.706  -4.932  0.00  0.00    +0.013 C 
ATOM     17  C   UNL     1       0.412  -2.231  -5.803  0.00  0.00    +0.013 C 
ATOM     18  C   UNL     1      -0.976  -2.920  -3.843  0.00  0.00    +0.013 C 
ENDBRANCH  14  15
BRANCH  14  19
ATOM     19  C   UNL     1       1.373   0.070  -4.289  0.00  0.00    +0.376 C 
ATOM     20  O   UNL     1       2.391  -0.103  -4.937  0.00  0.00    -0.244 OA
ATOM     21  OXT UNL     1       0.890   1.186  -4.201  0.00  0.00    -0.244 OA
ENDBRANCH  14  19
ENDBRANCH   3  14
TORSDOF 6
