REMARK  Name = ZINC41058311
REMARK  4 active torsions:
REMARK  status: ('A' for Active; 'I' for Inactive)
REMARK    1  A    between atoms: C_2  and  O_24
REMARK    2  A    between atoms: C_6  and  C_8
REMARK    3  A    between atoms: C_11  and  C_13
REMARK    4  A    between atoms: C_13  and  C_14
REMARK                            x       y       z     vdW  Elec       q    Type
REMARK                         _______ _______ _______ _____ _____    ______ ____
ROOT
ATOM      1  C   UNL     1       0.141   1.583   0.133  0.00  0.00    +0.064 C 
ATOM      2  C   UNL     1       1.688   1.700   0.150  0.00  0.00    +0.134 C 
ATOM      3  C   UNL     1       2.125   0.401   0.859  0.00  0.00    +0.140 C 
ATOM      4  N   UNL     1       1.027  -0.566   0.714  0.00  0.00    -0.287 N 
ATOM      5  C   UNL     1      -0.053   0.060  -0.069  0.00  0.00    +0.164 C 
ATOM      6  C   UNL     1       1.012  -1.818   1.214  0.00  0.00    +0.217 C 
ATOM      7  O   UNL     1       0.017  -2.502   1.104  0.00  0.00    -0.276 OA
ENDROOT
BRANCH   5   8
ATOM      8  C   UNL     1      -1.399  -0.371   0.456  0.00  0.00    +0.231 C 
ATOM      9  O   UNL     1      -1.529  -0.660   1.627  0.00  0.00    -0.274 OA
ATOM     10  N   UNL     1      -2.457  -0.436  -0.376  0.00  0.00    -0.328 N 
ATOM     11  H   UNL     1      -2.353  -0.205  -1.312  0.00  0.00    +0.145 HD
ATOM     12  H   UNL     1      -3.323  -0.713  -0.038  0.00  0.00    +0.145 HD
ENDBRANCH   5   8
BRANCH   2  13
ATOM     13  O   UNL     1       2.101   2.849   0.892  0.00  0.00    -0.390 OA
ATOM     14  H   UNL     1       3.059   2.968   0.933  0.00  0.00    +0.210 HD
ENDBRANCH   2  13
BRANCH   6  15
ATOM     15  C   UNL     1       2.231  -2.366   1.910  0.00  0.00    +0.103 C 
BRANCH  15  16
ATOM     16  C   UNL     1       1.951  -3.795   2.379  0.00  0.00    -0.020 C 
ATOM     17  C   UNL     1       0.768  -3.791   3.349  0.00  0.00    +0.011 C 
ATOM     18  C   UNL     1       0.487  -5.221   3.818  0.00  0.00    -0.010 C 
ATOM     19  C   UNL     1       1.725  -5.777   4.524  0.00  0.00    +0.007 C 
ATOM     20  C   UNL     1       2.908  -5.782   3.554  0.00  0.00    -0.010 C 
ATOM     21  C   UNL     1       3.188  -4.352   3.086  0.00  0.00    +0.011 C 
ATOM     22  C   UNL     1       2.573  -6.658   2.346  0.00  0.00    +0.007 C 
ATOM     23  C   UNL     1       1.336  -6.101   1.639  0.00  0.00    -0.010 C 
ATOM     24  C   UNL     1       0.153  -6.097   2.609  0.00  0.00    +0.007 C 
ATOM     25  C   UNL     1       1.616  -4.672   1.170  0.00  0.00    +0.011 C 
ENDBRANCH  15  16
ENDBRANCH   6  15
TORSDOF 4
