REMARK  Name = ZINC36752793
REMARK  3 active torsions:
REMARK  status: ('A' for Active; 'I' for Inactive)
REMARK    1  A    between atoms: C_4  and  N_8
REMARK    2  A    between atoms: C_12  and  C_14
REMARK    3  A    between atoms: C_15  and  C_16
REMARK                            x       y       z     vdW  Elec       q    Type
REMARK                         _______ _______ _______ _____ _____    ______ ____
ROOT
ATOM      1  N   UNL     1       3.623  -0.655  -0.036  0.00  0.00    -0.267 N 
ATOM      2  C   UNL     1       3.645  -1.999   0.058  0.00  0.00    +0.310 C 
ATOM      3  O   UNL     1       2.603  -2.625   0.065  0.00  0.00    -0.252 OA
ATOM      4  N   UNL     1       4.823  -2.649   0.144  0.00  0.00    -0.236 N 
ATOM      5  C   UNL     1       4.845  -3.993   0.239  0.00  0.00    +0.244 C 
ATOM      6  O   UNL     1       3.804  -4.619   0.246  0.00  0.00    -0.270 OA
ATOM      7  H   UNL     1       4.453  -0.161  -0.124  0.00  0.00    +0.156 HD
ATOM      8  H   UNL     1       5.654  -2.149   0.139  0.00  0.00    +0.159 HD
ENDROOT
BRANCH   1  12
ATOM      9  C   UNL     1      -0.015   1.381   0.049  0.00  0.00    +0.018 A 
ATOM     10  C   UNL     1       1.082   1.956  -0.566  0.00  0.00    +0.041 A 
ATOM     11  C   UNL     1       2.290   1.284  -0.597  0.00  0.00    +0.145 A 
ATOM     12  C   UNL     1       2.401   0.029  -0.007  0.00  0.00    +0.071 A 
ATOM     13  C   UNL     1       1.298  -0.544   0.610  0.00  0.00    +0.041 A 
ATOM     14  C   UNL     1       0.093   0.134   0.636  0.00  0.00    +0.020 A 
ATOM     15 BR   UNL     1      -1.410  -0.647   1.477  0.00  0.00    -0.050 Br
ATOM     16  F   UNL     1       3.362   1.846  -1.199  0.00  0.00    -0.204 F 
ENDBRANCH   1  12
BRANCH   5  17
ATOM     17  C   UNL     1       6.136  -4.706   0.334  0.00  0.00    +0.075 C 
ATOM     18  C   UNL     1       6.159  -6.045   0.427  0.00  0.00    +0.101 C 
BRANCH  18  19
ATOM     19  C   UNL     1       7.447  -6.757   0.522  0.00  0.00    +0.380 C 
ATOM     20  O   UNL     1       8.495  -6.127   0.515  0.00  0.00    -0.241 OA
ATOM     21  O   UNL     1       7.467  -7.976   0.608  0.00  0.00    -0.241 OA
ENDBRANCH  18  19
ENDBRANCH   5  17
TORSDOF 3
