REMARK  Name = ZINC09758831
REMARK  11 active torsions:
REMARK  status: ('A' for Active; 'I' for Inactive)
REMARK    1  A    between atoms: C_1  and  C_2
REMARK    2  A    between atoms: C_2  and  C_3
REMARK    3  A    between atoms: C_6  and  C_9
REMARK    4  A    between atoms: C_9  and  C_11
REMARK    5  A    between atoms: C_9  and  N_14
REMARK    6  A    between atoms: C_11  and  C_12
REMARK    7  A    between atoms: C_11  and  C_13
REMARK    8  A    between atoms: N_17  and  C_18
REMARK    9  A    between atoms: C_18  and  C_19
REMARK   10  A    between atoms: C_22  and  S_25
REMARK   11  A    between atoms: S_25  and  N_28
REMARK                            x       y       z     vdW  Elec       q    Type
REMARK                         _______ _______ _______ _____ _____    ______ ____
ROOT
ATOM      1  N   UNL     1       3.718  -2.861  -4.381  0.00  0.00    -0.292 N 
ATOM      2  C   UNL     1       4.116  -3.785  -5.277  0.00  0.00    +0.300 C 
ATOM      3  O   UNL     1       3.635  -3.796  -6.393  0.00  0.00    -0.253 OA
ATOM      4  N   UNL     1       5.047  -4.698  -4.935  0.00  0.00    -0.295 N 
ATOM      5  H   UNL     1       4.102  -2.852  -3.490  0.00  0.00    +0.151 HD
ATOM      6  H   UNL     1       5.430  -4.690  -4.044  0.00  0.00    +0.151 HD
ENDROOT
BRANCH   1   7
ATOM      7  C   UNL     1       2.707  -1.868  -4.752  0.00  0.00    +0.107 C 
BRANCH   7  11
ATOM      8  C   UNL     1       0.707  -0.490  -1.238  0.00  0.00    -0.048 A 
ATOM      9  C   UNL     1      -0.011  -0.719  -2.397  0.00  0.00    +0.004 A 
ATOM     10  C   UNL     1       0.636  -1.164  -3.534  0.00  0.00    +0.006 A 
ATOM     11  C   UNL     1       2.002  -1.381  -3.513  0.00  0.00    -0.027 A 
ATOM     12  C   UNL     1       2.720  -1.152  -2.354  0.00  0.00    +0.006 A 
ATOM     13  C   UNL     1       2.073  -0.702  -1.218  0.00  0.00    +0.004 A 
BRANCH   8  15
ATOM     14  C   UNL     1      -0.019   1.526   0.010  0.00  0.00    +0.009 C 
ATOM     15  C   UNL     1       0.002  -0.004   0.002  0.00  0.00    +0.032 C 
ENDBRANCH   8  15
ENDBRANCH   7  11
BRANCH   7  16
ATOM     16  C   UNL     1       3.383  -0.687  -5.451  0.00  0.00    +0.008 C 
ATOM     17  C   UNL     1       4.099  -1.182  -6.710  0.00  0.00    +0.009 C 
ATOM     18  C   UNL     1       2.327   0.349  -5.839  0.00  0.00    +0.009 C 
ENDBRANCH   7  16
ENDBRANCH   1   7
BRANCH   4  19
ATOM     19  C   UNL     1       5.479  -5.704  -5.909  0.00  0.00    +0.141 C 
BRANCH  19  20
ATOM     20  C   UNL     1       6.518  -6.597  -5.281  0.00  0.00    -0.030 A 
ATOM     21  C   UNL     1       7.857  -6.266  -5.367  0.00  0.00    +0.007 A 
ATOM     22  C   UNL     1       8.810  -7.085  -4.791  0.00  0.00    +0.029 A 
ATOM     23  C   UNL     1       8.424  -8.235  -4.129  0.00  0.00    +0.105 A 
ATOM     24  C   UNL     1       7.085  -8.566  -4.042  0.00  0.00    +0.029 A 
ATOM     25  C   UNL     1       6.131  -7.745  -4.614  0.00  0.00    +0.007 A 
BRANCH  23  26
ATOM     26  S   UNL     1       9.639  -9.280  -3.396  0.00  0.00    +0.056 S 
ATOM     27  O   UNL     1       9.061 -10.575  -3.308  0.00  0.00    -0.153 OA
ATOM     28  O   UNL     1      10.856  -9.034  -4.088  0.00  0.00    -0.153 OA
BRANCH  26  29
ATOM     29  N   UNL     1       9.863  -8.755  -1.842  0.00  0.00    -0.204 NA
ATOM     30  H   UNL     1      10.121  -9.384  -1.150  0.00  0.00    +0.144 HD
ATOM     31  H   UNL     1       9.737  -7.818  -1.624  0.00  0.00    +0.144 HD
ENDBRANCH  26  29
ENDBRANCH  23  26
ENDBRANCH  19  20
ENDBRANCH   4  19
TORSDOF 8
