REMARK  Name = ZINC63361902
REMARK  16 active torsions:
REMARK  status: ('A' for Active; 'I' for Inactive)
REMARK    1  A    between atoms: C_1  and  C_2
REMARK    2  A    between atoms: C_2  and  C_3
REMARK    3  A    between atoms: C_2  and  C_4
REMARK    4  A    between atoms: C_2  and  O_5
REMARK    5  A    between atoms: O_5  and  C_6
REMARK    6  A    between atoms: N_8  and  C_9
REMARK    7  A    between atoms: C_9  and  C_11
REMARK    8  A    between atoms: C_9  and  C_21
REMARK    9  A    between atoms: C_11  and  C_12
REMARK   10  A    between atoms: C_21  and  O_23
REMARK   11  A    between atoms: O_23  and  C_24
REMARK   12  A    between atoms: C_24  and  C_25
REMARK   13  A    between atoms: C_27  and  O_39
REMARK   14  A    between atoms: C_29  and  O_38
REMARK   15  A    between atoms: C_31  and  O_37
REMARK   16  A    between atoms: C_33  and  O_36
REMARK                            x       y       z     vdW  Elec       q    Type
REMARK                         _______ _______ _______ _____ _____    ______ ____
ROOT
ATOM      1  C   UNL     1       4.035  -0.071  -2.601  0.00  0.00    +0.189 C 
ENDROOT
BRANCH   1   4
ATOM      2  C   UNL     1       1.952  -0.085  -1.337  0.00  0.00    +0.401 C 
ATOM      3  O   UNL     1       2.488   0.619  -0.503  0.00  0.00    -0.226 OA
ATOM      4  N   UNL     1       2.641  -0.485  -2.424  0.00  0.00    -0.268 N 
ATOM      5  H   UNL     1       2.213  -1.047  -3.089  0.00  0.00    +0.153 HD
BRANCH   2   6
ATOM      6  O   UNL     1       0.671  -0.465  -1.174  0.00  0.00    -0.445 OA
BRANCH   6   8
ATOM      7  C   UNL     1      -0.019   1.526   0.010  0.00  0.00    +0.055 C 
ATOM      8  C   UNL     1       0.002  -0.004   0.002  0.00  0.00    +0.107 C 
ATOM      9  C   UNL     1       0.742  -0.511   1.242  0.00  0.00    +0.055 C 
ATOM     10  C   UNL     1      -1.433  -0.534   0.013  0.00  0.00    +0.055 C 
ENDBRANCH   6   8
ENDBRANCH   2   6
ENDBRANCH   1   4
BRANCH   1  11
ATOM     11  C   UNL     1       4.110   1.433  -2.656  0.00  0.00    +0.328 C 
ATOM     12  O   UNL     1       3.206   2.099  -2.209  0.00  0.00    -0.249 OA
BRANCH  11  13
ATOM     13  O   UNL     1       5.180   2.032  -3.202  0.00  0.00    -0.461 OA
BRANCH  13  14
ATOM     14  C   UNL     1       5.184   3.461  -3.220  0.00  0.00    +0.266 C 
BRANCH  14  15
ATOM     15  C   UNL     1       6.474   3.959  -3.875  0.00  0.00    +0.190 C 
ATOM     16  C   UNL     1       6.536   5.486  -3.784  0.00  0.00    +0.178 C 
ATOM     17  C   UNL     1       7.800   5.981  -4.494  0.00  0.00    +0.179 C 
ATOM     18  C   UNL     1       7.785   5.485  -5.943  0.00  0.00    +0.201 C 
ATOM     19  C   UNL     1       7.675   3.958  -5.951  0.00  0.00    +0.279 C 
ATOM     20  O   UNL     1       6.495   3.564  -5.248  0.00  0.00    -0.340 OA
BRANCH  19  21
ATOM     21  O   UNL     1       7.604   3.492  -7.300  0.00  0.00    -0.365 OA
ATOM     22  H   UNL     1       7.532   2.531  -7.381  0.00  0.00    +0.213 HD
ENDBRANCH  19  21
BRANCH  18  23
ATOM     23  O   UNL     1       6.666   6.050  -6.630  0.00  0.00    -0.384 OA
ATOM     24  H   UNL     1       6.595   5.778  -7.555  0.00  0.00    +0.210 HD
ENDBRANCH  18  23
BRANCH  17  25
ATOM     25  O   UNL     1       7.830   7.409  -4.476  0.00  0.00    -0.386 OA
ATOM     26  H   UNL     1       8.605   7.792  -4.909  0.00  0.00    +0.210 HD
ENDBRANCH  17  25
BRANCH  16  27
ATOM     27  O   UNL     1       6.572   5.881  -2.411  0.00  0.00    -0.386 OA
ATOM     28  H   UNL     1       6.613   6.838  -2.278  0.00  0.00    +0.210 HD
ENDBRANCH  16  27
ENDBRANCH  14  15
ENDBRANCH  13  14
ENDBRANCH  11  13
ENDBRANCH   1  11
BRANCH   1  29
ATOM     29  C   UNL     1       4.872  -0.581  -1.426  0.00  0.00    +0.067 C 
BRANCH  29  30
ATOM     30  C   UNL     1       4.897  -2.088  -1.444  0.00  0.00    -0.039 C 
ATOM     31  C   UNL     1       5.849  -2.878  -1.989  0.00  0.00    -0.001 A 
ATOM     32  C   UNL     1       7.098  -2.584  -2.703  0.00  0.00    +0.010 A 
ATOM     33  C   UNL     1       7.861  -3.611  -3.141  0.00  0.00    +0.001 A 
ATOM     34  C   UNL     1       7.490  -4.946  -2.932  0.00  0.00    +0.002 A 
ATOM     35  C   UNL     1       6.358  -5.296  -2.285  0.00  0.00    +0.026 A 
ATOM     36  C   UNL     1       5.481  -4.297  -1.781  0.00  0.00    +0.043 A 
ATOM     37  N   UNL     1       4.345  -4.380  -1.132  0.00  0.00    -0.380 N 
ATOM     38  C   UNL     1       3.867  -3.022  -0.849  0.00  0.00    +0.144 C 
ATOM     39  H   UNL     1       3.897  -5.202  -0.877  0.00  0.00    +0.160 HD
ENDBRANCH  29  30
ENDBRANCH   1  29
TORSDOF 13
