REMARK  Name = ZINC48448373
REMARK  4 active torsions:
REMARK  status: ('A' for Active; 'I' for Inactive)
REMARK    1  A    between atoms: C_3  and  S_6
REMARK    2  A    between atoms: S_6  and  N_9
REMARK    3  A    between atoms: C_10  and  C_12
REMARK    4  A    between atoms: C_12  and  C_15
REMARK                            x       y       z     vdW  Elec       q    Type
REMARK                         _______ _______ _______ _____ _____    ______ ____
ROOT
ATOM      1  N   UNL     1       4.477   2.089   1.552  0.00  0.00    -0.089 NA
ATOM      2  C   UNL     1       5.664   2.513   1.829  0.00  0.00    +0.275 C 
ATOM      3  O   UNL     1       6.517   2.828   0.832  0.00  0.00    -0.269 OA
ENDROOT
BRANCH   1   4
ATOM      4  S   UNL     1       4.001   1.932  -0.026  0.00  0.00    +0.108 S 
ATOM      5  O   UNL     1       4.799   0.900  -0.590  0.00  0.00    -0.146 OA
ATOM      6  O   UNL     1       3.957   3.244  -0.570  0.00  0.00    -0.146 OA
BRANCH   4   9
ATOM      7  C   UNL     1      -0.016   1.351   0.009  0.00  0.00    +0.010 A 
ATOM      8  C   UNL     1       1.183   2.038   0.002  0.00  0.00    +0.037 A 
ATOM      9  C   UNL     1       2.343   1.336  -0.013  0.00  0.00    +0.150 A 
ATOM     10  S   UNL     1       1.754  -0.349  -0.017  0.00  0.00    -0.076 S 
ATOM     11  C   UNL     1       0.002  -0.004   0.002  0.00  0.00    +0.047 A 
ENDBRANCH   4   9
ENDBRANCH   1   4
BRANCH   2  12
ATOM     12  C   UNL     1       6.097   2.657   3.265  0.00  0.00    +0.078 C 
ATOM     13  C   UNL     1       7.434   3.351   3.533  0.00  0.00    +0.022 C 
ATOM     14  C   UNL     1       7.306   1.838   3.723  0.00  0.00    +0.022 C 
BRANCH  12  15
ATOM     15  C   UNL     1       4.987   2.875   4.260  0.00  0.00    -0.032 A 
ATOM     16  C   UNL     1       5.087   2.347   5.534  0.00  0.00    +0.006 A 
ATOM     17  C   UNL     1       4.069   2.547   6.447  0.00  0.00    +0.015 A 
ATOM     18  C   UNL     1       2.950   3.276   6.086  0.00  0.00    +0.018 A 
ATOM     19  C   UNL     1       2.851   3.805   4.812  0.00  0.00    +0.015 A 
ATOM     20  C   UNL     1       3.871   3.609   3.901  0.00  0.00    +0.006 A 
ATOM     21 BR   UNL     1       1.557   3.551   7.335  0.00  0.00    -0.050 Br
ENDBRANCH  12  15
ENDBRANCH   2  12
TORSDOF 4
