REMARK  Name = ZINC12531714
REMARK  12 active torsions:
REMARK  status: ('A' for Active; 'I' for Inactive)
REMARK    1  A    between atoms: C_1  and  C_2
REMARK    2  A    between atoms: C_2  and  O_41
REMARK    3  A    between atoms: C_5  and  C_24
REMARK    4  A    between atoms: C_9  and  C_22
REMARK    5  A    between atoms: C_9  and  C_23
REMARK    6  A    between atoms: C_11  and  N_13
REMARK    7  A    between atoms: C_14  and  C_16
REMARK    8  A    between atoms: C_24  and  C_25
REMARK    9  A    between atoms: C_25  and  C_26
REMARK   10  A    between atoms: N_28  and  C_29
REMARK   11  A    between atoms: C_29  and  C_30
REMARK   12  A    between atoms: C_30  and  C_31
REMARK                            x       y       z     vdW  Elec       q    Type
REMARK                         _______ _______ _______ _____ _____    ______ ____
ROOT
ATOM      1  C   UNL     1       0.247   1.705  -0.139  0.00  0.00    +0.041 C 
ATOM      2  C   UNL     1       0.257   0.177  -0.227  0.00  0.00    +0.064 C 
ATOM      3  C   UNL     1      -1.182  -0.349  -0.199  0.00  0.00    +0.035 C 
ATOM      4  C   UNL     1      -1.143  -1.868  -0.366  0.00  0.00    +0.012 C 
ATOM      5  C   UNL     1      -0.337  -2.521   0.733  0.00  0.00    -0.007 C 
ATOM      6  C   UNL     1       1.075  -1.927   0.882  0.00  0.00    +0.005 C 
ATOM      7  C   UNL     1       1.012  -0.401   0.968  0.00  0.00    +0.039 C 
ATOM      8  C   UNL     1       1.482  -2.435   2.297  0.00  0.00    -0.030 C 
ATOM      9  C   UNL     1       0.184  -2.308   3.123  0.00  0.00    +0.029 C 
ATOM     10  C   UNL     1      -0.982  -2.357   2.116  0.00  0.00    +0.080 C 
ATOM     11  C   UNL     1       2.584  -1.553   2.888  0.00  0.00    +0.011 C 
ATOM     12  C   UNL     1       1.937  -3.894   2.233  0.00  0.00    +0.011 C 
ENDROOT
BRANCH  10  13
ATOM     13  N   UNL     1      -1.852  -3.500   2.406  0.00  0.00    -0.312 N 
ATOM     14  C   UNL     1      -2.954  -3.333   3.164  0.00  0.00    +0.216 C 
ATOM     15  O   UNL     1      -3.225  -2.236   3.607  0.00  0.00    -0.276 OA
ATOM     16  H   UNL     1      -1.635  -4.376   2.052  0.00  0.00    +0.149 HD
BRANCH  14  17
ATOM     17  C   UNL     1      -3.848  -4.508   3.463  0.00  0.00    +0.075 C 
ATOM     18  C   UNL     1      -4.386  -5.085   2.152  0.00  0.00    +0.013 C 
ATOM     19  C   UNL     1      -5.295  -6.279   2.455  0.00  0.00    +0.001 C 
ATOM     20  C   UNL     1      -6.464  -5.820   3.329  0.00  0.00    +0.000 C 
ATOM     21  C   UNL     1      -5.926  -5.243   4.639  0.00  0.00    +0.001 C 
ATOM     22  C   UNL     1      -5.018  -4.050   4.336  0.00  0.00    +0.013 C 
ENDBRANCH  14  17
ENDBRANCH  10  13
BRANCH   2  23
ATOM     23  O   UNL     1       0.896  -0.229  -1.440  0.00  0.00    -0.389 OA
ATOM     24  H   UNL     1       0.464   0.100  -2.240  0.00  0.00    +0.210 HD
ENDBRANCH   2  23
BRANCH   5  25
ATOM     25  C   UNL     1      -0.195  -4.013   0.426  0.00  0.00    +0.018 C 
BRANCH  25  26
ATOM     26  C   UNL     1       0.653  -4.196  -0.834  0.00  0.00    +0.096 C 
BRANCH  26  27
ATOM     27  C   UNL     1       0.909  -5.664  -1.058  0.00  0.00    +0.213 C 
ATOM     28  O   UNL     1       0.458  -6.483  -0.286  0.00  0.00    -0.276 OA
ATOM     29  N   UNL     1       1.640  -6.066  -2.117  0.00  0.00    -0.315 N 
ATOM     30  H   UNL     1       2.001  -5.411  -2.734  0.00  0.00    +0.149 HD
BRANCH  29  31
ATOM     31  C   UNL     1       1.889  -7.494  -2.335  0.00  0.00    +0.109 C 
BRANCH  31  32
ATOM     32  C   UNL     1       2.737  -7.676  -3.595  0.00  0.00    +0.056 C 
BRANCH  32  33
ATOM     33  C   UNL     1       2.993  -9.144  -3.820  0.00  0.00    -0.021 A 
ATOM     34  C   UNL     1       4.070  -9.838  -3.418  0.00  0.00    +0.087 A 
ATOM     35  N   UNL     1       3.953 -11.146  -3.802  0.00  0.00    -0.360 N 
ATOM     36  H   UNL     1       4.607 -11.839  -3.625  0.00  0.00    +0.165 HD
ATOM     37  C   UNL     1       2.767 -11.331  -4.477  0.00  0.00    +0.047 A 
ATOM     38  C   UNL     1       2.111 -10.087  -4.512  0.00  0.00    +0.003 A 
ATOM     39  C   UNL     1       0.868  -9.972  -5.136  0.00  0.00    +0.010 A 
ATOM     40  C   UNL     1       0.291 -11.072  -5.707  0.00  0.00    +0.001 A 
ATOM     41  C   UNL     1       0.932 -12.303  -5.671  0.00  0.00    +0.002 A 
ATOM     42  C   UNL     1       2.164 -12.436  -5.069  0.00  0.00    +0.026 A 
ENDBRANCH  32  33
ENDBRANCH  31  32
ENDBRANCH  29  31
ENDBRANCH  26  27
ENDBRANCH  25  26
ENDBRANCH   5  25
TORSDOF 9
