REMARK  Name = ZINC66122704
REMARK  11 active torsions:
REMARK  status: ('A' for Active; 'I' for Inactive)
REMARK    1  A    between atoms: C_1  and  C_2
REMARK    2  A    between atoms: C_2  and  C_3
REMARK    3  A    between atoms: C_2  and  C_4
REMARK    4  A    between atoms: C_9  and  N_10
REMARK    5  A    between atoms: N_10  and  C_11
REMARK    6  A    between atoms: C_11  and  N_13
REMARK    7  A    between atoms: N_13  and  N_14
REMARK    8  A    between atoms: C_15  and  C_17
REMARK    9  A    between atoms: C_17  and  N_18
REMARK   10  A    between atoms: C_19  and  C_21
REMARK   11  A    between atoms: C_22  and  C_23
REMARK                            x       y       z     vdW  Elec       q    Type
REMARK                         _______ _______ _______ _____ _____    ______ ____
ROOT
ATOM      1  N   UNL     1       0.769  -2.030  -4.115  0.00  0.00    -0.234 N 
ATOM      2  C   UNL     1       1.623  -2.332  -5.113  0.00  0.00    +0.246 C 
ATOM      3  O   UNL     1       1.215  -2.874  -6.118  0.00  0.00    -0.273 OA
ATOM      4  H   UNL     1       1.096  -1.596  -3.312  0.00  0.00    +0.173 HD
ENDROOT
BRANCH   1   5
ATOM      5  N   UNL     1      -0.591  -2.344  -4.239  0.00  0.00    -0.246 N 
ATOM      6  H   UNL     1      -0.917  -2.778  -5.042  0.00  0.00    +0.172 HD
BRANCH   5   7
ATOM      7  C   UNL     1      -1.445  -2.043  -3.240  0.00  0.00    +0.151 C 
ATOM      8  S   UNL     1      -3.106  -2.426  -3.391  0.00  0.00    -0.017 S 
BRANCH   7   9
ATOM      9  N   UNL     1      -0.991  -1.440  -2.124  0.00  0.00    -0.296 N 
ATOM     10  H   UNL     1      -0.062  -1.166  -2.064  0.00  0.00    +0.154 HD
BRANCH   9  16
ATOM     11  C   UNL     1      -1.474  -1.546   0.240  0.00  0.00    -0.024 A 
ATOM     12  C   UNL     1      -2.331  -1.312   1.298  0.00  0.00    +0.006 A 
ATOM     13  C   UNL     1      -3.573  -0.749   1.071  0.00  0.00    +0.000 A 
ATOM     14  C   UNL     1      -3.962  -0.418  -0.214  0.00  0.00    +0.002 A 
ATOM     15  C   UNL     1      -3.110  -0.650  -1.276  0.00  0.00    +0.023 A 
ATOM     16  C   UNL     1      -1.859  -1.209  -1.051  0.00  0.00    +0.036 A 
BRANCH  11  18
ATOM     17  C   UNL     1       0.698  -1.242   1.399  0.00  0.00    +0.012 C 
ATOM     18  C   UNL     1      -0.120  -2.160   0.488  0.00  0.00    +0.015 C 
ATOM     19  C   UNL     1      -0.294  -3.523   1.160  0.00  0.00    +0.012 C 
ENDBRANCH  11  18
ENDBRANCH   9  16
ENDBRANCH   7   9
ENDBRANCH   5   7
ENDBRANCH   1   5
BRANCH   2  20
ATOM     20  C   UNL     1       3.086  -1.994  -4.981  0.00  0.00    +0.201 C 
BRANCH  20  21
ATOM     21  N   UNL     1       3.797  -2.420  -6.189  0.00  0.00    -0.303 N 
ATOM     22  C   UNL     1       5.125  -2.218  -6.296  0.00  0.00    +0.237 C 
ATOM     23  O   UNL     1       5.734  -1.683  -5.388  0.00  0.00    -0.271 OA
ATOM     24  H   UNL     1       3.312  -2.846  -6.912  0.00  0.00    +0.149 HD
BRANCH  22  25
ATOM     25  C   UNL     1       5.836  -2.643  -7.503  0.00  0.00    +0.068 C 
ATOM     26  C   UNL     1       7.165  -2.442  -7.610  0.00  0.00    +0.013 C 
BRANCH  26  27
ATOM     27  C   UNL     1       7.879  -2.870  -8.824  0.00  0.00    -0.025 A 
ATOM     28  C   UNL     1       7.181  -3.480  -9.871  0.00  0.00    +0.008 A 
ATOM     29  C   UNL     1       7.858  -3.878 -11.005  0.00  0.00    +0.001 A 
ATOM     30  C   UNL     1       9.223  -3.675 -11.109  0.00  0.00    +0.000 A 
ATOM     31  C   UNL     1       9.920  -3.071 -10.076  0.00  0.00    +0.001 A 
ATOM     32  C   UNL     1       9.257  -2.662  -8.938  0.00  0.00    +0.008 A 
ENDBRANCH  26  27
ENDBRANCH  22  25
ENDBRANCH  20  21
ENDBRANCH   2  20
TORSDOF 9
