REMARK  Name = ZINC03177914
REMARK  2 active torsions:
REMARK  status: ('A' for Active; 'I' for Inactive)
REMARK    1  A    between atoms: C_1  and  C_2
REMARK    2  A    between atoms: C_5  and  C_18
REMARK                            x       y       z     vdW  Elec       q    Type
REMARK                         _______ _______ _______ _____ _____    ______ ____
ROOT
ATOM      1  C   UNL     1      -0.175   1.129   3.814  0.00  0.00    +0.012 C 
ATOM      2  C   UNL     1       0.421   1.304   2.415  0.00  0.00    -0.020 C 
ATOM      3  C   UNL     1       1.276   0.093   1.977  0.00  0.00    +0.008 C 
ATOM      4  C   UNL     1       2.209   0.543   0.840  0.00  0.00    +0.008 C 
ATOM      5  C   UNL     1       1.426   1.589  -0.003  0.00  0.00    -0.020 C 
ATOM      6  C   UNL     1       1.485   2.892   0.826  0.00  0.00    +0.008 C 
ATOM      7  C   UNL     1       1.378   2.525   2.316  0.00  0.00    +0.008 C 
ATOM      8  C   UNL     1      -0.013   1.086   0.008  0.00  0.00    +0.095 C 
ATOM      9  C   UNL     1      -0.629   1.555   1.340  0.00  0.00    +0.095 C 
ATOM     10  C   UNL     1      -1.950   0.877   1.483  0.00  0.00    +0.233 C 
ATOM     11  O   UNL     1      -2.333   0.423   2.541  0.00  0.00    -0.274 OA
ATOM     12  N   UNL     1      -2.699   0.801   0.344  0.00  0.00    -0.234 N 
ATOM     13  N   UNL     1      -2.254   1.412  -0.840  0.00  0.00    -0.234 N 
ATOM     14  C   UNL     1      -0.921   1.553  -1.080  0.00  0.00    +0.233 C 
ATOM     15  O   UNL     1      -0.500   2.011  -2.121  0.00  0.00    -0.274 OA
ATOM     16  C   UNL     1       1.984   1.746  -1.419  0.00  0.00    +0.012 C 
ATOM     17  H   UNL     1      -3.544   0.324   0.353  0.00  0.00    +0.173 HD
ATOM     18  H   UNL     1      -2.898   1.742  -1.485  0.00  0.00    +0.173 HD
ENDROOT
TORSDOF 0
