REMARK  Name = ZINC20527955
REMARK  10 active torsions:
REMARK  status: ('A' for Active; 'I' for Inactive)
REMARK    1  A    between atoms: C_1  and  C_2
REMARK    2  A    between atoms: C_2  and  O_3
REMARK    3  A    between atoms: O_3  and  C_4
REMARK    4  A    between atoms: C_7  and  C_10
REMARK    5  A    between atoms: N_11  and  N_12
REMARK    6  A    between atoms: C_16  and  S_19
REMARK    7  A    between atoms: N_17  and  N_18
REMARK    8  A    between atoms: S_19  and  C_20
REMARK    9  A    between atoms: C_20  and  C_21
REMARK   10  A    between atoms: N_23  and  C_24
REMARK                            x       y       z     vdW  Elec       q    Type
REMARK                         _______ _______ _______ _____ _____    ______ ____
ROOT
ATOM      1  N   UNL     1      -8.650  -0.706  -0.200  0.00  0.00    -0.204 N 
ATOM      2  C   UNL     1      -7.273  -0.543  -0.147  0.00  0.00    +0.254 A 
ATOM      3  N   UNL     1      -6.393  -1.488   0.079  0.00  0.00    -0.109 NA
ATOM      4  N   UNL     1      -5.117  -0.910   0.043  0.00  0.00    -0.119 NA
ATOM      5  C   UNL     1      -5.260   0.372  -0.196  0.00  0.00    +0.210 A 
ATOM      6  N   UNL     1      -6.595   0.631  -0.323  0.00  0.00    -0.211 N 
ATOM      7  H   UNL     1      -9.299   0.159  -0.399  0.00  0.00    +0.177 HD
ENDROOT
BRANCH   6   8
ATOM      8  N   UNL     1      -7.155   1.851  -0.581  0.00  0.00    -0.294 N 
ATOM      9  H   UNL     1      -6.514   2.735  -0.706  0.00  0.00    +0.163 HD
ATOM     10  H   UNL     1      -8.248   1.948  -0.663  0.00  0.00    +0.163 HD
ENDBRANCH   6   8
BRANCH   1  12
ATOM     11  C   UNL     1     -10.502  -2.126  -0.049  0.00  0.00    +0.138 C 
ATOM     12  N   UNL     1      -9.213  -1.973   0.000  0.00  0.00    -0.188 NA
BRANCH  11  16
ATOM     13  C   UNL     1     -12.209  -5.965   0.555  0.00  0.00    +0.121 A 
ATOM     14  C   UNL     1     -13.031  -4.874   0.306  0.00  0.00    +0.046 A 
ATOM     15  C   UNL     1     -12.481  -3.625   0.109  0.00  0.00    +0.013 A 
ATOM     16  C   UNL     1     -11.095  -3.459   0.161  0.00  0.00    -0.005 A 
ATOM     17  C   UNL     1     -10.272  -4.561   0.408  0.00  0.00    +0.013 A 
ATOM     18  C   UNL     1     -10.831  -5.804   0.608  0.00  0.00    +0.046 A 
BRANCH  13  19
ATOM     19  O   UNL     1     -12.756  -7.194   0.749  0.00  0.00    -0.492 OA
BRANCH  19  21
ATOM     20  C   UNL     1     -12.647  -9.567   1.191  0.00  0.00    +0.048 C 
ATOM     21  C   UNL     1     -11.854  -8.273   1.001  0.00  0.00    +0.225 C 
ENDBRANCH  19  21
ENDBRANCH  13  19
ENDBRANCH  11  16
ENDBRANCH   1  12
BRANCH   5  22
ATOM     22  S   UNL     1      -3.958   1.551  -0.336  0.00  0.00    -0.075 S 
BRANCH  22  23
ATOM     23  C   UNL     1      -2.453   0.575  -0.066  0.00  0.00    +0.173 C 
BRANCH  23  24
ATOM     24  C   UNL     1      -1.248   1.475  -0.160  0.00  0.00    +0.227 C 
ATOM     25  O   UNL     1      -1.390   2.658  -0.387  0.00  0.00    -0.275 OA
ATOM     26  N   UNL     1      -0.011   0.966   0.007  0.00  0.00    -0.285 N 
ATOM     27  H   UNL     1       0.125  -0.119   0.129  0.00  0.00    +0.155 HD
BRANCH  26  28
ATOM     28  C   UNL     1       1.100   1.817   0.026  0.00  0.00    +0.034 A 
ATOM     29  C   UNL     1       2.318   1.381  -0.478  0.00  0.00    +0.023 A 
ATOM     30  C   UNL     1       3.412   2.225  -0.463  0.00  0.00    +0.003 A 
ATOM     31  C   UNL     1       3.297   3.498   0.064  0.00  0.00    +0.015 A 
ATOM     32  C   UNL     1       2.087   3.933   0.573  0.00  0.00    +0.020 A 
ATOM     33  C   UNL     1       0.987   3.095   0.555  0.00  0.00    +0.038 A 
ATOM     34 BR   UNL     1       1.935   5.675   1.292  0.00  0.00    -0.050 Br
ENDBRANCH  26  28
ENDBRANCH  23  24
ENDBRANCH  22  23
ENDBRANCH   5  22
TORSDOF 9
