REMARK  Name = ZINC31919119
REMARK  9 active torsions:
REMARK  status: ('A' for Active; 'I' for Inactive)
REMARK    1  A    between atoms: C_3  and  N_21
REMARK    2  A    between atoms: C_4  and  N_20
REMARK    3  A    between atoms: C_6  and  C_7
REMARK    4  A    between atoms: C_7  and  C_8
REMARK    5  A    between atoms: C_8  and  C_9
REMARK    6  A    between atoms: C_9  and  N_10
REMARK    7  A    between atoms: C_15  and  C_17
REMARK    8  A    between atoms: C_17  and  C_18
REMARK    9  A    between atoms: C_18  and  O_19
REMARK                            x       y       z     vdW  Elec       q    Type
REMARK                         _______ _______ _______ _____ _____    ______ ____
ROOT
ATOM      1  C   UNL     1      -0.628   2.814  -7.316  0.00  0.00    +0.005 A 
ATOM      2  C   UNL     1      -1.281   3.197  -8.474  0.00  0.00    +0.025 A 
ATOM      3  C   UNL     1      -2.071   2.286  -9.157  0.00  0.00    +0.051 A 
ATOM      4  C   UNL     1      -2.205   0.984  -8.674  0.00  0.00    +0.046 A 
ATOM      5  C   UNL     1      -1.543   0.608  -7.515  0.00  0.00    +0.028 A 
ATOM      6  C   UNL     1      -0.761   1.525  -6.837  0.00  0.00    -0.046 A 
ENDROOT
BRANCH   3   7
ATOM      7  N   UNL     1      -2.733   2.671 -10.330  0.00  0.00    -0.328 N 
ATOM      8  C   UNL     1      -2.503   4.109 -10.623  0.00  0.00    +0.105 C 
ATOM      9  C   UNL     1      -2.825   4.218 -12.135  0.00  0.00    +0.020 C 
ATOM     10  C   UNL     1      -2.270   2.892 -12.703  0.00  0.00    +0.020 C 
ATOM     11  C   UNL     1      -2.211   1.932 -11.500  0.00  0.00    +0.105 C 
ENDBRANCH   3   7
BRANCH   4  12
ATOM     12  N   UNL     1      -3.003   0.060  -9.359  0.00  0.00    -0.357 N 
ATOM     13  H   UNL     1      -3.108  -0.966  -8.976  0.00  0.00    +0.142 HD
ATOM     14  H   UNL     1      -3.525   0.359 -10.280  0.00  0.00    +0.142 HD
ENDBRANCH   4  12
BRANCH   6  15
ATOM     15  C   UNL     1      -0.047   1.115  -5.575  0.00  0.00    +0.033 C 
BRANCH  15  16
ATOM     16  C   UNL     1      -0.949   1.385  -4.368  0.00  0.00    -0.014 C 
BRANCH  16  17
ATOM     17  C   UNL     1      -0.224   0.969  -3.087  0.00  0.00    -0.078 C 
BRANCH  17  18
ATOM     18  N   UNL     1      -1.089   1.227  -1.929  0.00  0.00    +0.382 N 
ATOM     19  C   UNL     1      -2.419   0.635  -2.123  0.00  0.00    -0.078 C 
ATOM     20  C   UNL     1      -3.336   1.046  -0.968  0.00  0.00    -0.019 C 
ATOM     21  C   UNL     1      -2.731   0.565   0.353  0.00  0.00    -0.003 C 
ATOM     22  C   UNL     1      -1.327   1.156   0.508  0.00  0.00    -0.015 C 
ATOM     23  C   UNL     1      -0.469   0.742  -0.689  0.00  0.00    -0.066 C 
ATOM     24  H   UNL     1      -1.217   2.316  -1.836  0.00  0.00    -0.081 HD
BRANCH  23  25
ATOM     25  C   UNL     1       0.929   1.348  -0.548  0.00  0.00    +0.012 C 
BRANCH  25  26
ATOM     26  C   UNL     1       1.618   0.759   0.684  0.00  0.00    +0.154 C 
BRANCH  26  27
ATOM     27  O   UNL     1       2.885   1.393   0.870  0.00  0.00    -0.395 OA
ATOM     28  H   UNL     1       3.530   1.098   1.712  0.00  0.00    +0.209 HD
ENDBRANCH  26  27
ENDBRANCH  25  26
ENDBRANCH  23  25
ENDBRANCH  17  18
ENDBRANCH  16  17
ENDBRANCH  15  16
ENDBRANCH   6  15
TORSDOF 9
