REMARK  Name = ZINC64981100
REMARK  7 active torsions:
REMARK  status: ('A' for Active; 'I' for Inactive)
REMARK    1  A    between atoms: C_1  and  C_2
REMARK    2  A    between atoms: C_3  and  C_29
REMARK    3  A    between atoms: C_5  and  N_10
REMARK    4  A    between atoms: C_6  and  C_7
REMARK    5  A    between atoms: C_11  and  C_13
REMARK    6  A    between atoms: C_13  and  S_14
REMARK    7  A    between atoms: S_14  and  C_15
REMARK                            x       y       z     vdW  Elec       q    Type
REMARK                         _______ _______ _______ _____ _____    ______ ____
ROOT
ATOM      1  C   UNL     1       0.089  -5.468   2.850  0.00  0.00    +0.173 C 
ENDROOT
BRANCH   1   3
ATOM      2  N   UNL     1       0.054  -3.117   2.083  0.00  0.00    -0.279 N 
ATOM      3  C   UNL     1       0.070  -4.426   1.762  0.00  0.00    +0.228 C 
ATOM      4  O   UNL     1       0.070  -4.765   0.597  0.00  0.00    -0.275 OA
ATOM      5  H   UNL     1       0.054  -2.846   3.014  0.00  0.00    +0.155 HD
BRANCH   2  10
ATOM      6  C   UNL     1      -0.018   1.503   0.010  0.00  0.00    +0.045 C 
ATOM      7  C   UNL     1       0.002  -0.004   0.002  0.00  0.00    -0.027 A 
ATOM      8  C   UNL     1       0.006  -0.713  -1.142  0.00  0.00    -0.008 A 
ATOM      9  S   UNL     1       0.032  -2.400  -0.579  0.00  0.00    -0.078 S 
ATOM     10  C   UNL     1       0.036  -2.158   1.081  0.00  0.00    +0.084 A 
ATOM     11  C   UNL     1       0.024  -0.778   1.222  0.00  0.00    +0.068 A 
ATOM     12  C   UNL     1      -0.007  -0.200  -2.559  0.00  0.00    +0.052 C 
BRANCH  11  13
ATOM     13  C   UNL     1       0.028  -0.138   2.541  0.00  0.00    +0.244 C 
ATOM     14  O   UNL     1      -1.024   0.114   3.099  0.00  0.00    -0.270 OA
ATOM     15  N   UNL     1       1.197   0.172   3.136  0.00  0.00    -0.325 N 
ATOM     16  H   UNL     1       2.035  -0.028   2.692  0.00  0.00    +0.145 HD
ATOM     17  H   UNL     1       1.199   0.596   4.009  0.00  0.00    +0.145 HD
ENDBRANCH  11  13
ENDBRANCH   2  10
ENDBRANCH   1   3
BRANCH   1  18
ATOM     18  S   UNL     1       0.109  -7.121   2.104  0.00  0.00    -0.078 S 
BRANCH  18  19
ATOM     19  C   UNL     1       0.130  -8.213   3.487  0.00  0.00    +0.171 A 
ATOM     20  N   UNL     1       0.123  -7.711   4.704  0.00  0.00    -0.185 NA
ATOM     21  C   UNL     1       0.138  -8.480   5.796  0.00  0.00    +0.282 A 
ATOM     22  O   UNL     1       0.130  -7.974   6.907  0.00  0.00    -0.265 OA
ATOM     23  C   UNL     1       0.165  -9.955   5.644  0.00  0.00    +0.075 A 
ATOM     24  C   UNL     1       0.186 -10.980   6.687  0.00  0.00    -0.023 A 
ATOM     25  C   UNL     1       0.208 -12.266   6.280  0.00  0.00    -0.004 A 
ATOM     26  S   UNL     1       0.202 -12.183   4.509  0.00  0.00    -0.075 S 
ATOM     27  C   UNL     1       0.170 -10.419   4.329  0.00  0.00    +0.092 A 
ATOM     28  N   UNL     1       0.148  -9.559   3.273  0.00  0.00    -0.328 N 
ATOM     29  C   UNL     1       0.234 -13.492   7.141  0.00  0.00    +0.043 C 
ATOM     30  C   UNL     1       0.606 -13.072   8.570  0.00  0.00    +0.005 C 
ATOM     31  C   UNL     1      -0.252 -11.867   8.967  0.00  0.00    +0.005 C 
ATOM     32  C   UNL     1       0.183 -10.634   8.174  0.00  0.00    +0.037 C 
ATOM     33  H   UNL     1       0.148  -9.906   2.367  0.00  0.00    +0.168 HD
ENDBRANCH  18  19
ENDBRANCH   1  18
TORSDOF 5
