REMARK  Name = ZINC48390411
REMARK  7 active torsions:
REMARK  status: ('A' for Active; 'I' for Inactive)
REMARK    1  A    between atoms: C_1  and  C_2
REMARK    2  A    between atoms: C_2  and  C_3
REMARK    3  A    between atoms: N_5  and  C_6
REMARK    4  A    between atoms: C_9  and  N_12
REMARK    5  A    between atoms: N_15  and  C_16
REMARK    6  A    between atoms: N_20  and  C_22
REMARK    7  A    between atoms: C_22  and  C_23
REMARK                            x       y       z     vdW  Elec       q    Type
REMARK                         _______ _______ _______ _____ _____    ______ ____
ROOT
ATOM      1  N   UNL     1       3.678  -3.253  -6.036  0.00  0.00    -0.269 N 
ATOM      2  C   UNL     1       3.748  -4.547  -6.406  0.00  0.00    +0.304 C 
ATOM      3  O   UNL     1       3.272  -5.409  -5.693  0.00  0.00    -0.253 OA
ATOM      4  N   UNL     1       4.346  -4.885  -7.565  0.00  0.00    -0.298 N 
ATOM      5  H   UNL     1       4.115  -2.571  -6.571  0.00  0.00    +0.156 HD
ATOM      6  H   UNL     1       4.726  -4.197  -8.134  0.00  0.00    +0.150 HD
ENDROOT
BRANCH   1  10
ATOM      7  C   UNL     1       1.579  -2.177  -2.597  0.00  0.00    +0.033 A 
ATOM      8  C   UNL     1       1.579  -1.336  -3.702  0.00  0.00    +0.025 A 
ATOM      9  C   UNL     1       2.274  -1.692  -4.840  0.00  0.00    +0.025 A 
ATOM     10  C   UNL     1       2.973  -2.891  -4.881  0.00  0.00    +0.035 A 
ATOM     11  C   UNL     1       2.972  -3.733  -3.776  0.00  0.00    +0.025 A 
ATOM     12  C   UNL     1       2.282  -3.374  -2.635  0.00  0.00    +0.025 A 
BRANCH   7  15
ATOM     13  C   UNL     1       1.360  -2.138  -0.227  0.00  0.00    +0.217 C 
ATOM     14  O   UNL     1       2.365  -2.811  -0.135  0.00  0.00    -0.275 OA
ATOM     15  N   UNL     1       0.873  -1.816  -1.442  0.00  0.00    -0.286 N 
ATOM     16  H   UNL     1       0.035  -1.335  -1.516  0.00  0.00    +0.155 HD
BRANCH  13  18
ATOM     17  C   UNL     1       1.409  -2.159   2.252  0.00  0.00    +0.013 C 
ATOM     18  C   UNL     1       0.657  -1.660   1.017  0.00  0.00    +0.093 C 
ENDBRANCH  13  18
ENDBRANCH   7  15
ENDBRANCH   1  10
BRANCH   4  19
ATOM     19  C   UNL     1       4.422  -6.292  -7.967  0.00  0.00    +0.056 C 
ATOM     20  C   UNL     1       3.156  -6.694  -8.758  0.00  0.00    +0.002 C 
ATOM     21  C   UNL     1       3.610  -6.552 -10.233  0.00  0.00    -0.077 C 
ATOM     22  N   UNL     1       5.016  -7.028 -10.203  0.00  0.00    +0.384 N 
ATOM     23  C   UNL     1       5.594  -6.507  -8.943  0.00  0.00    -0.056 C 
ATOM     24  H   UNL     1       5.042  -8.037 -10.205  0.00  0.00    -0.081 HD
BRANCH  22  25
ATOM     25  C   UNL     1       5.755  -6.498 -11.357  0.00  0.00    -0.043 C 
BRANCH  25  26
ATOM     26  C   UNL     1       5.200  -7.093 -12.625  0.00  0.00    -0.064 A 
ATOM     27  C   UNL     1       5.721  -8.274 -13.121  0.00  0.00    +0.002 A 
ATOM     28  C   UNL     1       5.212  -8.820 -14.284  0.00  0.00    +0.000 A 
ATOM     29  C   UNL     1       4.181  -8.185 -14.952  0.00  0.00    +0.000 A 
ATOM     30  C   UNL     1       3.660  -7.005 -14.456  0.00  0.00    +0.000 A 
ATOM     31  C   UNL     1       4.166  -6.461 -13.290  0.00  0.00    +0.002 A 
ENDBRANCH  25  26
ENDBRANCH  22  25
ENDBRANCH   4  19
TORSDOF 6
