REMARK  Name = ZINC46680371
REMARK  11 active torsions:
REMARK  status: ('A' for Active; 'I' for Inactive)
REMARK    1  A    between atoms: C_10  and  C_11
REMARK    2  A    between atoms: C_11  and  C_12
REMARK    3  A    between atoms: N_14  and  C_15
REMARK    4  A    between atoms: C_15  and  C_16
REMARK    5  A    between atoms: N_18  and  C_19
REMARK    6  A    between atoms: C_19  and  C_20
REMARK    7  A    between atoms: C_20  and  C_21
REMARK    8  A    between atoms: C_21  and  C_22
REMARK    9  A    between atoms: C_23  and  C_35
REMARK   10  A    between atoms: C_24  and  N_34
REMARK   11  A    between atoms: N_25  and  C_27
REMARK                            x       y       z     vdW  Elec       q    Type
REMARK                         _______ _______ _______ _____ _____    ______ ____
ROOT
ATOM      1  C   UNL     1       8.132   2.341   2.970  0.00  0.00    +0.230 C 
ATOM      2  O   UNL     1       8.689   2.579   1.919  0.00  0.00    -0.274 OA
ATOM      3  N   UNL     1       8.669   2.769   4.129  0.00  0.00    -0.314 N 
ATOM      4  H   UNL     1       8.224   2.579   4.970  0.00  0.00    +0.149 HD
ENDROOT
BRANCH   1   5
ATOM      5  C   UNL     1       6.840   1.565   2.979  0.00  0.00    +0.200 C 
BRANCH   5   8
ATOM      6  C   UNL     1       5.341   0.519   1.367  0.00  0.00    +0.218 C 
ATOM      7  O   UNL     1       4.633   0.178   2.291  0.00  0.00    -0.275 OA
ATOM      8  N   UNL     1       6.469   1.218   1.605  0.00  0.00    -0.306 N 
ATOM      9  H   UNL     1       7.035   1.490   0.866  0.00  0.00    +0.149 HD
BRANCH   6  10
ATOM     10  C   UNL     1       4.960   0.161  -0.046  0.00  0.00    +0.131 C 
BRANCH  10  20
ATOM     11  C   UNL     1      -0.016   1.357   0.009  0.00  0.00    +0.001 A 
ATOM     12  C   UNL     1       1.169   2.091   0.002  0.00  0.00    +0.001 A 
ATOM     13  C   UNL     1       2.378   1.468  -0.013  0.00  0.00    +0.009 A 
ATOM     14  C   UNL     1       2.438   0.064  -0.021  0.00  0.00    -0.014 A 
ATOM     15  C   UNL     1       1.233  -0.683  -0.013  0.00  0.00    -0.018 A 
ATOM     16  C   UNL     1       0.002  -0.004   0.002  0.00  0.00    +0.008 A 
ATOM     17  C   UNL     1       1.292  -2.087  -0.021  0.00  0.00    +0.008 A 
ATOM     18  C   UNL     1       2.502  -2.709  -0.036  0.00  0.00    +0.001 A 
ATOM     19  C   UNL     1       3.687  -1.976  -0.043  0.00  0.00    +0.005 A 
ATOM     20  C   UNL     1       3.668  -0.615  -0.037  0.00  0.00    -0.031 A 
ENDBRANCH  10  20
ENDBRANCH   6  10
ENDBRANCH   5   8
ENDBRANCH   1   5
BRANCH   3  21
ATOM     21  C   UNL     1       9.925   3.523   4.120  0.00  0.00    +0.104 C 
BRANCH  21  22
ATOM     22  C   UNL     1      10.312   3.886   5.555  0.00  0.00    +0.025 C 
BRANCH  22  23
ATOM     23  C   UNL     1      11.624   4.673   5.546  0.00  0.00    +0.060 C 
BRANCH  23  24
ATOM     24  C   UNL     1      12.005   5.031   6.959  0.00  0.00    +0.083 A 
ATOM     25  C   UNL     1      11.622   6.205   7.649  0.00  0.00    +0.114 A 
ATOM     26  C   UNL     1      12.188   6.134   8.919  0.00  0.00    +0.138 A 
ATOM     27  N   UNL     1      12.876   4.972   8.983  0.00  0.00    -0.217 N 
ATOM     28  N   UNL     1      12.740   4.309   7.759  0.00  0.00    -0.168 NA
BRANCH  27  29
ATOM     29  C   UNL     1      13.599   4.507  10.091  0.00  0.00    +0.068 A 
ATOM     30  C   UNL     1      14.264   5.406  10.914  0.00  0.00    +0.030 A 
ATOM     31  C   UNL     1      14.976   4.946  12.005  0.00  0.00    +0.040 A 
ATOM     32  C   UNL     1      15.026   3.590  12.278  0.00  0.00    +0.124 A 
ATOM     33  C   UNL     1      14.363   2.692  11.458  0.00  0.00    +0.040 A 
ATOM     34  C   UNL     1      13.645   3.148  10.370  0.00  0.00    +0.030 A 
ATOM     35  F   UNL     1      15.723   3.142  13.345  0.00  0.00    -0.205 F 
ENDBRANCH  27  29
BRANCH  26  36
ATOM     36  N   UNL     1      12.068   7.074   9.925  0.00  0.00    -0.342 N 
ATOM     37  H   UNL     1      11.548   7.879   9.777  0.00  0.00    +0.144 HD
ATOM     38  H   UNL     1      12.504   6.929  10.779  0.00  0.00    +0.144 HD
ENDBRANCH  26  36
BRANCH  25  39
ATOM     39  C   UNL     1      10.807   7.266   7.138  0.00  0.00    +0.104 C 
ATOM     40  N   UNL     1      10.161   8.107   6.732  0.00  0.00    -0.191 NA
ENDBRANCH  25  39
ENDBRANCH  23  24
ENDBRANCH  22  23
ENDBRANCH  21  22
ENDBRANCH   3  21
TORSDOF 11
