REMARK  Name = ZINC16569343
REMARK  12 active torsions:
REMARK  status: ('A' for Active; 'I' for Inactive)
REMARK    1  A    between atoms: C_1  and  C_2
REMARK    2  A    between atoms: C_2  and  C_3
REMARK    3  A    between atoms: C_3  and  C_4
REMARK    4  A    between atoms: C_4  and  N_5
REMARK    5  A    between atoms: N_5  and  C_6
REMARK    6  A    between atoms: C_6  and  C_7
REMARK    7  A    between atoms: C_21  and  C_23
REMARK    8  A    between atoms: C_29  and  C_31
REMARK    9  A    between atoms: C_33  and  O_39
REMARK   10  A    between atoms: C_35  and  O_37
REMARK   11  A    between atoms: O_37  and  C_38
REMARK   12  A    between atoms: O_39  and  C_40
REMARK                            x       y       z     vdW  Elec       q    Type
REMARK                         _______ _______ _______ _____ _____    ______ ____
ROOT
ATOM      1  C   UNL     1      -3.564  -3.578  -1.947  0.00  0.00    +0.238 C 
ATOM      2  O   UNL     1      -2.819  -4.455  -1.563  0.00  0.00    -0.273 OA
ATOM      3  N   UNL     1      -4.315  -3.767  -3.050  0.00  0.00    -0.255 N 
ATOM      4  C   UNL     1      -4.305  -5.009  -3.700  0.00  0.00    +0.061 A 
ATOM      5  C   UNL     1      -3.181  -5.819  -3.652  0.00  0.00    +0.025 A 
ATOM      6  C   UNL     1      -3.188  -7.046  -4.289  0.00  0.00    +0.002 A 
ATOM      7  C   UNL     1      -4.311  -7.473  -4.974  0.00  0.00    +0.002 A 
ATOM      8  C   UNL     1      -5.437  -6.670  -5.031  0.00  0.00    +0.028 A 
ATOM      9  C   UNL     1      -5.435  -5.441  -4.401  0.00  0.00    +0.068 A 
ATOM     10  N   UNL     1      -6.543  -4.583  -4.451  0.00  0.00    -0.316 N 
ATOM     11  C   UNL     1      -7.817  -4.822  -4.845  0.00  0.00    +0.092 A 
ATOM     12  C   UNL     1      -8.523  -3.678  -4.705  0.00  0.00    +0.020 A 
ATOM     13  C   UNL     1      -7.643  -2.692  -4.205  0.00  0.00    +0.025 A 
ATOM     14  C   UNL     1      -6.443  -3.265  -4.060  0.00  0.00    +0.049 A 
ATOM     15  C   UNL     1      -5.150  -2.670  -3.567  0.00  0.00    +0.159 C 
ENDROOT
BRANCH  15  16
ATOM     16  C   UNL     1      -4.443  -1.983  -4.707  0.00  0.00    -0.021 A 
ATOM     17  C   UNL     1      -3.735  -2.729  -5.631  0.00  0.00    +0.006 A 
ATOM     18  C   UNL     1      -3.090  -2.099  -6.679  0.00  0.00    +0.000 A 
ATOM     19  C   UNL     1      -3.144  -0.723  -6.797  0.00  0.00    +0.000 A 
ATOM     20  C   UNL     1      -3.847   0.023  -5.870  0.00  0.00    +0.000 A 
ATOM     21  C   UNL     1      -4.496  -0.607  -4.825  0.00  0.00    +0.006 A 
ENDBRANCH  15  16
BRANCH   1  22
ATOM     22  C   UNL     1      -3.651  -2.278  -1.190  0.00  0.00    +0.204 C 
BRANCH  22  23
ATOM     23  N   UNL     1      -2.843  -2.367   0.029  0.00  0.00    -0.289 N 
ATOM     24  C   UNL     1      -3.425  -2.687   1.201  0.00  0.00    +0.247 C 
ATOM     25  O   UNL     1      -2.775  -2.666   2.228  0.00  0.00    -0.270 OA
BRANCH  24  26
ATOM     26  C   UNL     1      -4.855  -3.062   1.239  0.00  0.00    +0.044 A 
ATOM     27  C   UNL     1      -5.695  -2.520   2.212  0.00  0.00    +0.059 A 
ATOM     28  C   UNL     1      -7.035  -2.870   2.239  0.00  0.00    +0.124 A 
ATOM     29  C   UNL     1      -7.539  -3.768   1.309  0.00  0.00    +0.091 A 
ATOM     30  C   UNL     1      -6.705  -4.313   0.343  0.00  0.00    +0.124 A 
ATOM     31  C   UNL     1      -5.366  -3.964   0.305  0.00  0.00    +0.059 A 
BRANCH  30  32
ATOM     32  O   UNL     1      -7.205  -5.191  -0.566  0.00  0.00    -0.495 OA
ATOM     33  C   UNL     1      -8.595  -5.506  -0.468  0.00  0.00    +0.277 C 
ENDBRANCH  30  32
BRANCH  28  34
ATOM     34  O   UNL     1      -7.856  -2.338   3.183  0.00  0.00    -0.495 OA
ATOM     35  C   UNL     1      -9.225  -2.748   3.158  0.00  0.00    +0.277 C 
ENDBRANCH  28  34
ENDBRANCH  24  26
BRANCH  23  36
ATOM     36  C   UNL     1      -1.401  -2.110  -0.028  0.00  0.00    +0.108 C 
BRANCH  36  37
ATOM     37  C   UNL     1      -1.147  -0.606   0.094  0.00  0.00    +0.019 C 
BRANCH  37  39
ATOM     38  C   UNL     1       0.613   1.167   0.158  0.00  0.00    +0.004 C 
ATOM     39  C   UNL     1       0.358  -0.337   0.036  0.00  0.00    -0.002 C 
ENDBRANCH  37  39
ENDBRANCH  36  37
ENDBRANCH  23  36
ENDBRANCH  22  23
ENDBRANCH   1  22
TORSDOF 9
