REMARK  Name = ZINC12567141
REMARK  6 active torsions:
REMARK  status: ('A' for Active; 'I' for Inactive)
REMARK    1  A    between atoms: C_1  and  C_2
REMARK    2  A    between atoms: C_2  and  C_30
REMARK    3  A    between atoms: N_5  and  C_9
REMARK    4  A    between atoms: C_9  and  C_10
REMARK    5  A    between atoms: N_15  and  S_18
REMARK    6  A    between atoms: S_18  and  C_21
REMARK                            x       y       z     vdW  Elec       q    Type
REMARK                         _______ _______ _______ _____ _____    ______ ____
ROOT
ATOM      1  C   UNL     1      -3.118   0.576   5.590  0.00  0.00    +0.234 C 
ATOM      2  O   UNL     1      -3.806   1.383   6.178  0.00  0.00    -0.274 OA
ATOM      3  N   UNL     1      -2.780   0.787   4.303  0.00  0.00    -0.298 N 
ATOM      4  C   UNL     1      -3.239   1.992   3.598  0.00  0.00    +0.125 C 
ATOM      5  C   UNL     1      -3.980   1.563   2.325  0.00  0.00    +0.128 C 
ATOM      6  N   UNL     1      -3.147   0.592   1.601  0.00  0.00    -0.174 NA
ATOM      7  C   UNL     1      -2.693  -0.616   2.305  0.00  0.00    +0.128 C 
ATOM      8  C   UNL     1      -1.947  -0.183   3.579  0.00  0.00    +0.125 C 
ENDROOT
BRANCH   6   9
ATOM      9  S   UNL     1      -2.734   0.852   0.019  0.00  0.00    +0.061 S 
ATOM     10  O   UNL     1      -3.721   1.718  -0.522  0.00  0.00    -0.153 OA
ATOM     11  O   UNL     1      -2.449  -0.423  -0.541  0.00  0.00    -0.153 OA
BRANCH   9  12
ATOM     12  C   UNL     1      -1.219   1.751   0.017  0.00  0.00    +0.106 A 
ATOM     13  C   UNL     1      -0.013   1.076   0.008  0.00  0.00    +0.029 A 
ATOM     14  C   UNL     1       1.173   1.783   0.000  0.00  0.00    +0.006 A 
ATOM     15  C   UNL     1       1.159   3.168   0.008  0.00  0.00    -0.044 A 
ATOM     16  C   UNL     1      -0.047   3.844   0.023  0.00  0.00    -0.042 A 
ATOM     17  C   UNL     1      -1.235   3.132   0.031  0.00  0.00    +0.032 A 
ATOM     18  C   UNL     1       0.203   5.336   0.029  0.00  0.00    +0.036 C 
ATOM     19  C   UNL     1       1.669   5.503  -0.424  0.00  0.00    +0.009 C 
ATOM     20  C   UNL     1       2.302   4.161   0.003  0.00  0.00    +0.036 C 
ENDBRANCH   9  12
ENDBRANCH   6   9
BRANCH   1  21
ATOM     21  C   UNL     1      -2.640  -0.665   6.301  0.00  0.00    +0.213 C 
BRANCH  21  26
ATOM     22  C   UNL     1      -5.618  -0.094   9.889  0.00  0.00    +0.050 C 
ATOM     23  C   UNL     1      -4.404  -0.963   9.556  0.00  0.00    +0.168 C 
ATOM     24  C   UNL     1      -4.311  -1.200   8.062  0.00  0.00    +0.254 C 
ATOM     25  O   UNL     1      -5.125  -1.759   7.357  0.00  0.00    -0.272 OA
ATOM     26  N   UNL     1      -3.138  -0.660   7.679  0.00  0.00    -0.215 N 
ATOM     27  C   UNL     1      -2.480  -0.125   8.714  0.00  0.00    +0.310 C 
ATOM     28  O   UNL     1      -1.396   0.416   8.618  0.00  0.00    -0.252 OA
ATOM     29  N   UNL     1      -3.154  -0.251   9.871  0.00  0.00    -0.279 N 
ATOM     30  H   UNL     1      -2.870   0.064  10.744  0.00  0.00    +0.152 HD
BRANCH  23  31
ATOM     31  C   UNL     1      -4.472  -2.273  10.297  0.00  0.00    +0.137 A 
ATOM     32  C   UNL     1      -4.004  -2.501  11.538  0.00  0.00    +0.047 A 
ATOM     33  C   UNL     1      -4.280  -3.855  11.837  0.00  0.00    +0.041 A 
ATOM     34  C   UNL     1      -4.892  -4.376  10.759  0.00  0.00    +0.195 A 
ATOM     35  O   UNL     1      -5.006  -3.414   9.829  0.00  0.00    -0.465 OA
ENDBRANCH  23  31
ENDBRANCH  21  26
ENDBRANCH   1  21
TORSDOF 5
