REMARK  Name = ZINC19830926
REMARK  9 active torsions:
REMARK  status: ('A' for Active; 'I' for Inactive)
REMARK    1  A    between atoms: C_1  and  C_2
REMARK    2  A    between atoms: C_2  and  O_3
REMARK    3  A    between atoms: O_3  and  C_4
REMARK    4  A    between atoms: C_7  and  C_10
REMARK    5  A    between atoms: C_11  and  C_30
REMARK    6  A    between atoms: C_12  and  N_29
REMARK    7  A    between atoms: C_16  and  N_28
REMARK    8  A    between atoms: C_17  and  C_19
REMARK    9  A    between atoms: C_19  and  C_21
REMARK                            x       y       z     vdW  Elec       q    Type
REMARK                         _______ _______ _______ _____ _____    ______ ____
ROOT
ATOM      1  C   UNL     1       1.285   2.635  -1.544  0.00  0.00    +0.014 A 
ATOM      2  C   UNL     1       0.068   1.992  -1.812  0.00  0.00    +0.100 A 
ATOM      3  C   UNL     1      -1.143   2.697  -1.665  0.00  0.00    +0.136 A 
ATOM      4  N   UNL     1      -1.133   3.959  -1.265  0.00  0.00    -0.224 NA
ATOM      5  C   UNL     1      -0.012   4.599  -1.004  0.00  0.00    +0.113 A 
ATOM      6  C   UNL     1       1.262   3.997  -1.121  0.00  0.00    +0.038 A 
ATOM      7  C   UNL     1       2.385   4.856  -0.791  0.00  0.00    +0.053 A 
ATOM      8  C   UNL     1       2.122   6.157  -0.400  0.00  0.00    +0.083 A 
ATOM      9  S   UNL     1       0.344   6.255  -0.467  0.00  0.00    -0.063 S 
ENDROOT
BRANCH   1  13
ATOM     10  C   UNL     1       4.969   0.565  -1.985  0.00  0.00    +0.121 A 
ATOM     11  C   UNL     1       4.219   0.892  -3.108  0.00  0.00    +0.046 A 
ATOM     12  C   UNL     1       3.024   1.563  -2.970  0.00  0.00    +0.012 A 
ATOM     13  C   UNL     1       2.566   1.915  -1.698  0.00  0.00    -0.016 A 
ATOM     14  C   UNL     1       3.326   1.590  -0.572  0.00  0.00    +0.012 A 
ATOM     15  C   UNL     1       4.517   0.914  -0.718  0.00  0.00    +0.046 A 
BRANCH  10  16
ATOM     16  O   UNL     1       6.146  -0.097  -2.126  0.00  0.00    -0.492 OA
BRANCH  16  18
ATOM     17  C   UNL     1       8.157  -1.142  -1.286  0.00  0.00    +0.048 C 
ATOM     18  C   UNL     1       6.866  -0.401  -0.929  0.00  0.00    +0.225 C 
ENDBRANCH  16  18
ENDBRANCH  10  16
ENDBRANCH   1  13
BRANCH   7  19
ATOM     19  N   UNL     1       3.686   4.385  -0.865  0.00  0.00    -0.356 N 
ATOM     20  H   UNL     1       4.527   5.048  -0.612  0.00  0.00    +0.142 HD
ATOM     21  H   UNL     1       3.879   3.348  -1.178  0.00  0.00    +0.142 HD
ENDBRANCH   7  19
BRANCH   3  22
ATOM     22  N   UNL     1      -2.344   2.068  -1.933  0.00  0.00    -0.342 N 
ATOM     23  H   UNL     1      -3.290   2.617  -1.818  0.00  0.00    +0.144 HD
ATOM     24  H   UNL     1      -2.353   1.018  -2.260  0.00  0.00    +0.144 HD
ENDBRANCH   3  22
BRANCH   8  25
ATOM     25  C   UNL     1       3.042   7.164  -0.035  0.00  0.00    +0.202 C 
ATOM     26  O   UNL     1       4.226   6.898   0.074  0.00  0.00    -0.286 OA
BRANCH  25  27
ATOM     27  C   UNL     1       2.568   8.543   0.216  0.00  0.00    +0.023 A 
ATOM     28  C   UNL     1       1.386   8.995  -0.374  0.00  0.00    +0.013 A 
ATOM     29  C   UNL     1       0.946  10.280  -0.133  0.00  0.00    +0.021 A 
ATOM     30  C   UNL     1       1.680  11.124   0.683  0.00  0.00    +0.041 A 
ATOM     31  C   UNL     1       2.856  10.683   1.267  0.00  0.00    +0.021 A 
ATOM     32  C   UNL     1       3.303   9.399   1.038  0.00  0.00    +0.013 A 
ATOM     33 CL   UNL     1       1.124  12.743   0.977  0.00  0.00    -0.084 Cl
ENDBRANCH  25  27
ENDBRANCH   8  25
BRANCH   2  34
ATOM     34  C   UNL     1       0.056   0.625  -2.239  0.00  0.00    +0.103 C 
ATOM     35  N   UNL     1       0.047  -0.459  -2.578  0.00  0.00    -0.191 NA
ENDBRANCH   2  34
TORSDOF 8
