REMARK  Name = ZINC20759650
REMARK  10 active torsions:
REMARK  status: ('A' for Active; 'I' for Inactive)
REMARK    1  A    between atoms: C_1  and  C_2
REMARK    2  A    between atoms: C_2  and  C_3
REMARK    3  A    between atoms: C_16  and  C_19
REMARK    4  A    between atoms: N_23  and  C_26
REMARK    5  A    between atoms: C_26  and  C_27
REMARK    6  A    between atoms: C_27  and  C_28
REMARK    7  A    between atoms: C_31  and  O_36
REMARK    8  A    between atoms: C_32  and  O_34
REMARK    9  A    between atoms: O_34  and  C_35
REMARK   10  A    between atoms: O_36  and  C_37
REMARK                            x       y       z     vdW  Elec       q    Type
REMARK                         _______ _______ _______ _____ _____    ______ ____
ROOT
ATOM      1  C   UNL     1      -4.142   0.562   0.193  0.00  0.00    +0.073 A 
ATOM      2  C   UNL     1      -5.244   1.294   0.522  0.00  0.00    +0.260 A 
ATOM      3  N   UNL     1      -5.781   2.157  -0.400  0.00  0.00    -0.275 N 
ATOM      4  C   UNL     1      -5.228   2.281  -1.620  0.00  0.00    +0.332 A 
ATOM      5  N   UNL     1      -4.140   1.567  -1.964  0.00  0.00    -0.260 N 
ATOM      6  C   UNL     1      -3.577   0.714  -1.086  0.00  0.00    +0.262 A 
ATOM      7  O   UNL     1      -2.589   0.073  -1.400  0.00  0.00    -0.267 OA
ATOM      8  O   UNL     1      -5.718   3.050  -2.425  0.00  0.00    -0.246 OA
ATOM      9  O   UNL     1      -5.802   1.172   1.745  0.00  0.00    -0.267 OA
ATOM     10  H   UNL     1      -6.565   2.680  -0.171  0.00  0.00    +0.173 HD
ENDROOT
BRANCH   1  23
ATOM     11  C   UNL     1      -1.322   0.546   0.979  0.00  0.00    -0.066 C 
ATOM     12  C   UNL     1      -0.611  -0.769   0.626  0.00  0.00    +0.022 C 
ATOM     13  C   UNL     1      -1.665  -1.766   0.215  0.00  0.00    -0.022 A 
ATOM     14  C   UNL     1      -1.519  -3.024  -0.482  0.00  0.00    +0.003 A 
ATOM     15  C   UNL     1      -0.409  -3.709  -0.987  0.00  0.00    +0.010 A 
ATOM     16  C   UNL     1      -0.650  -4.910  -1.607  0.00  0.00    +0.001 A 
ATOM     17  C   UNL     1      -1.927  -5.430  -1.735  0.00  0.00    +0.002 A 
ATOM     18  C   UNL     1      -3.044  -4.774  -1.246  0.00  0.00    +0.026 A 
ATOM     19  C   UNL     1      -2.830  -3.552  -0.611  0.00  0.00    +0.047 A 
ATOM     20  N   UNL     1      -3.687  -2.662  -0.028  0.00  0.00    -0.359 N 
ATOM     21  H   UNL     1      -4.650  -2.769   0.028  0.00  0.00    +0.166 HD
ATOM     22  C   UNL     1      -2.984  -1.597   0.465  0.00  0.00    +0.011 A 
ATOM     23  C   UNL     1      -3.533  -0.392   1.189  0.00  0.00    +0.018 C 
ATOM     24  N   UNL     1      -2.431   0.271   1.902  0.00  0.00    +0.390 N 
ATOM     25  H   UNL     1      -2.106  -0.328   2.646  0.00  0.00    -0.084 HD
ATOM     26  H   UNL     1      -2.761   1.140   2.295  0.00  0.00    -0.084 HD
BRANCH  11  28
ATOM     27  C   UNL     1      -1.001   2.853   1.882  0.00  0.00    +0.002 C 
ATOM     28  C   UNL     1      -0.328   1.500   1.644  0.00  0.00    -0.019 C 
ENDBRANCH  11  28
ENDBRANCH   1  23
BRANCH   5  29
ATOM     29  C   UNL     1      -3.560   1.723  -3.300  0.00  0.00    +0.134 C 
BRANCH  29  30
ATOM     30  C   UNL     1      -2.509   2.834  -3.273  0.00  0.00    +0.057 C 
BRANCH  30  31
ATOM     31  C   UNL     1      -1.913   2.995  -4.648  0.00  0.00    -0.042 A 
ATOM     32  C   UNL     1      -0.799   2.259  -5.006  0.00  0.00    +0.007 A 
ATOM     33  C   UNL     1      -0.248   2.402  -6.266  0.00  0.00    +0.049 A 
ATOM     34  C   UNL     1      -0.812   3.285  -7.173  0.00  0.00    +0.161 A 
ATOM     35  C   UNL     1      -1.933   4.026  -6.812  0.00  0.00    +0.162 A 
ATOM     36  C   UNL     1      -2.484   3.873  -5.549  0.00  0.00    +0.053 A 
BRANCH  35  37
ATOM     37  O   UNL     1      -2.491   4.894  -7.698  0.00  0.00    -0.491 OA
ATOM     38  C   UNL     1      -3.640   5.620  -7.259  0.00  0.00    +0.277 C 
ENDBRANCH  35  37
BRANCH  34  39
ATOM     39  O   UNL     1      -0.271   3.428  -8.412  0.00  0.00    -0.491 OA
ATOM     40  C   UNL     1       0.880   2.636  -8.713  0.00  0.00    +0.277 C 
ENDBRANCH  34  39
ENDBRANCH  30  31
ENDBRANCH  29  30
ENDBRANCH   5  29
TORSDOF 7
