REMARK  Name = ZINC10332121
REMARK  9 active torsions:
REMARK  status: ('A' for Active; 'I' for Inactive)
REMARK    1  A    between atoms: C_4  and  C_7
REMARK    2  A    between atoms: C_7  and  C_8
REMARK    3  A    between atoms: C_8  and  O_9
REMARK    4  A    between atoms: O_9  and  C_10
REMARK    5  A    between atoms: C_14  and  C_16
REMARK    6  A    between atoms: N_18  and  C_19
REMARK    7  A    between atoms: C_19  and  N_21
REMARK    8  A    between atoms: N_21  and  C_22
REMARK    9  A    between atoms: C_25  and  C_28
REMARK                            x       y       z     vdW  Elec       q    Type
REMARK                         _______ _______ _______ _____ _____    ______ ____
ROOT
ATOM      1  C   UNL     1      -0.039   1.327  -0.521  0.00  0.00    +0.250 C 
ATOM      2  O   UNL     1      -0.015   0.135  -0.756  0.00  0.00    -0.270 OA
ATOM      3  N   UNL     1      -1.209   1.938  -0.251  0.00  0.00    -0.264 N 
ATOM      4  H   UNL     1      -1.228   2.889  -0.063  0.00  0.00    +0.157 HD
ENDROOT
BRANCH   1   9
ATOM      5  C   UNL     1       3.600   2.218  -0.835  0.00  0.00    +0.121 A 
ATOM      6  C   UNL     1       3.566   3.580  -0.566  0.00  0.00    +0.046 A 
ATOM      7  C   UNL     1       2.365   4.205  -0.284  0.00  0.00    +0.004 A 
ATOM      8  C   UNL     1       1.191   3.479  -0.272  0.00  0.00    +0.013 A 
ATOM      9  C   UNL     1       1.216   2.108  -0.537  0.00  0.00    +0.041 A 
ATOM     10  C   UNL     1       2.429   1.480  -0.822  0.00  0.00    +0.058 A 
BRANCH   5  11
ATOM     11  O   UNL     1       4.783   1.610  -1.113  0.00  0.00    -0.492 OA
BRANCH  11  12
ATOM     12  C   UNL     1       5.952   2.433  -1.110  0.00  0.00    +0.233 C 
BRANCH  12  13
ATOM     13  C   UNL     1       7.177   1.579  -1.441  0.00  0.00    +0.076 C 
BRANCH  13  17
ATOM     14  C   UNL     1      10.671   4.037  -1.432  0.00  0.00    +0.000 A 
ATOM     15  C   UNL     1      10.262   3.413  -0.268  0.00  0.00    +0.000 A 
ATOM     16  C   UNL     1       9.131   2.617  -0.271  0.00  0.00    +0.004 A 
ATOM     17  C   UNL     1       8.409   2.446  -1.438  0.00  0.00    -0.044 A 
ATOM     18  C   UNL     1       8.821   3.067  -2.602  0.00  0.00    +0.004 A 
ATOM     19  C   UNL     1       9.949   3.866  -2.598  0.00  0.00    +0.000 A 
ENDBRANCH  13  17
ENDBRANCH  12  13
ENDBRANCH  11  12
ENDBRANCH   5  11
ENDBRANCH   1   9
BRANCH   3  20
ATOM     20  C   UNL     1      -2.354   1.227  -0.241  0.00  0.00    +0.141 C 
ATOM     21  S   UNL     1      -2.321  -0.453  -0.573  0.00  0.00    -0.018 S 
BRANCH  20  22
ATOM     22  N   UNL     1      -3.525   1.837   0.029  0.00  0.00    -0.297 N 
ATOM     23  H   UNL     1      -3.535   2.770   0.295  0.00  0.00    +0.154 HD
BRANCH  22  24
ATOM     24  C   UNL     1      -4.720   1.129  -0.075  0.00  0.00    +0.033 A 
ATOM     25  C   UNL     1      -4.926   0.268  -1.148  0.00  0.00    +0.024 A 
ATOM     26  C   UNL     1      -6.104  -0.437  -1.251  0.00  0.00    +0.015 A 
ATOM     27  C   UNL     1      -7.098  -0.280  -0.280  0.00  0.00    +0.037 A 
ATOM     28  C   UNL     1      -6.890   0.590   0.794  0.00  0.00    +0.015 A 
ATOM     29  C   UNL     1      -5.708   1.288   0.893  0.00  0.00    +0.024 A 
BRANCH  27  30
ATOM     30  C   UNL     1      -8.364  -1.030  -0.390  0.00  0.00    +0.242 C 
ATOM     31  O   UNL     1      -9.227  -0.893   0.455  0.00  0.00    -0.270 OA
ATOM     32  N   UNL     1      -8.563  -1.869  -1.426  0.00  0.00    -0.325 N 
ATOM     33  H   UNL     1      -7.874  -1.979  -2.100  0.00  0.00    +0.145 HD
ATOM     34  H   UNL     1      -9.395  -2.362  -1.498  0.00  0.00    +0.145 HD
ENDBRANCH  27  30
ENDBRANCH  22  24
ENDBRANCH  20  22
ENDBRANCH   3  20
TORSDOF 9
