REMARK  Name = ZINC14029975
REMARK  10 active torsions:
REMARK  status: ('A' for Active; 'I' for Inactive)
REMARK    1  A    between atoms: C_1  and  C_2
REMARK    2  A    between atoms: C_2  and  C_3
REMARK    3  A    between atoms: C_3  and  C_4
REMARK    4  A    between atoms: C_4  and  O_5
REMARK    5  A    between atoms: O_5  and  C_6
REMARK    6  A    between atoms: C_9  and  C_12
REMARK    7  A    between atoms: N_14  and  C_15
REMARK    8  A    between atoms: C_15  and  N_17
REMARK    9  A    between atoms: N_17  and  C_18
REMARK   10  A    between atoms: C_19  and  C_27
REMARK                            x       y       z     vdW  Elec       q    Type
REMARK                         _______ _______ _______ _____ _____    ______ ____
ROOT
ATOM      1  C   UNL     1       2.449  -4.161  -0.043  0.00  0.00    +0.141 C 
ATOM      2  S   UNL     1       0.981  -5.042  -0.033  0.00  0.00    -0.018 S 
ENDROOT
BRANCH   1   5
ATOM      3  C   UNL     1       1.248  -2.159  -0.021  0.00  0.00    +0.250 C 
ATOM      4  O   UNL     1       0.205  -2.785  -0.014  0.00  0.00    -0.270 OA
ATOM      5  N   UNL     1       2.426  -2.814  -0.036  0.00  0.00    -0.264 N 
ATOM      6  H   UNL     1       3.258  -2.314  -0.041  0.00  0.00    +0.157 HD
BRANCH   3  10
ATOM      7  C   UNL     1       1.177   2.086   0.002  0.00  0.00    +0.121 A 
ATOM      8  C   UNL     1      -0.017   1.373   0.010  0.00  0.00    +0.046 A 
ATOM      9  C   UNL     1       0.002  -0.004   0.002  0.00  0.00    +0.016 A 
ATOM     10  C   UNL     1       1.223  -0.684  -0.013  0.00  0.00    +0.037 A 
ATOM     11  C   UNL     1       2.420   0.037  -0.021  0.00  0.00    +0.016 A 
ATOM     12  C   UNL     1       2.393   1.413  -0.013  0.00  0.00    +0.046 A 
BRANCH   7  13
ATOM     13  O   UNL     1       1.154   3.443   0.009  0.00  0.00    -0.492 OA
BRANCH  13  14
ATOM     14  C   UNL     1       2.416   4.113   0.001  0.00  0.00    +0.229 C 
BRANCH  14  15
ATOM     15  C   UNL     1       2.190   5.626   0.011  0.00  0.00    +0.041 C 
BRANCH  15  17
ATOM     16  C   UNL     1       3.316   7.857   0.011  0.00  0.00    +0.004 C 
ATOM     17  C   UNL     1       3.541   6.343   0.002  0.00  0.00    -0.000 C 
ENDBRANCH  15  17
ENDBRANCH  14  15
ENDBRANCH  13  14
ENDBRANCH   7  13
ENDBRANCH   3  10
ENDBRANCH   1   5
BRANCH   1  18
ATOM     18  N   UNL     1       3.627  -4.815  -0.058  0.00  0.00    -0.291 N 
ATOM     19  H   UNL     1       4.459  -4.316  -0.063  0.00  0.00    +0.154 HD
BRANCH  18  20
ATOM     20  C   UNL     1       3.650  -6.201  -0.065  0.00  0.00    +0.084 A 
ATOM     21  C   UNL     1       4.752  -7.045  -0.086  0.00  0.00    +0.068 A 
ATOM     22  C   UNL     1       4.501  -8.476  -0.086  0.00  0.00    -0.023 A 
ATOM     23  C   UNL     1       3.198  -8.832  -0.075  0.00  0.00    -0.004 A 
ATOM     24  S   UNL     1       2.311  -7.300  -0.058  0.00  0.00    -0.077 S 
ATOM     25  C   UNL     1       2.641 -10.222  -0.078  0.00  0.00    +0.043 C 
ATOM     26  C   UNL     1       3.764 -11.192  -0.473  0.00  0.00    +0.005 C 
ATOM     27  C   UNL     1       5.012 -10.865   0.354  0.00  0.00    +0.005 C 
ATOM     28  C   UNL     1       5.602  -9.530  -0.101  0.00  0.00    +0.037 C 
BRANCH  21  29
ATOM     29  C   UNL     1       6.117  -6.512  -0.103  0.00  0.00    +0.244 C 
ATOM     30  O   UNL     1       6.700  -6.297   0.943  0.00  0.00    -0.270 OA
ATOM     31  N   UNL     1       6.728  -6.261  -1.278  0.00  0.00    -0.325 N 
ATOM     32  H   UNL     1       6.263  -6.433  -2.112  0.00  0.00    +0.145 HD
ATOM     33  H   UNL     1       7.631  -5.909  -1.290  0.00  0.00    +0.145 HD
ENDBRANCH  21  29
ENDBRANCH  18  20
ENDBRANCH   1  18
TORSDOF 9
