REMARK  Name = ZINC35938452
REMARK  12 active torsions:
REMARK  status: ('A' for Active; 'I' for Inactive)
REMARK    1  A    between atoms: C_1  and  C_2
REMARK    2  A    between atoms: C_2  and  C_3
REMARK    3  A    between atoms: C_3  and  N_4
REMARK    4  A    between atoms: N_4  and  C_5
REMARK    5  A    between atoms: N_4  and  S_26
REMARK    6  A    between atoms: C_5  and  C_6
REMARK    7  A    between atoms: C_7  and  C_25
REMARK    8  A    between atoms: N_9  and  C_19
REMARK    9  A    between atoms: C_10  and  N_11
REMARK   10  A    between atoms: N_14  and  C_17
REMARK   11  A    between atoms: C_17  and  C_18
REMARK   12  A    between atoms: S_26  and  C_29
REMARK                            x       y       z     vdW  Elec       q    Type
REMARK                         _______ _______ _______ _____ _____    ______ ____
ROOT
ATOM      1  C   UNL     1      -1.811  -4.236   2.289  0.00  0.00    +0.031 A 
ATOM      2  C   UNL     1      -2.811  -3.425   2.833  0.00  0.00    +0.067 A 
ATOM      3  N   UNL     1      -3.904  -4.135   2.950  0.00  0.00    -0.170 NA
ATOM      4  N   UNL     1      -3.642  -5.430   2.484  0.00  0.00    -0.218 N 
ATOM      5  C   UNL     1      -2.344  -5.470   2.075  0.00  0.00    +0.129 A 
ATOM      6  C   UNL     1      -2.657  -1.976   3.220  0.00  0.00    +0.068 C 
ENDROOT
BRANCH   5   7
ATOM      7  N   UNL     1      -1.683  -6.571   1.538  0.00  0.00    -0.318 N 
ATOM      8  C   UNL     1      -0.859  -7.445   2.387  0.00  0.00    +0.088 C 
ATOM      9  C   UNL     1      -1.281  -8.898   2.142  0.00  0.00    -0.060 C 
ATOM     10  N   UNL     1      -1.199  -9.195   0.707  0.00  0.00    +0.382 N 
ATOM     11  C   UNL     1      -2.167  -8.373  -0.030  0.00  0.00    -0.060 C 
ATOM     12  C   UNL     1      -1.794  -6.897   0.108  0.00  0.00    +0.088 C 
ATOM     13  H   UNL     1      -0.267  -8.993   0.375  0.00  0.00    -0.082 HD
BRANCH  10  14
ATOM     14  C   UNL     1      -1.496 -10.616   0.484  0.00  0.00    -0.082 C 
ATOM     15  C   UNL     1      -1.290 -10.955  -0.993  0.00  0.00    -0.017 C 
ENDBRANCH  10  14
ENDBRANCH   5   7
BRANCH   4  16
ATOM     16  C   UNL     1      -4.554  -6.493   2.441  0.00  0.00    +0.067 A 
ATOM     17  C   UNL     1      -4.733  -7.210   1.266  0.00  0.00    +0.028 A 
ATOM     18  C   UNL     1      -5.633  -8.257   1.227  0.00  0.00    +0.002 A 
ATOM     19  C   UNL     1      -6.356  -8.591   2.357  0.00  0.00    +0.000 A 
ATOM     20  C   UNL     1      -6.180  -7.879   3.529  0.00  0.00    +0.002 A 
ATOM     21  C   UNL     1      -5.278  -6.835   3.576  0.00  0.00    +0.028 A 
ENDBRANCH   4  16
BRANCH   1  22
ATOM     22  C   UNL     1      -0.395  -3.816   1.988  0.00  0.00    +0.149 C 
BRANCH  22  23
ATOM     23  N   UNL     1      -0.308  -3.350   0.601  0.00  0.00    -0.172 NA
BRANCH  23  24
ATOM     24  S   UNL     1       0.690  -4.123  -0.471  0.00  0.00    +0.062 S 
ATOM     25  O   UNL     1       1.031  -5.370   0.118  0.00  0.00    -0.153 OA
ATOM     26  O   UNL     1       0.070  -4.026  -1.746  0.00  0.00    -0.153 OA
BRANCH  24  27
ATOM     27  C   UNL     1       2.180  -3.186  -0.562  0.00  0.00    +0.113 A 
ATOM     28  C   UNL     1       3.301  -3.620   0.075  0.00  0.00    +0.029 A 
ATOM     29  C   UNL     1       4.489  -2.893   0.014  0.00  0.00    +0.003 A 
ATOM     30  C   UNL     1       4.561  -1.727  -0.685  0.00  0.00    +0.008 A 
ATOM     31  C   UNL     1       3.424  -1.247  -1.357  0.00  0.00    -0.016 A 
ATOM     32  C   UNL     1       2.218  -1.990  -1.299  0.00  0.00    +0.008 A 
ATOM     33  C   UNL     1       1.082  -1.513  -1.976  0.00  0.00    +0.010 A 
ATOM     34  C   UNL     1       1.157  -0.351  -2.680  0.00  0.00    +0.001 A 
ATOM     35  C   UNL     1       2.344   0.376  -2.741  0.00  0.00    +0.001 A 
ATOM     36  C   UNL     1       3.460  -0.048  -2.088  0.00  0.00    +0.008 A 
ENDBRANCH  24  27
ENDBRANCH  23  24
BRANCH  23  37
ATOM     37  C   UNL     1      -1.105  -2.202   0.164  0.00  0.00    +0.109 C 
BRANCH  37  39
ATOM     38  C   UNL     1      -1.395   0.271   0.369  0.00  0.00    +0.005 C 
ATOM     39  C   UNL     1      -0.641  -0.947   0.906  0.00  0.00    +0.014 C 
ENDBRANCH  37  39
ENDBRANCH  23  37
ENDBRANCH  22  23
ENDBRANCH   1  22
TORSDOF 9
