REMARK  Name = ZINC15568940
REMARK  8 active torsions:
REMARK  status: ('A' for Active; 'I' for Inactive)
REMARK    1  A    between atoms: C_1  and  C_2
REMARK    2  A    between atoms: C_4  and  O_31
REMARK    3  A    between atoms: C_14  and  C_15
REMARK    4  A    between atoms: C_14  and  O_20
REMARK    5  A    between atoms: C_15  and  C_17
REMARK    6  A    between atoms: C_15  and  O_19
REMARK    7  A    between atoms: C_17  and  O_18
REMARK    8  A    between atoms: C_29  and  C_30
REMARK                            x       y       z     vdW  Elec       q    Type
REMARK                         _______ _______ _______ _____ _____    ______ ____
ROOT
ATOM      1  C   UNL     1      -1.047   1.486  -0.269  0.00  0.00    +0.014 C 
ATOM      2  C   UNL     1      -1.121  -0.042  -0.280  0.00  0.00    +0.005 C 
ATOM      3  C   UNL     1      -2.455  -0.496   0.281  0.00  0.00    +0.041 C 
ATOM      4  C   UNL     1      -2.610   0.151   1.666  0.00  0.00    +0.120 C 
ATOM      5  C   UNL     1      -1.456  -0.219   2.594  0.00  0.00    +0.035 C 
ATOM      6  C   UNL     1      -0.095   0.130   1.971  0.00  0.00    -0.000 C 
ATOM      7  C   UNL     1      -0.016  -0.629   0.638  0.00  0.00    +0.001 C 
ATOM      8  C   UNL     1       1.247  -0.371  -0.191  0.00  0.00    +0.007 C 
ATOM      9  C   UNL     1       0.795  -0.731  -1.633  0.00  0.00    +0.038 C 
ATOM     10  C   UNL     1      -0.746  -0.568  -1.661  0.00  0.00    +0.100 C 
ATOM     11  C   UNL     1       1.028  -0.322   2.906  0.00  0.00    +0.008 C 
ATOM     12  C   UNL     1       0.950   0.461   4.221  0.00  0.00    +0.032 C 
ATOM     13  C   UNL     1      -0.442   0.278   4.797  0.00  0.00    -0.056 C 
ATOM     14  C   UNL     1      -0.568  -0.113   6.057  0.00  0.00    +0.051 C 
ATOM     15  C   UNL     1      -1.900  -0.322   6.646  0.00  0.00    +0.179 C 
ATOM     16  O   UNL     1      -2.021  -0.640   7.814  0.00  0.00    -0.288 OA
ATOM     17  C   UNL     1      -3.083  -0.138   5.789  0.00  0.00    +0.047 C 
ATOM     18  C   UNL     1      -2.934   0.260   4.536  0.00  0.00    -0.012 C 
ATOM     19  C   UNL     1      -1.594   0.556   3.908  0.00  0.00    +0.013 C 
ATOM     20  C   UNL     1      -1.561   2.049   3.573  0.00  0.00    +0.020 C 
ENDROOT
BRANCH  10  21
ATOM     21  O   UNL     1      -1.372  -1.831  -1.897  0.00  0.00    -0.385 OA
ATOM     22  H   UNL     1      -1.170  -2.215  -2.761  0.00  0.00    +0.210 HD
ENDBRANCH  10  21
BRANCH   4  23
ATOM     23  O   UNL     1      -2.648   1.571   1.516  0.00  0.00    -0.391 OA
ATOM     24  H   UNL     1      -3.377   1.889   0.965  0.00  0.00    +0.210 HD
ENDBRANCH   4  23
BRANCH  10  25
ATOM     25  C   UNL     1      -1.153   0.437  -2.740  0.00  0.00    +0.172 C 
BRANCH  25  26
ATOM     26  O   UNL     1      -0.480   1.677  -2.514  0.00  0.00    -0.387 OA
ATOM     27  H   UNL     1       0.485   1.611  -2.535  0.00  0.00    +0.210 HD
ENDBRANCH  25  26
BRANCH  25  28
ATOM     28  C   UNL     1      -0.768  -0.109  -4.117  0.00  0.00    +0.190 C 
BRANCH  28  29
ATOM     29  O   UNL     1      -1.251   0.774  -5.131  0.00  0.00    -0.392 OA
ATOM     30  H   UNL     1      -1.043   0.490  -6.032  0.00  0.00    +0.210 HD
ENDBRANCH  28  29
ENDBRANCH  25  28
ENDBRANCH  10  25
TORSDOF 6
