REMARK  Name = ZINC03104100
REMARK  6 active torsions:
REMARK  status: ('A' for Active; 'I' for Inactive)
REMARK    1  A    between atoms: C_8  and  N_22
REMARK    2  A    between atoms: C_9  and  N_11
REMARK    3  A    between atoms: N_11  and  S_12
REMARK    4  A    between atoms: S_12  and  C_15
REMARK    5  A    between atoms: N_22  and  C_23
REMARK    6  A    between atoms: C_27  and  N_29
REMARK                            x       y       z     vdW  Elec       q    Type
REMARK                         _______ _______ _______ _____ _____    ______ ____
ROOT
ATOM      1  C   UNL     1       5.817   6.029   0.295  0.00  0.00    +0.002 A 
ATOM      2  C   UNL     1       5.793   7.417   0.408  0.00  0.00    +0.002 A 
ATOM      3  C   UNL     1       4.613   8.097   0.423  0.00  0.00    +0.030 A 
ATOM      4  C   UNL     1       3.402   7.394   0.324  0.00  0.00    +0.091 A 
ATOM      5  C   UNL     1       3.426   5.983   0.209  0.00  0.00    +0.091 A 
ATOM      6  C   UNL     1       4.662   5.315   0.197  0.00  0.00    +0.030 A 
ATOM      7  N   UNL     1       2.275   5.301   0.120  0.00  0.00    -0.227 NA
ATOM      8  C   UNL     1       1.129   5.949   0.129  0.00  0.00    +0.165 A 
ATOM      9  C   UNL     1       1.104   7.360   0.244  0.00  0.00    +0.179 A 
ATOM     10  N   UNL     1       2.227   8.041   0.337  0.00  0.00    -0.226 NA
ENDROOT
BRANCH   9  11
ATOM     11  N   UNL     1      -0.111   8.029   0.258  0.00  0.00    -0.197 N 
ATOM     12  H   UNL     1      -0.940   7.530   0.189  0.00  0.00    +0.175 HD
BRANCH  11  13
ATOM     13  S   UNL     1      -0.145   9.679   0.392  0.00  0.00    +0.074 S 
ATOM     14  O   UNL     1      -1.513  10.061   0.350  0.00  0.00    -0.150 OA
ATOM     15  O   UNL     1       0.707  10.017   1.477  0.00  0.00    -0.150 OA
BRANCH  13  16
ATOM     16  C   UNL     1       0.605  10.336  -1.061  0.00  0.00    +0.109 A 
ATOM     17  C   UNL     1       1.966  10.577  -1.087  0.00  0.00    +0.030 A 
ATOM     18  C   UNL     1       2.557  11.087  -2.228  0.00  0.00    +0.022 A 
ATOM     19  C   UNL     1       1.784  11.366  -3.340  0.00  0.00    +0.041 A 
ATOM     20  C   UNL     1       0.421  11.130  -3.312  0.00  0.00    +0.022 A 
ATOM     21  C   UNL     1      -0.168  10.615  -2.172  0.00  0.00    +0.030 A 
ATOM     22 CL   UNL     1       2.523  12.012  -4.772  0.00  0.00    -0.084 Cl
ENDBRANCH  13  16
ENDBRANCH  11  13
ENDBRANCH   9  11
BRANCH   8  23
ATOM     23  N   UNL     1      -0.063   5.245   0.031  0.00  0.00    -0.297 N 
ATOM     24  H   UNL     1      -0.910   5.708   0.124  0.00  0.00    +0.154 HD
BRANCH  23  25
ATOM     25  C   UNL     1      -0.042   3.867  -0.201  0.00  0.00    +0.034 A 
ATOM     26  C   UNL     1       0.908   3.319  -1.055  0.00  0.00    +0.023 A 
ATOM     27  C   UNL     1       0.929   1.957  -1.284  0.00  0.00    +0.004 A 
ATOM     28  C   UNL     1       0.006   1.135  -0.667  0.00  0.00    +0.023 A 
ATOM     29  C   UNL     1      -0.950   1.677   0.183  0.00  0.00    +0.026 A 
ATOM     30  C   UNL     1      -0.971   3.044   0.421  0.00  0.00    +0.046 A 
BRANCH  29  31
ATOM     31  N   UNL     1      -1.887   0.845   0.802  0.00  0.00    -0.358 N 
ATOM     32  H   UNL     1      -1.870  -0.111   0.638  0.00  0.00    +0.142 HD
ATOM     33  H   UNL     1      -2.554   1.224   1.395  0.00  0.00    +0.142 HD
ENDBRANCH  29  31
ENDBRANCH  23  25
ENDBRANCH   8  23
TORSDOF 6
