REMARK  Name = ZINC20218264
REMARK  5 active torsions:
REMARK  status: ('A' for Active; 'I' for Inactive)
REMARK    1  A    between atoms: C_1  and  C_2
REMARK    2  A    between atoms: C_7  and  N_12
REMARK    3  A    between atoms: C_9  and  C_11
REMARK    4  A    between atoms: C_16  and  C_18
REMARK    5  A    between atoms: C_19  and  C_20
REMARK                            x       y       z     vdW  Elec       q    Type
REMARK                         _______ _______ _______ _____ _____    ______ ____
ROOT
ATOM      1  N   UNL     1      -4.793   1.075   0.031  0.00  0.00    -0.296 N 
ATOM      2  C   UNL     1      -3.635   1.765   0.029  0.00  0.00    +0.306 C 
ATOM      3  O   UNL     1      -3.651   2.980   0.036  0.00  0.00    -0.252 OA
ATOM      4  N   UNL     1      -2.459   1.107   0.020  0.00  0.00    -0.237 N 
ATOM      5  C   UNL     1      -1.301   1.796   0.018  0.00  0.00    +0.244 C 
ATOM      6  O   UNL     1      -1.317   3.011   0.025  0.00  0.00    -0.270 OA
ATOM      7  H   UNL     1      -4.778  -0.025   0.025  0.00  0.00    +0.151 HD
ATOM      8  H   UNL     1      -2.444   0.007   0.014  0.00  0.00    +0.159 HD
ENDROOT
BRANCH   1  14
ATOM      9  C   UNL     1      -8.368  -1.276   0.427  0.00  0.00    +0.008 C 
ATOM     10  C   UNL     1      -7.287  -0.381  -0.183  0.00  0.00    -0.009 C 
ATOM     11  C   UNL     1      -7.678  -0.014  -1.616  0.00  0.00    +0.003 C 
ATOM     12  C   UNL     1      -6.598   0.881  -2.226  0.00  0.00    +0.002 C 
ATOM     13  C   UNL     1      -6.462   2.157  -1.393  0.00  0.00    +0.022 C 
ATOM     14  C   UNL     1      -6.071   1.790   0.041  0.00  0.00    +0.078 C 
ATOM     15  C   UNL     1      -7.152   0.895   0.650  0.00  0.00    +0.009 C 
ATOM     16  C   UNL     1      -6.761   0.528   2.084  0.00  0.00    +0.009 C 
ENDBRANCH   1  14
BRANCH   5  17
ATOM     17  C   UNL     1      -0.013   1.076   0.008  0.00  0.00    +0.075 C 
ATOM     18  C   UNL     1       1.141   1.763   0.001  0.00  0.00    +0.101 C 
BRANCH  18  19
ATOM     19  C   UNL     1       2.429   1.043  -0.015  0.00  0.00    +0.380 C 
ATOM     20  O   UNL     1       2.445  -0.172  -0.022  0.00  0.00    -0.241 OA
ATOM     21  O   UNL     1       3.587   1.732  -0.023  0.00  0.00    -0.241 OA
ENDBRANCH  18  19
ENDBRANCH   5  17
TORSDOF 3
