REMARK  Name = ZINC48896341
REMARK  4 active torsions:
REMARK  status: ('A' for Active; 'I' for Inactive)
REMARK    1  A    between atoms: C_3  and  N_14
REMARK    2  A    between atoms: C_4  and  C_11
REMARK    3  A    between atoms: C_6  and  S_7
REMARK    4  A    between atoms: S_7  and  N_10
REMARK                            x       y       z     vdW  Elec       q    Type
REMARK                         _______ _______ _______ _____ _____    ______ ____
ROOT
ATOM      1  C   UNL     1      -0.017   1.382   0.010  0.00  0.00    +0.030 A 
ATOM      2  C   UNL     1       1.163   2.098   0.002  0.00  0.00    +0.026 A 
ATOM      3  C   UNL     1       2.382   1.431  -0.013  0.00  0.00    +0.044 A 
ATOM      4  C   UNL     1       2.405   0.025  -0.021  0.00  0.00    +0.086 A 
ATOM      5  C   UNL     1       1.199  -0.684  -0.013  0.00  0.00    +0.045 A 
ATOM      6  C   UNL     1       0.002  -0.004   0.002  0.00  0.00    +0.106 A 
ENDROOT
BRANCH   3   7
ATOM      7  N   UNL     1       3.569   2.148  -0.022  0.00  0.00    -0.328 N 
ATOM      8  C   UNL     1       4.162   2.527  -1.315  0.00  0.00    +0.106 C 
ATOM      9  C   UNL     1       4.710   3.974  -1.416  0.00  0.00    +0.029 C 
ATOM     10  C   UNL     1       3.797   5.002  -0.827  0.00  0.00    +0.071 C 
ATOM     11  S   UNL     1       4.159   5.217   0.955  0.00  0.00    -0.159 S 
ATOM     12  C   UNL     1       3.516   3.790   1.734  0.00  0.00    +0.088 C 
ATOM     13  C   UNL     1       4.173   2.499   1.224  0.00  0.00    +0.116 C 
ENDBRANCH   3   7
BRANCH   6  14
ATOM     14  S   UNL     1      -1.515  -0.901   0.012  0.00  0.00    +0.056 S 
ATOM     15  O   UNL     1      -1.225  -2.182   0.553  0.00  0.00    -0.153 OA
ATOM     16  O   UNL     1      -2.493  -0.038   0.577  0.00  0.00    -0.153 OA
BRANCH  14  17
ATOM     17  N   UNL     1      -1.952  -1.141  -1.567  0.00  0.00    -0.204 NA
ATOM     18  H   UNL     1      -2.462  -1.928  -1.814  0.00  0.00    +0.144 HD
ATOM     19  H   UNL     1      -1.697  -0.495  -2.244  0.00  0.00    +0.144 HD
ENDBRANCH  14  17
ENDBRANCH   6  14
BRANCH   4  20
ATOM     20  C   UNL     1       3.687  -0.694  -0.038  0.00  0.00    +0.388 C 
ATOM     21  O   UNL     1       3.702  -1.917  -0.045  0.00  0.00    -0.241 OA
ATOM     22  O   UNL     1       4.739  -0.069  -0.046  0.00  0.00    -0.241 OA
ENDBRANCH   4  20
TORSDOF 4
