REMARK  Name = ZINC13979099
REMARK  11 active torsions:
REMARK  status: ('A' for Active; 'I' for Inactive)
REMARK    1  A    between atoms: C_1  and  C_2
REMARK    2  A    between atoms: C_2  and  C_3
REMARK    3  A    between atoms: C_2  and  C_4
REMARK    4  A    between atoms: C_4  and  C_5
REMARK    5  A    between atoms: N_7  and  C_8
REMARK    6  A    between atoms: C_11  and  C_14
REMARK    7  A    between atoms: N_16  and  N_17
REMARK    8  A    between atoms: N_17  and  C_18
REMARK    9  A    between atoms: C_18  and  N_20
REMARK   10  A    between atoms: C_21  and  C_23
REMARK   11  A    between atoms: C_24  and  C_25
REMARK                            x       y       z     vdW  Elec       q    Type
REMARK                         _______ _______ _______ _____ _____    ______ ____
ROOT
ATOM      1  C   UNL     1       4.636   4.025  -0.050  0.00  0.00    +0.260 C 
ATOM      2  O   UNL     1       5.699   3.436  -0.072  0.00  0.00    -0.269 OA
ATOM      3  N   UNL     1       3.481   3.331  -0.039  0.00  0.00    -0.231 N 
ATOM      4  H   UNL     1       2.633   3.802  -0.020  0.00  0.00    +0.173 HD
ENDROOT
BRANCH   1   8
ATOM      5  C   UNL     1       4.564   8.271  -0.004  0.00  0.00    +0.033 A 
ATOM      6  C   UNL     1       5.781   7.598  -0.030  0.00  0.00    +0.024 A 
ATOM      7  C   UNL     1       5.808   6.222  -0.045  0.00  0.00    +0.015 A 
ATOM      8  C   UNL     1       4.611   5.501  -0.034  0.00  0.00    +0.038 A 
ATOM      9  C   UNL     1       3.390   6.180  -0.013  0.00  0.00    +0.015 A 
ATOM     10  C   UNL     1       3.370   7.557   0.008  0.00  0.00    +0.024 A 
BRANCH   5  13
ATOM     11  C   UNL     1       5.493  10.348   0.676  0.00  0.00    +0.217 C 
ATOM     12  O   UNL     1       6.418   9.755   1.190  0.00  0.00    -0.275 OA
ATOM     13  N   UNL     1       4.540   9.665   0.012  0.00  0.00    -0.285 N 
ATOM     14  H   UNL     1       3.837  10.144  -0.456  0.00  0.00    +0.155 HD
BRANCH  11  15
ATOM     15  C   UNL     1       5.411  11.850   0.780  0.00  0.00    +0.099 C 
BRANCH  15  17
ATOM     16  C   UNL     1       6.591  13.902   1.578  0.00  0.00    +0.008 C 
ATOM     17  C   UNL     1       6.607  12.372   1.578  0.00  0.00    -0.008 C 
ATOM     18  C   UNL     1       6.521  11.861   3.018  0.00  0.00    +0.008 C 
ENDBRANCH  15  17
ENDBRANCH  11  15
ENDBRANCH   5  13
ENDBRANCH   1   8
BRANCH   3  19
ATOM     19  N   UNL     1       3.505   1.931  -0.053  0.00  0.00    -0.245 N 
ATOM     20  H   UNL     1       4.353   1.460  -0.072  0.00  0.00    +0.172 HD
BRANCH  19  21
ATOM     21  C   UNL     1       2.350   1.237  -0.043  0.00  0.00    +0.153 C 
ATOM     22  S   UNL     1       2.379  -0.475  -0.061  0.00  0.00    -0.017 S 
BRANCH  21  23
ATOM     23  N   UNL     1       1.171   1.890  -0.017  0.00  0.00    -0.263 N 
ATOM     24  C   UNL     1       0.016   1.196  -0.006  0.00  0.00    +0.242 C 
ATOM     25  O   UNL     1       0.037  -0.020  -0.019  0.00  0.00    -0.270 OA
ATOM     26  H   UNL     1       1.155   2.860  -0.007  0.00  0.00    +0.157 HD
BRANCH  24  27
ATOM     27  C   UNL     1      -1.263   1.906   0.015  0.00  0.00    +0.068 C 
ATOM     28  C   UNL     1      -2.420   1.211   0.021  0.00  0.00    +0.013 C 
BRANCH  28  29
ATOM     29  C   UNL     1      -3.706   1.924   0.043  0.00  0.00    -0.025 A 
ATOM     30  C   UNL     1      -3.733   3.323   0.063  0.00  0.00    +0.011 A 
ATOM     31  C   UNL     1      -4.941   3.985   0.080  0.00  0.00    +0.039 A 
ATOM     32  C   UNL     1      -6.129   3.268   0.085  0.00  0.00    +0.123 A 
ATOM     33  C   UNL     1      -6.108   1.881   0.069  0.00  0.00    +0.039 A 
ATOM     34  C   UNL     1      -4.907   1.207   0.048  0.00  0.00    +0.011 A 
ATOM     35  F   UNL     1      -7.310   3.923   0.105  0.00  0.00    -0.205 F 
ENDBRANCH  28  29
ENDBRANCH  24  27
ENDBRANCH  21  23
ENDBRANCH  19  21
ENDBRANCH   3  19
TORSDOF 9
