REMARK  Name = ZINC04096778
REMARK  8 active torsions:
REMARK  status: ('A' for Active; 'I' for Inactive)
REMARK    1  A    between atoms: C_1  and  C_2
REMARK    2  A    between atoms: C_5  and  O_32
REMARK    3  A    between atoms: C_19  and  C_31
REMARK    4  A    between atoms: C_24  and  C_25
REMARK    5  A    between atoms: C_24  and  O_30
REMARK    6  A    between atoms: C_25  and  C_27
REMARK    7  A    between atoms: C_25  and  O_29
REMARK    8  A    between atoms: C_27  and  O_28
REMARK                            x       y       z     vdW  Elec       q    Type
REMARK                         _______ _______ _______ _____ _____    ______ ____
ROOT
ATOM      1  C   UNL     1      -7.026  -2.601   2.731  0.00  0.00    +0.012 C 
ATOM      2  C   UNL     1      -6.468  -3.837   2.033  0.00  0.00    -0.019 C 
ATOM      3  C   UNL     1      -7.488  -4.358   1.018  0.00  0.00    +0.010 C 
ATOM      4  C   UNL     1      -8.755  -4.847   1.715  0.00  0.00    +0.032 C 
ATOM      5  C   UNL     1      -8.425  -5.940   2.729  0.00  0.00    +0.115 C 
ATOM      6  C   UNL     1      -7.427  -5.401   3.757  0.00  0.00    +0.035 C 
ATOM      7  C   UNL     1      -6.159  -4.951   3.039  0.00  0.00    -0.002 C 
ATOM      8  C   UNL     1      -5.098  -4.516   4.045  0.00  0.00    +0.004 C 
ATOM      9  C   UNL     1      -3.802  -4.132   3.318  0.00  0.00    +0.005 C 
ATOM     10  C   UNL     1      -4.117  -3.022   2.322  0.00  0.00    +0.003 C 
ATOM     11  C   UNL     1      -5.155  -3.513   1.317  0.00  0.00    +0.065 C 
ATOM     12  C   UNL     1      -5.300  -2.537   0.187  0.00  0.00    +0.138 C 
ATOM     13  O   UNL     1      -6.381  -2.092  -0.150  0.00  0.00    -0.297 OA
ATOM     14  C   UNL     1      -4.041  -2.096  -0.562  0.00  0.00    +0.084 C 
ATOM     15  C   UNL     1      -2.831  -2.652   0.146  0.00  0.00    +0.009 C 
ATOM     16  C   UNL     1      -2.921  -2.418   1.663  0.00  0.00    +0.002 C 
ATOM     17  C   UNL     1      -1.537  -2.870   2.147  0.00  0.00    +0.007 C 
ATOM     18  C   UNL     1      -0.586  -2.347   1.035  0.00  0.00    +0.038 C 
ATOM     19  C   UNL     1      -1.480  -1.990  -0.181  0.00  0.00    +0.100 C 
ATOM     20  C   UNL     1      -2.658  -4.142  -0.190  0.00  0.00    +0.015 C 
ENDROOT
BRANCH  19  21
ATOM     21  O   UNL     1      -0.941  -2.564  -1.373  0.00  0.00    -0.385 OA
ATOM     22  H   UNL     1      -0.065  -2.231  -1.609  0.00  0.00    +0.210 HD
ENDBRANCH  19  21
BRANCH   5  23
ATOM     23  O   UNL     1      -7.861  -7.067   2.057  0.00  0.00    -0.392 OA
ATOM     24  H   UNL     1      -8.444  -7.463   1.395  0.00  0.00    +0.210 HD
ENDBRANCH   5  23
BRANCH  19  25
ATOM     25  C   UNL     1      -1.601  -0.478  -0.321  0.00  0.00    +0.172 C 
BRANCH  25  26
ATOM     26  O   UNL     1      -2.515  -0.168  -1.375  0.00  0.00    -0.387 OA
ATOM     27  H   UNL     1      -2.251  -0.514  -2.239  0.00  0.00    +0.210 HD
ENDBRANCH  25  26
BRANCH  25  28
ATOM     28  C   UNL     1      -0.228   0.115  -0.645  0.00  0.00    +0.190 C 
BRANCH  28  29
ATOM     29  O   UNL     1      -0.317   1.541  -0.661  0.00  0.00    -0.392 OA
ATOM     30  H   UNL     1       0.518   1.985  -0.861  0.00  0.00    +0.210 HD
ENDBRANCH  28  29
ENDBRANCH  25  28
ENDBRANCH  19  25
TORSDOF 6
