REMARK  Name = ZINC09228771
REMARK  10 active torsions:
REMARK  status: ('A' for Active; 'I' for Inactive)
REMARK    1  A    between atoms: C_1  and  C_2
REMARK    2  A    between atoms: C_6  and  N_8
REMARK    3  A    between atoms: C_9  and  C_28
REMARK    4  A    between atoms: C_11  and  C_14
REMARK    5  A    between atoms: C_12  and  C_13
REMARK    6  A    between atoms: C_14  and  N_15
REMARK    7  A    between atoms: N_18  and  C_19
REMARK    8  A    between atoms: C_21  and  C_27
REMARK    9  A    between atoms: C_24  and  O_25
REMARK   10  A    between atoms: O_25  and  C_26
REMARK                            x       y       z     vdW  Elec       q    Type
REMARK                         _______ _______ _______ _____ _____    ______ ____
ROOT
ATOM      1  C   UNL     1      -0.798   8.553  -1.371  0.00  0.00    +0.143 C 
ENDROOT
BRANCH   1   5
ATOM      2  N   UNL     1      -0.059   5.272   0.081  0.00  0.00    -0.317 N 
ATOM      3  C   UNL     1       0.400   6.079   1.083  0.00  0.00    +0.021 A 
ATOM      4  C   UNL     1       0.210   7.361   0.711  0.00  0.00    +0.028 A 
ATOM      5  C   UNL     1      -0.395   7.347  -0.562  0.00  0.00    -0.009 A 
ATOM      6  C   UNL     1      -0.548   6.057  -0.923  0.00  0.00    +0.026 A 
ATOM      7  C   UNL     1      -1.155   5.566  -2.212  0.00  0.00    +0.064 C 
ATOM      8  C   UNL     1       1.015   5.617   2.379  0.00  0.00    +0.064 C 
BRANCH   2  14
ATOM      9  C   UNL     1       2.512   1.079   0.076  0.00  0.00    +0.044 C 
ATOM     10  C   UNL     1       1.196   1.813   0.084  0.00  0.00    -0.048 A 
ATOM     11  C   UNL     1       0.009   1.104   0.097  0.00  0.00    +0.003 A 
ATOM     12  C   UNL     1      -1.200   1.774   0.098  0.00  0.00    +0.002 A 
ATOM     13  C   UNL     1      -1.226   3.155   0.099  0.00  0.00    +0.026 A 
ATOM     14  C   UNL     1      -0.036   3.870   0.086  0.00  0.00    +0.047 A 
ATOM     15  C   UNL     1       1.177   3.194   0.079  0.00  0.00    +0.029 A 
ENDBRANCH   2  14
ENDBRANCH   1   5
BRANCH   1  16
ATOM     16  N   UNL     1      -2.237   8.782  -1.224  0.00  0.00    -0.295 N 
ATOM     17  C   UNL     1      -2.825   9.813  -1.862  0.00  0.00    +0.304 C 
ATOM     18  O   UNL     1      -2.160  10.554  -2.561  0.00  0.00    -0.252 OA
ATOM     19  N   UNL     1      -4.149  10.024  -1.726  0.00  0.00    -0.266 N 
ATOM     20  H   UNL     1      -2.768   8.191  -0.666  0.00  0.00    +0.151 HD
ATOM     21  H   UNL     1      -4.693   9.388  -1.236  0.00  0.00    +0.156 HD
BRANCH  19  22
ATOM     22  C   UNL     1      -4.739  11.162  -2.292  0.00  0.00    +0.077 A 
ATOM     23  C   UNL     1      -3.976  12.296  -2.529  0.00  0.00    +0.030 A 
ATOM     24  C   UNL     1      -4.559  13.416  -3.092  0.00  0.00    -0.048 A 
ATOM     25  C   UNL     1      -5.905  13.413  -3.410  0.00  0.00    +0.007 A 
ATOM     26  C   UNL     1      -6.673  12.288  -3.172  0.00  0.00    +0.048 A 
ATOM     27  C   UNL     1      -6.094  11.160  -2.613  0.00  0.00    +0.141 A 
ATOM     28  C   UNL     1      -3.728  14.646  -3.353  0.00  0.00    +0.044 C 
BRANCH  27  29
ATOM     29  O   UNL     1      -6.848  10.053  -2.379  0.00  0.00    -0.493 OA
ATOM     30  C   UNL     1      -8.231  10.122  -2.733  0.00  0.00    +0.277 C 
ENDBRANCH  27  29
ENDBRANCH  19  22
ENDBRANCH   1  16
TORSDOF 5
