REMARK  Name = ZINC04974072
REMARK  4 active torsions:
REMARK  status: ('A' for Active; 'I' for Inactive)
REMARK    1  A    between atoms: C_1  and  C_2
REMARK    2  A    between atoms: C_2  and  C_9
REMARK    3  A    between atoms: C_9  and  C_10
REMARK    4  A    between atoms: C_10  and  C_11
REMARK                            x       y       z     vdW  Elec       q    Type
REMARK                         _______ _______ _______ _____ _____    ______ ____
ROOT
ATOM      1  C   UNL     1      -2.165   1.051   1.280  0.00  0.00    +0.048 C 
ATOM      2  C   UNL     1      -0.729   1.579   1.267  0.00  0.00    +0.099 C 
ATOM      3  N   UNL     1      -0.745   3.050   1.280  0.00  0.00    -0.220 NA
ATOM      4  N   UNL     1      -1.291   3.516   2.443  0.00  0.00    -0.260 N 
ATOM      5  C   UNL     1      -1.203   2.797   3.577  0.00  0.00    +0.158 C 
ATOM      6  S   UNL     1      -1.893   3.411   5.018  0.00  0.00    -0.016 S 
ATOM      7  N   UNL     1      -0.580   1.605   3.596  0.00  0.00    -0.260 N 
ATOM      8  N   UNL     1      -0.016   1.098   2.460  0.00  0.00    -0.220 NA
ATOM      9  H   UNL     1       0.183   3.423   1.144  0.00  0.00    +0.146 HD
ATOM     10  H   UNL     1      -1.749   4.371   2.449  0.00  0.00    +0.168 HD
ATOM     11  H   UNL     1      -0.532   1.101   4.423  0.00  0.00    +0.168 HD
ATOM     12  H   UNL     1       0.966   1.327   2.411  0.00  0.00    +0.146 HD
ENDROOT
BRANCH   2  13
ATOM     13  C   UNL     1      -0.013   1.086   0.008  0.00  0.00    +0.052 C 
BRANCH  13  14
ATOM     14  C   UNL     1      -0.753   1.593  -1.232  0.00  0.00    +0.128 C 
BRANCH  14  15
ATOM     15  C   UNL     1      -0.047   1.107  -2.471  0.00  0.00    +0.356 C 
ATOM     16  O   UNL     1       0.945   0.425  -2.374  0.00  0.00    -0.246 OA
ATOM     17  O   UNL     1      -0.522   1.431  -3.684  0.00  0.00    -0.246 OA
ENDBRANCH  14  15
ENDBRANCH  13  14
ENDBRANCH   2  13
TORSDOF 3
