REMARK  Name = ZINC07883377
REMARK  8 active torsions:
REMARK  status: ('A' for Active; 'I' for Inactive)
REMARK    1  A    between atoms: C_1  and  C_2
REMARK    2  A    between atoms: C_5  and  C_28
REMARK    3  A    between atoms: C_6  and  N_8
REMARK    4  A    between atoms: C_9  and  C_11
REMARK    5  A    between atoms: C_11  and  C_12
REMARK    6  A    between atoms: N_18  and  C_19
REMARK    7  A    between atoms: C_22  and  C_26
REMARK    8  A    between atoms: C_23  and  C_25
REMARK                            x       y       z     vdW  Elec       q    Type
REMARK                         _______ _______ _______ _____ _____    ______ ____
ROOT
ATOM      1  C   UNL     1       0.374  -1.917   6.022  0.00  0.00    +0.149 C 
ATOM      2  C   UNL     1       0.477  -2.648   7.351  0.00  0.00    +0.232 C 
ATOM      3  O   UNL     1      -0.403  -3.377   7.756  0.00  0.00    -0.274 OA
ATOM      4  N   UNL     1       1.588  -2.441   8.037  0.00  0.00    -0.264 N 
ATOM      5  C   UNL     1       2.595  -1.615   7.583  0.00  0.00    +0.161 C 
ATOM      6  N   UNL     1       3.735  -1.331   8.168  0.00  0.00    -0.226 NA
ATOM      7  S   UNL     1       1.981  -1.021   6.013  0.00  0.00    -0.077 S 
ATOM      8  H   UNL     1       1.699  -2.886   8.891  0.00  0.00    +0.157 HD
ENDROOT
BRANCH   6   9
ATOM      9  C   UNL     1       4.622  -0.481   7.562  0.00  0.00    +0.067 A 
ATOM     10  C   UNL     1       4.901  -0.612   6.200  0.00  0.00    +0.028 A 
ATOM     11  C   UNL     1       5.795   0.247   5.597  0.00  0.00    +0.006 A 
ATOM     12  C   UNL     1       6.414   1.238   6.337  0.00  0.00    -0.047 A 
ATOM     13  C   UNL     1       6.142   1.375   7.687  0.00  0.00    -0.046 A 
ATOM     14  C   UNL     1       5.246   0.525   8.302  0.00  0.00    +0.031 A 
ATOM     15  C   UNL     1       6.822   2.457   8.485  0.00  0.00    +0.044 C 
ATOM     16  C   UNL     1       7.390   2.174   5.671  0.00  0.00    +0.044 C 
ENDBRANCH   6   9
BRANCH   1  17
ATOM     17  C   UNL     1       0.280  -2.900   4.854  0.00  0.00    +0.120 C 
BRANCH  17  19
ATOM     18  N   UNL     1       0.052  -2.797   2.393  0.00  0.00    -0.285 N 
ATOM     19  C   UNL     1       0.150  -2.135   3.562  0.00  0.00    +0.219 C 
ATOM     20  O   UNL     1       0.134  -0.922   3.575  0.00  0.00    -0.275 OA
ATOM     21  H   UNL     1      -0.016  -3.765   2.388  0.00  0.00    +0.155 HD
BRANCH  18  27
ATOM     22  C   UNL     1       1.264   1.227  -0.158  0.00  0.00    +0.044 C 
ATOM     23  C   UNL     1       0.628  -0.137  -0.079  0.00  0.00    -0.049 A 
ATOM     24  C   UNL     1       0.039  -0.690  -1.201  0.00  0.00    +0.004 A 
ATOM     25  C   UNL     1      -0.546  -1.941  -1.133  0.00  0.00    +0.005 A 
ATOM     26  C   UNL     1      -0.543  -2.643   0.057  0.00  0.00    -0.029 A 
ATOM     27  C   UNL     1       0.048  -2.090   1.185  0.00  0.00    +0.037 A 
ATOM     28  C   UNL     1       0.639  -0.835   1.112  0.00  0.00    +0.027 A 
ATOM     29  C   UNL     1      -1.181  -4.006   0.131  0.00  0.00    +0.045 C 
ENDBRANCH  18  27
ENDBRANCH  17  19
ENDBRANCH   1  17
TORSDOF 4
