REMARK  Name = ZINC35422674
REMARK  6 active torsions:
REMARK  status: ('A' for Active; 'I' for Inactive)
REMARK    1  A    between atoms: C_4  and  C_7
REMARK    2  A    between atoms: N_9  and  C_10
REMARK    3  A    between atoms: C_13  and  N_19
REMARK    4  A    between atoms: C_15  and  C_16
REMARK    5  A    between atoms: C_22  and  C_25
REMARK    6  A    between atoms: C_22  and  N_28
REMARK                            x       y       z     vdW  Elec       q    Type
REMARK                         _______ _______ _______ _____ _____    ______ ____
ROOT
ATOM      1  C   UNL     1       4.741  -2.888   0.455  0.00  0.00    +0.048 A 
ATOM      2  C   UNL     1       4.759  -4.271   0.326  0.00  0.00    +0.026 A 
ATOM      3  C   UNL     1       5.959  -4.950   0.309  0.00  0.00    +0.025 A 
ATOM      4  C   UNL     1       7.162  -4.258   0.420  0.00  0.00    +0.031 A 
ATOM      5  C   UNL     1       7.162  -2.880   0.549  0.00  0.00    +0.040 A 
ATOM      6  C   UNL     1       5.950  -2.182   0.562  0.00  0.00    +0.086 A 
ENDROOT
BRANCH   4   7
ATOM      7  N   UNL     1       8.373  -4.957   0.401  0.00  0.00    -0.330 N 
ATOM      8  C   UNL     1       8.400  -6.403   0.142  0.00  0.00    +0.104 C 
ATOM      9  C   UNL     1       9.164  -7.093   1.276  0.00  0.00    +0.016 C 
ATOM     10  C   UNL     1      10.548  -6.455   1.416  0.00  0.00    +0.015 C 
ATOM     11  C   UNL     1      10.395  -4.974   1.769  0.00  0.00    +0.016 C 
ATOM     12  C   UNL     1       9.645  -4.258   0.635  0.00  0.00    +0.104 C 
BRANCH  10  13
ATOM     13  N   UNL     1      11.296  -7.137   2.480  0.00  0.00    +0.389 N 
ATOM     14  C   UNL     1      11.536  -8.532   2.091  0.00  0.00    -0.077 C 
ATOM     15  C   UNL     1      12.243  -9.268   3.231  0.00  0.00    -0.019 C 
ATOM     16  C   UNL     1      13.581  -8.581   3.522  0.00  0.00    -0.004 C 
ATOM     17  C   UNL     1      13.325  -7.108   3.854  0.00  0.00    -0.019 C 
ATOM     18  C   UNL     1      12.577  -6.452   2.692  0.00  0.00    -0.077 C 
ATOM     19  H   UNL     1      10.759  -7.115   3.334  0.00  0.00    -0.080 HD
ENDBRANCH  10  13
BRANCH  10  20
ATOM     20  C   UNL     1      11.295  -6.586   0.114  0.00  0.00    +0.200 C 
ATOM     21  O   UNL     1      11.008  -7.472  -0.663  0.00  0.00    -0.278 OA
ATOM     22  N   UNL     1      12.283  -5.719  -0.187  0.00  0.00    -0.330 N 
ATOM     23  H   UNL     1      12.561  -5.057   0.465  0.00  0.00    +0.145 HD
ATOM     24  H   UNL     1      12.714  -5.758  -1.054  0.00  0.00    +0.145 HD
ENDBRANCH  10  20
ENDBRANCH   4   7
BRANCH   1  27
ATOM     25  C   UNL     1       2.444  -2.739  -0.121  0.00  0.00    +0.248 C 
ATOM     26  O   UNL     1       2.547  -3.767  -0.763  0.00  0.00    -0.270 OA
ATOM     27  N   UNL     1       3.529  -2.204   0.473  0.00  0.00    -0.281 N 
ATOM     28  H   UNL     1       3.465  -1.341   0.913  0.00  0.00    +0.155 HD
BRANCH  25  32
ATOM     29  C   UNL     1      -1.336  -0.837   0.248  0.00  0.00    +0.000 A 
ATOM     30  C   UNL     1      -1.222  -2.006  -0.483  0.00  0.00    +0.001 A 
ATOM     31  C   UNL     1       0.003  -2.629  -0.607  0.00  0.00    +0.013 A 
ATOM     32  C   UNL     1       1.129  -2.077   0.007  0.00  0.00    +0.037 A 
ATOM     33  C   UNL     1       1.006  -0.897   0.743  0.00  0.00    +0.013 A 
ATOM     34  C   UNL     1      -0.224  -0.285   0.860  0.00  0.00    +0.001 A 
ENDBRANCH  25  32
ENDBRANCH   1  27
BRANCH   6  35
ATOM     35  C   UNL     1       5.942  -0.717   0.693  0.00  0.00    +0.388 C 
ATOM     36  O   UNL     1       6.989  -0.114   0.885  0.00  0.00    -0.241 OA
ATOM     37  O   UNL     1       4.888  -0.101   0.611  0.00  0.00    -0.241 OA
ENDBRANCH   6  35
TORSDOF 6
