REMARK  Name = ZINC25107954
REMARK  8 active torsions:
REMARK  status: ('A' for Active; 'I' for Inactive)
REMARK    1  A    between atoms: C_1  and  C_2
REMARK    2  A    between atoms: C_2  and  C_3
REMARK    3  A    between atoms: C_2  and  C_4
REMARK    4  A    between atoms: C_4  and  C_6
REMARK    5  A    between atoms: C_4  and  N_19
REMARK    6  A    between atoms: N_8  and  C_9
REMARK    7  A    between atoms: C_20  and  C_22
REMARK    8  A    between atoms: C_22  and  C_23
REMARK                            x       y       z     vdW  Elec       q    Type
REMARK                         _______ _______ _______ _____ _____    ______ ____
ROOT
ATOM      1  C   UNL     1      -4.915   1.385   0.292  0.00  0.00    +0.162 C 
ENDROOT
BRANCH   1   2
ATOM      2  C   UNL     1      -3.578   2.057   0.116  0.00  0.00    +0.238 C 
ATOM      3  O   UNL     1      -3.415   3.195   0.503  0.00  0.00    -0.273 OA
ATOM      4  N   UNL     1      -2.562   1.393  -0.470  0.00  0.00    -0.283 N 
ATOM      5  H   UNL     1      -2.714   0.366  -0.835  0.00  0.00    +0.155 HD
BRANCH   4   6
ATOM      6  C   UNL     1      -1.318   2.007  -0.615  0.00  0.00    +0.043 A 
ATOM      7  C   UNL     1      -1.216   3.383  -0.611  0.00  0.00    +0.024 A 
ATOM      8  C   UNL     1       0.021   4.002  -0.749  0.00  0.00    +0.004 A 
ATOM      9  C   UNL     1       1.162   3.273  -0.898  0.00  0.00    +0.028 A 
ATOM     10  C   UNL     1       1.103   1.869  -0.913  0.00  0.00    +0.073 A 
ATOM     11  C   UNL     1      -0.153   1.229  -0.773  0.00  0.00    +0.022 A 
ATOM     12  C   UNL     1      -0.209  -0.176  -0.788  0.00  0.00    +0.013 A 
ATOM     13  C   UNL     1       0.961  -0.866  -0.939  0.00  0.00    +0.020 A 
ATOM     14  C   UNL     1       2.163  -0.175  -1.072  0.00  0.00    +0.111 A 
ATOM     15  N   UNL     1       2.211   1.135  -1.057  0.00  0.00    -0.255 NA
ENDBRANCH   4   6
ENDBRANCH   1   2
BRANCH   1  16
ATOM     16  N   UNL     1      -5.971   2.401   0.323  0.00  0.00    -0.303 N 
ATOM     17  C   UNL     1      -7.230   2.075  -0.030  0.00  0.00    +0.220 C 
ATOM     18  O   UNL     1      -7.489   0.941  -0.374  0.00  0.00    -0.275 OA
ATOM     19  H   UNL     1      -5.736   3.429   0.634  0.00  0.00    +0.149 HD
BRANCH  17  20
ATOM     20  C   UNL     1      -8.316   3.119   0.002  0.00  0.00    +0.153 C 
BRANCH  20  21
ATOM     21  C   UNL     1      -9.620   2.502  -0.434  0.00  0.00    +0.078 A 
ATOM     22  C   UNL     1     -10.484   1.917   0.509  0.00  0.00    +0.011 A 
ATOM     23  C   UNL     1     -10.193   1.873   1.879  0.00  0.00    +0.010 A 
ATOM     24  C   UNL     1     -11.080   1.289   2.733  0.00  0.00    +0.001 A 
ATOM     25  C   UNL     1     -12.270   0.736   2.266  0.00  0.00    +0.001 A 
ATOM     26  C   UNL     1     -12.585   0.762   0.940  0.00  0.00    +0.014 A 
ATOM     27  C   UNL     1     -11.697   1.353   0.034  0.00  0.00    +0.050 A 
ATOM     28  C   UNL     1     -11.951   1.419  -1.353  0.00  0.00    +0.272 A 
ATOM     29  N   UNL     1     -11.059   1.995  -2.136  0.00  0.00    -0.242 N 
ATOM     30  N   UNL     1      -9.968   2.506  -1.701  0.00  0.00    -0.175 NA
ATOM     31  O   UNL     1     -13.091   0.900  -1.871  0.00  0.00    -0.266 OA
ATOM     32  H   UNL     1     -11.234   2.053  -3.220  0.00  0.00    +0.192 HD
ENDBRANCH  20  21
ENDBRANCH  17  20
ENDBRANCH   1  16
BRANCH   1  34
ATOM     33  C   UNL     1      -6.296  -0.048   1.803  0.00  0.00    +0.009 C 
ATOM     34  C   UNL     1      -4.924   0.600   1.605  0.00  0.00    +0.012 C 
ATOM     35  C   UNL     1      -3.849  -0.487   1.556  0.00  0.00    +0.009 C 
ENDBRANCH   1  34
TORSDOF 6
