REMARK  Name = ZINC14476234
REMARK  9 active torsions:
REMARK  status: ('A' for Active; 'I' for Inactive)
REMARK    1  A    between atoms: C_1  and  O_2
REMARK    2  A    between atoms: O_2  and  C_3
REMARK    3  A    between atoms: C_3  and  C_4
REMARK    4  A    between atoms: C_4  and  C_5
REMARK    5  A    between atoms: C_5  and  N_6
REMARK    6  A    between atoms: C_7  and  C_9
REMARK    7  A    between atoms: C_22  and  C_25
REMARK    8  A    between atoms: C_27  and  N_32
REMARK    9  A    between atoms: C_30  and  O_31
REMARK                            x       y       z     vdW  Elec       q    Type
REMARK                         _______ _______ _______ _____ _____    ______ ____
ROOT
ATOM      1  C   UNL     1       1.848  -6.420   2.947  0.00  0.00    +0.037 A 
ATOM      2  C   UNL     1       1.220  -7.026   1.855  0.00  0.00    +0.015 A 
ATOM      3  C   UNL     1       1.184  -8.396   1.765  0.00  0.00    +0.024 A 
ATOM      4  C   UNL     1       1.771  -9.184   2.757  0.00  0.00    +0.031 A 
ATOM      5  C   UNL     1       2.405  -8.589   3.837  0.00  0.00    -0.019 A 
ATOM      6  C   UNL     1       2.442  -7.210   3.932  0.00  0.00    +0.019 A 
ATOM      7  C   UNL     1       3.083  -9.393   4.912  0.00  0.00    +0.049 C 
ATOM      8  C   UNL     1       4.490  -8.844   5.085  0.00  0.00    -0.023 C 
ATOM      9  C   UNL     1       5.362  -9.614   4.487  0.00  0.00    -0.030 C 
ATOM     10  C   UNL     1       4.680 -10.798   3.835  0.00  0.00    +0.033 C 
ATOM     11  C   UNL     1       3.283 -10.857   4.529  0.00  0.00    +0.029 C 
ATOM     12  C   UNL     1       2.220 -11.459   3.660  0.00  0.00    +0.108 C 
ATOM     13  N   UNL     1       1.703 -10.562   2.645  0.00  0.00    -0.336 N 
ATOM     14  H   UNL     1       1.269 -10.943   1.865  0.00  0.00    +0.147 HD
ENDROOT
BRANCH  12  15
ATOM     15  C   UNL     1       2.803 -12.655   2.953  0.00  0.00    +0.017 A 
ATOM     16  C   UNL     1       3.326 -12.519   1.681  0.00  0.00    +0.041 A 
ATOM     17  C   UNL     1       3.861 -13.616   1.032  0.00  0.00    +0.127 A 
ATOM     18  C   UNL     1       3.876 -14.851   1.653  0.00  0.00    +0.036 A 
ATOM     19  C   UNL     1       3.354 -14.992   2.924  0.00  0.00    +0.048 A 
ATOM     20  C   UNL     1       2.821 -13.892   3.580  0.00  0.00    +0.122 A 
BRANCH  17  21
ATOM     21  N   UNL     1       4.420 -13.468  -0.331  0.00  0.00    +0.056 N 
ATOM     22  O   UNL     1       4.408 -12.389  -0.875  0.00  0.00    -0.126 OA
ATOM     23  O   UNL     1       4.889 -14.426  -0.899  0.00  0.00    -0.126 OA
ENDBRANCH  17  21
BRANCH  20  24
ATOM     24  O   UNL     1       2.313 -14.027   4.833  0.00  0.00    -0.506 OA
ATOM     25  H   UNL     1       1.372 -14.251   4.854  0.00  0.00    +0.292 HD
ENDBRANCH  20  24
ENDBRANCH  12  15
BRANCH   1  27
ATOM     26  N   UNL     1       1.312  -4.188   2.103  0.00  0.00    -0.311 N 
ATOM     27  C   UNL     1       1.887  -4.949   3.055  0.00  0.00    +0.244 C 
ATOM     28  O   UNL     1       2.438  -4.424   4.004  0.00  0.00    -0.270 OA
ATOM     29  H   UNL     1       0.873  -4.606   1.347  0.00  0.00    +0.149 HD
BRANCH  26  30
ATOM     30  C   UNL     1       1.351  -2.727   2.211  0.00  0.00    +0.107 C 
BRANCH  30  31
ATOM     31  C   UNL     1       0.633  -2.108   1.011  0.00  0.00    +0.047 C 
BRANCH  31  32
ATOM     32  C   UNL     1       0.673  -0.582   1.123  0.00  0.00    +0.161 C 
BRANCH  32  34
ATOM     33  C   UNL     1      -0.017   1.425   0.010  0.00  0.00    +0.193 C 
ATOM     34  O   UNL     1       0.002  -0.004   0.002  0.00  0.00    -0.383 OA
ENDBRANCH  32  34
ENDBRANCH  31  32
ENDBRANCH  30  31
ENDBRANCH  26  30
ENDBRANCH   1  27
TORSDOF 8
