REMARK  Name = ZINC49650970
REMARK  6 active torsions:
REMARK  status: ('A' for Active; 'I' for Inactive)
REMARK    1  A    between atoms: C_1  and  C_2
REMARK    2  A    between atoms: C_2  and  C_4
REMARK    3  A    between atoms: C_2  and  N_20
REMARK    4  A    between atoms: C_4  and  N_6
REMARK    5  A    between atoms: C_9  and  C_12
REMARK    6  A    between atoms: C_23  and  C_26
REMARK                            x       y       z     vdW  Elec       q    Type
REMARK                         _______ _______ _______ _____ _____    ______ ____
ROOT
ATOM      1  C   UNL     1      -0.606   1.753   1.220  0.00  0.00    -0.004 C 
ATOM      2  C   UNL     1      -0.417   0.386   0.558  0.00  0.00    +0.018 C 
ENDROOT
BRANCH   2   3
ATOM      3  N   UNL     1      -0.142  -0.623   1.589  0.00  0.00    +0.387 N 
ATOM      4  C   UNL     1      -1.241  -0.638   2.562  0.00  0.00    -0.077 C 
ATOM      5  C   UNL     1      -0.921  -1.631   3.683  0.00  0.00    -0.006 C 
ATOM      6  C   UNL     1      -0.749  -3.030   3.084  0.00  0.00    +0.072 C 
ATOM      7  C   UNL     1       0.349  -2.986   2.017  0.00  0.00    -0.006 C 
ATOM      8  C   UNL     1      -0.018  -1.943   0.959  0.00  0.00    -0.077 C 
ATOM      9  H   UNL     1       0.720  -0.394   2.061  0.00  0.00    -0.081 HD
BRANCH   6  10
ATOM     10  C   UNL     1      -0.357  -3.998   4.170  0.00  0.00    +0.219 C 
ATOM     11  O   UNL     1       0.074  -3.583   5.225  0.00  0.00    -0.275 OA
ATOM     12  N   UNL     1      -0.485  -5.324   3.969  0.00  0.00    -0.301 N 
ATOM     13  C   UNL     1      -0.063  -6.228   5.016  0.00  0.00    +0.108 C 
ATOM     14  C   UNL     1       1.433  -6.581   4.825  0.00  0.00    +0.019 C 
ATOM     15  C   UNL     1       1.606  -7.458   3.658  0.00  0.00    +0.002 C 
ATOM     16  C   UNL     1       1.195  -6.827   2.331  0.00  0.00    +0.002 C 
ATOM     17  C   UNL     1      -0.289  -7.009   2.129  0.00  0.00    +0.019 C 
ATOM     18  C   UNL     1      -1.057  -5.794   2.692  0.00  0.00    +0.108 C 
ENDBRANCH   6  10
ENDBRANCH   2   3
BRANCH   2  19
ATOM     19  C   UNL     1       0.740   0.450  -0.405  0.00  0.00    +0.225 C 
ATOM     20  O   UNL     1       1.870   0.227  -0.013  0.00  0.00    -0.275 OA
BRANCH  19  21
ATOM     21  N   UNL     1       0.527   0.748  -1.680  0.00  0.00    -0.158 NA
ATOM     22  C   UNL     1       1.552   0.804  -2.532  0.00  0.00    +0.163 A 
ATOM     23  N   UNL     1       1.528   1.097  -3.860  0.00  0.00    -0.335 N 
ATOM     24  C   UNL     1       2.704   1.100  -4.556  0.00  0.00    +0.055 A 
ATOM     25  C   UNL     1       3.825   0.806  -3.860  0.00  0.00    +0.074 A 
ATOM     26  S   UNL     1       3.182   0.538  -2.219  0.00  0.00    -0.060 S 
ATOM     27  H   UNL     1       0.690   1.300  -4.305  0.00  0.00    +0.168 HD
BRANCH  24  28
ATOM     28  C   UNL     1       2.748   1.409  -6.002  0.00  0.00    +0.002 A 
ATOM     29  C   UNL     1       1.572   1.713  -6.689  0.00  0.00    +0.013 A 
ATOM     30  C   UNL     1       1.617   2.000  -8.037  0.00  0.00    +0.042 A 
ATOM     31  C   UNL     1       2.828   1.988  -8.711  0.00  0.00    +0.158 A 
ATOM     32  C   UNL     1       4.000   1.686  -8.034  0.00  0.00    +0.159 A 
ATOM     33  C   UNL     1       3.966   1.403  -6.682  0.00  0.00    +0.051 A 
ATOM     34  F   UNL     1       5.178   1.675  -8.696  0.00  0.00    -0.202 F 
ATOM     35  F   UNL     1       2.866   2.270 -10.031  0.00  0.00    -0.202 F 
ENDBRANCH  24  28
ENDBRANCH  19  21
ENDBRANCH   2  19
TORSDOF 5
