REMARK  Name = ZINC01104365
REMARK  7 active torsions:
REMARK  status: ('A' for Active; 'I' for Inactive)
REMARK    1  A    between atoms: C_1  and  C_2
REMARK    2  A    between atoms: C_3  and  C_16
REMARK    3  A    between atoms: C_4  and  C_15
REMARK    4  A    between atoms: C_8  and  N_14
REMARK    5  A    between atoms: C_9  and  C_11
REMARK    6  A    between atoms: C_16  and  C_17
REMARK    7  A    between atoms: C_17  and  C_19
REMARK                            x       y       z     vdW  Elec       q    Type
REMARK                         _______ _______ _______ _____ _____    ______ ____
ROOT
ATOM      1  C   UNL     1       1.253  -4.367  -2.638  0.00  0.00    +0.045 C 
ATOM      2  C   UNL     1       1.240  -5.104  -1.323  0.00  0.00    -0.034 A 
ATOM      3  C   UNL     1       0.762  -4.496  -0.186  0.00  0.00    -0.015 A 
ATOM      4  C   UNL     1       0.757  -5.174   1.023  0.00  0.00    +0.043 A 
ATOM      5  N   UNL     1       1.200  -6.414   1.095  0.00  0.00    -0.244 NA
ATOM      6  C   UNL     1       1.667  -7.039   0.036  0.00  0.00    +0.111 A 
ATOM      7  C   UNL     1       1.721  -6.434  -1.240  0.00  0.00    +0.032 A 
ATOM      8  C   UNL     1       2.267  -7.271  -2.298  0.00  0.00    +0.054 A 
ATOM      9  C   UNL     1       2.674  -8.547  -1.978  0.00  0.00    +0.097 A 
ATOM     10  S   UNL     1       2.334  -8.663  -0.232  0.00  0.00    -0.062 S 
ATOM     11  C   UNL     1       0.235  -4.492   2.261  0.00  0.00    +0.066 C 
ENDROOT
BRANCH   9  12
ATOM     12  C   UNL     1       3.231  -9.532  -2.832  0.00  0.00    +0.250 C 
ATOM     13  O   UNL     1       3.399  -9.289  -4.013  0.00  0.00    -0.270 OA
ATOM     14  N   UNL     1       3.574 -10.737  -2.336  0.00  0.00    -0.325 N 
ATOM     15  H   UNL     1       3.440 -10.931  -1.395  0.00  0.00    +0.145 HD
ATOM     16  H   UNL     1       3.955 -11.411  -2.921  0.00  0.00    +0.145 HD
ENDBRANCH   9  12
BRANCH   8  17
ATOM     17  N   UNL     1       2.373  -6.795  -3.598  0.00  0.00    -0.356 N 
ATOM     18  H   UNL     1       2.453  -5.842  -3.760  0.00  0.00    +0.142 HD
ATOM     19  H   UNL     1       2.368  -7.416  -4.343  0.00  0.00    +0.142 HD
ENDBRANCH   8  17
BRANCH   3  20
ATOM     20  C   UNL     1       0.246  -3.082  -0.254  0.00  0.00    +0.116 C 
BRANCH  20  21
ATOM     21  C   UNL     1      -1.229  -3.099  -0.563  0.00  0.00    +0.167 C 
ATOM     22  O   UNL     1      -1.804  -4.156  -0.714  0.00  0.00    -0.292 OA
BRANCH  21  23
ATOM     23  C   UNL     1      -1.971  -1.834  -0.682  0.00  0.00    +0.018 A 
ATOM     24  C   UNL     1      -3.340  -1.846  -0.969  0.00  0.00    +0.012 A 
ATOM     25  C   UNL     1      -4.028  -0.657  -1.079  0.00  0.00    +0.016 A 
ATOM     26  C   UNL     1      -3.367   0.548  -0.907  0.00  0.00    +0.018 A 
ATOM     27  C   UNL     1      -2.011   0.568  -0.623  0.00  0.00    +0.016 A 
ATOM     28  C   UNL     1      -1.310  -0.613  -0.510  0.00  0.00    +0.012 A 
ATOM     29 BR   UNL     1      -4.320   2.174  -1.061  0.00  0.00    -0.050 Br
ENDBRANCH  21  23
ENDBRANCH  20  21
ENDBRANCH   3  20
TORSDOF 5
