REMARK  Name = ZINC19472643
REMARK  5 active torsions:
REMARK  status: ('A' for Active; 'I' for Inactive)
REMARK    1  A    between atoms: C_3  and  C_13
REMARK    2  A    between atoms: C_4  and  O_12
REMARK    3  A    between atoms: C_6  and  N_7
REMARK    4  A    between atoms: N_7  and  S_8
REMARK    5  A    between atoms: S_8  and  N_11
REMARK                            x       y       z     vdW  Elec       q    Type
REMARK                         _______ _______ _______ _____ _____    ______ ____
ROOT
ATOM      1  C   UNL     1      -3.041   1.147   0.595  0.00  0.00    +0.025 A 
ATOM      2  C   UNL     1      -4.255   0.576   0.845  0.00  0.00    +0.020 A 
ATOM      3  C   UNL     1      -4.575   0.142   2.136  0.00  0.00    +0.105 A 
ATOM      4  C   UNL     1      -3.639   0.291   3.173  0.00  0.00    +0.133 A 
ATOM      5  C   UNL     1      -2.410   0.867   2.908  0.00  0.00    +0.070 A 
ATOM      6  C   UNL     1      -2.108   1.292   1.620  0.00  0.00    +0.053 A 
ENDROOT
BRANCH   3   7
ATOM      7  C   UNL     1      -5.885  -0.469   2.406  0.00  0.00    +0.390 C 
ATOM      8  O   UNL     1      -6.160  -0.846   3.529  0.00  0.00    -0.240 OA
ATOM      9  O   UNL     1      -6.781  -0.612   1.409  0.00  0.00    -0.240 OA
ENDBRANCH   3   7
BRANCH   6  10
ATOM     10  N   UNL     1      -0.872   1.871   1.353  0.00  0.00    -0.207 N 
ATOM     11  H   UNL     1      -0.462   2.631   2.035  0.00  0.00    +0.175 HD
BRANCH  10  12
ATOM     12  S   UNL     1      -0.017   1.417   0.010  0.00  0.00    +0.107 S 
ATOM     13  O   UNL     1       0.002  -0.004   0.002  0.00  0.00    -0.138 OA
ATOM     14  O   UNL     1       1.172   2.195   0.003  0.00  0.00    -0.138 OA
BRANCH  12  15
ATOM     15  N   UNL     1      -0.897   1.885  -1.312  0.00  0.00    -0.191 NA
ATOM     16  H   UNL     1      -0.361   1.601  -2.229  0.00  0.00    +0.146 HD
ATOM     17  H   UNL     1      -1.036   2.977  -1.292  0.00  0.00    +0.146 HD
ENDBRANCH  12  15
ENDBRANCH  10  12
ENDBRANCH   6  10
BRANCH   4  18
ATOM     18  O   UNL     1      -3.940  -0.127   4.428  0.00  0.00    -0.506 OA
ATOM     19  H   UNL     1      -3.205  -0.008   5.238  0.00  0.00    +0.292 HD
ENDBRANCH   4  18
TORSDOF 5
