REMARK  Name = ZINC20185140
REMARK  4 active torsions:
REMARK  status: ('A' for Active; 'I' for Inactive)
REMARK    1  A    between atoms: C_3  and  S_13
REMARK    2  A    between atoms: C_6  and  N_7
REMARK    3  A    between atoms: C_8  and  C_10
REMARK    4  A    between atoms: S_13  and  N_16
REMARK                            x       y       z     vdW  Elec       q    Type
REMARK                         _______ _______ _______ _____ _____    ______ ____
ROOT
ATOM      1  C   UNL     1       0.055   4.211   0.115  0.00  0.00    +0.025 A 
ATOM      2  C   UNL     1       0.083   5.588   0.208  0.00  0.00    +0.030 A 
ATOM      3  C   UNL     1      -1.098   6.300   0.317  0.00  0.00    +0.105 A 
ATOM      4  C   UNL     1      -2.311   5.635   0.327  0.00  0.00    +0.030 A 
ATOM      5  C   UNL     1      -2.347   4.258   0.229  0.00  0.00    +0.025 A 
ATOM      6  C   UNL     1      -1.162   3.540   0.119  0.00  0.00    +0.034 A 
ENDROOT
BRANCH   6   7
ATOM      7  N   UNL     1      -1.194   2.147   0.019  0.00  0.00    -0.276 N 
ATOM      8  C   UNL     1      -0.265   1.502  -0.713  0.00  0.00    +0.330 C 
ATOM      9  O   UNL     1       0.540   2.135  -1.365  0.00  0.00    -0.263 OA
ATOM     10  H   UNL     1      -1.978   1.576   0.539  0.00  0.00    +0.155 HD
BRANCH   8  11
ATOM     11  C   UNL     1      -0.229   0.009  -0.728  0.00  0.00    +0.441 C 
ATOM     12  O   UNL     1      -1.034  -0.623  -0.076  0.00  0.00    -0.235 OA
ATOM     13  O   UNL     1       0.695  -0.634  -1.463  0.00  0.00    -0.235 OA
ENDBRANCH   8  11
ENDBRANCH   6   7
BRANCH   3  14
ATOM     14  S   UNL     1      -1.058   8.057   0.441  0.00  0.00    +0.056 S 
ATOM     15  O   UNL     1       0.169   8.477  -0.140  0.00  0.00    -0.153 OA
ATOM     16  O   UNL     1      -2.318   8.526  -0.017  0.00  0.00    -0.153 OA
BRANCH  14  17
ATOM     17  N   UNL     1      -0.970   8.431   2.052  0.00  0.00    -0.204 NA
ATOM     18  H   UNL     1      -0.943   9.524   2.173  0.00  0.00    +0.144 HD
ATOM     19  H   UNL     1      -0.058   7.992   2.482  0.00  0.00    +0.144 HD
ENDBRANCH  14  17
ENDBRANCH   3  14
TORSDOF 4
