REMARK  Name = ZINC61964134
REMARK  9 active torsions:
REMARK  status: ('A' for Active; 'I' for Inactive)
REMARK    1  A    between atoms: C_1  and  O_2
REMARK    2  A    between atoms: O_2  and  C_3
REMARK    3  A    between atoms: C_6  and  O_26
REMARK    4  A    between atoms: C_7  and  C_9
REMARK    5  A    between atoms: C_9  and  C_10
REMARK    6  A    between atoms: C_9  and  O_25
REMARK    7  A    between atoms: C_10  and  N_11
REMARK    8  A    between atoms: N_14  and  C_15
REMARK    9  A    between atoms: O_26  and  C_27
REMARK                            x       y       z     vdW  Elec       q    Type
REMARK                         _______ _______ _______ _____ _____    ______ ____
ROOT
ATOM      1  N   UNL     1       0.205  -6.078  -3.208  0.00  0.00    -0.297 N 
ATOM      2  C   UNL     1      -0.732  -6.750  -3.906  0.00  0.00    +0.300 C 
ATOM      3  O   UNL     1      -1.621  -6.143  -4.471  0.00  0.00    -0.253 OA
ATOM      4  N   UNL     1      -0.684  -8.095  -3.977  0.00  0.00    -0.294 N 
ATOM      5  H   UNL     1       0.915  -6.563  -2.757  0.00  0.00    +0.150 HD
ATOM      6  H   UNL     1       0.025  -8.579  -3.527  0.00  0.00    +0.151 HD
ENDROOT
BRANCH   4   7
ATOM      7  C   UNL     1      -1.703  -8.825  -4.736  0.00  0.00    +0.037 C 
ATOM      8  C   UNL     1      -3.084  -8.536  -4.144  0.00  0.00    +0.029 C 
ATOM      9  C   UNL     1      -4.148  -9.298  -4.936  0.00  0.00    -0.008 C 
ATOM     10  C   UNL     1      -3.864 -10.799  -4.858  0.00  0.00    +0.007 C 
ATOM     11  C   UNL     1      -2.483 -11.089  -5.449  0.00  0.00    -0.008 C 
ATOM     12  C   UNL     1      -1.419 -10.326  -4.657  0.00  0.00    +0.029 C 
ATOM     13  C   UNL     1      -2.450 -10.639  -6.911  0.00  0.00    +0.007 C 
ATOM     14  C   UNL     1      -2.734  -9.138  -6.990  0.00  0.00    -0.008 C 
ATOM     15  C   UNL     1      -4.115  -8.849  -6.399  0.00  0.00    +0.007 C 
ATOM     16  C   UNL     1      -1.670  -8.376  -6.198  0.00  0.00    +0.029 C 
ENDBRANCH   4   7
BRANCH   1  17
ATOM     17  C   UNL     1       0.153  -4.616  -3.130  0.00  0.00    +0.142 C 
BRANCH  17  18
ATOM     18  C   UNL     1       1.323  -4.108  -2.285  0.00  0.00    +0.165 C 
BRANCH  18  23
ATOM     19  C   UNL     1       0.606  -0.608  -1.056  0.00  0.00    +0.121 A 
ATOM     20  C   UNL     1       1.173   0.161  -2.062  0.00  0.00    +0.049 A 
ATOM     21  C   UNL     1       1.786  -0.452  -3.138  0.00  0.00    +0.049 A 
ATOM     22  C   UNL     1       1.835  -1.836  -3.211  0.00  0.00    +0.126 A 
ATOM     23  C   UNL     1       1.269  -2.604  -2.205  0.00  0.00    +0.027 A 
ATOM     24  C   UNL     1       0.661  -1.991  -1.127  0.00  0.00    +0.055 A 
BRANCH  19  26
ATOM     25  C   UNL     1      -0.017   1.425   0.010  0.00  0.00    +0.277 C 
ATOM     26  O   UNL     1       0.002  -0.004   0.002  0.00  0.00    -0.495 OA
ENDBRANCH  19  26
BRANCH  22  27
ATOM     27  O   UNL     1       2.439  -2.439  -4.270  0.00  0.00    -0.495 OA
ATOM     28  C   UNL     1       3.000  -1.586  -5.269  0.00  0.00    +0.277 C 
ENDBRANCH  22  27
ENDBRANCH  18  23
BRANCH  18  29
ATOM     29  O   UNL     1       1.235  -4.659  -0.970  0.00  0.00    -0.386 OA
ATOM     30  H   UNL     1       0.422  -4.427  -0.500  0.00  0.00    +0.210 HD
ENDBRANCH  18  29
ENDBRANCH  17  18
ENDBRANCH   1  17
TORSDOF 7
