REMARK  Name = ZINC42407070
REMARK  3 active torsions:
REMARK  status: ('A' for Active; 'I' for Inactive)
REMARK    1  A    between atoms: C_5  and  C_8
REMARK    2  A    between atoms: C_15  and  O_23
REMARK    3  A    between atoms: C_18  and  C_20
REMARK                            x       y       z     vdW  Elec       q    Type
REMARK                         _______ _______ _______ _____ _____    ______ ____
ROOT
ATOM      1  C   UNL     1       0.360   1.238  -0.360  0.00  0.00    +0.004 C 
ATOM      2  C   UNL     1       1.840   1.622  -0.285  0.00  0.00    +0.019 C 
ATOM      3  C   UNL     1       2.347   1.405   1.145  0.00  0.00    +0.110 C 
ATOM      4  N   UNL     1       2.061   0.020   1.543  0.00  0.00    -0.274 N 
ATOM      5  C   UNL     1       0.685  -0.480   1.423  0.00  0.00    +0.163 C 
ATOM      6  C   UNL     1       0.197  -0.242  -0.009  0.00  0.00    +0.032 C 
ATOM      7  C   UNL     1       3.043  -0.777   2.008  0.00  0.00    +0.306 C 
ATOM      8  O   UNL     1       2.827  -1.958   2.203  0.00  0.00    -0.252 OA
ATOM      9  N   UNL     1       4.265  -0.266   2.258  0.00  0.00    -0.269 N 
ATOM     10  C   UNL     1       4.609   1.168   2.278  0.00  0.00    +0.141 C 
ATOM     11  C   UNL     1       5.865   1.262   3.180  0.00  0.00    +0.134 C 
ATOM     12  C   UNL     1       6.620  -0.038   2.797  0.00  0.00    +0.067 C 
ATOM     13  C   UNL     1       5.475  -1.045   2.561  0.00  0.00    +0.193 C 
ENDROOT
BRANCH   5  14
ATOM     14  C   UNL     1       0.655  -1.955   1.732  0.00  0.00    +0.231 C 
ATOM     15  O   UNL     1       1.206  -2.741   0.991  0.00  0.00    -0.274 OA
ATOM     16  N   UNL     1       0.015  -2.400   2.832  0.00  0.00    -0.328 N 
ATOM     17  H   UNL     1      -0.426  -1.772   3.424  0.00  0.00    +0.145 HD
ATOM     18  H   UNL     1      -0.004  -3.349   3.030  0.00  0.00    +0.145 HD
ENDBRANCH   5  14
BRANCH  13  19
ATOM     19  C   UNL     1       5.814  -1.939   1.396  0.00  0.00    +0.376 C 
ATOM     20  O   UNL     1       5.524  -1.598   0.262  0.00  0.00    -0.244 OA
ATOM     21  O   UNL     1       6.378  -3.002   1.588  0.00  0.00    -0.244 OA
ENDBRANCH  13  19
BRANCH  11  22
ATOM     22  O   UNL     1       5.505   1.258   4.562  0.00  0.00    -0.390 OA
ATOM     23  H   UNL     1       4.948   2.003   4.826  0.00  0.00    +0.210 HD
ENDBRANCH  11  22
TORSDOF 3
