REMARK  Name = ZINC12659160
REMARK  12 active torsions:
REMARK  status: ('A' for Active; 'I' for Inactive)
REMARK    1  A    between atoms: C_1  and  O_2
REMARK    2  A    between atoms: O_2  and  C_3
REMARK    3  A    between atoms: C_3  and  C_4
REMARK    4  A    between atoms: C_4  and  C_5
REMARK    5  A    between atoms: C_5  and  N_6
REMARK    6  A    between atoms: N_6  and  C_7
REMARK    7  A    between atoms: N_6  and  C_24
REMARK    8  A    between atoms: C_8  and  N_23
REMARK    9  A    between atoms: N_9  and  C_16
REMARK   10  A    between atoms: C_16  and  C_17
REMARK   11  A    between atoms: C_24  and  N_26
REMARK   12  A    between atoms: C_27  and  C_29
REMARK                            x       y       z     vdW  Elec       q    Type
REMARK                         _______ _______ _______ _____ _____    ______ ____
ROOT
ATOM      1  N   UNL     1       1.313  -4.109  -2.204  0.00  0.00    -0.275 N 
ENDROOT
BRANCH   1   2
ATOM      2  C   UNL     1       0.292  -5.023  -2.544  0.00  0.00    +0.139 A 
ATOM      3  C   UNL     1      -0.102  -5.176  -3.857  0.00  0.00    +0.128 A 
ATOM      4  N   UNL     1      -1.099  -6.075  -4.158  0.00  0.00    -0.276 N 
ATOM      5  C   UNL     1      -1.683  -6.795  -3.184  0.00  0.00    +0.331 A 
ATOM      6  O   UNL     1      -2.563  -7.584  -3.470  0.00  0.00    -0.246 OA
ATOM      7  N   UNL     1      -1.312  -6.659  -1.898  0.00  0.00    -0.273 N 
ATOM      8  H   UNL     1      -1.748  -7.190  -1.214  0.00  0.00    +0.173 HD
ATOM      9  C   UNL     1      -0.337  -5.796  -1.551  0.00  0.00    +0.277 A 
ATOM     10  O   UNL     1      -0.004  -5.684  -0.383  0.00  0.00    -0.266 OA
BRANCH   3  11
ATOM     11  N   UNL     1       0.495  -4.440  -4.853  0.00  0.00    -0.343 N 
ATOM     12  H   UNL     1       1.147  -3.758  -4.628  0.00  0.00    +0.144 HD
ATOM     13  H   UNL     1       0.263  -4.603  -5.781  0.00  0.00    +0.144 HD
ENDBRANCH   3  11
BRANCH   4  14
ATOM     14  C   UNL     1      -1.528  -6.248  -5.548  0.00  0.00    +0.163 C 
BRANCH  14  15
ATOM     15  C   UNL     1      -0.703  -7.329  -6.198  0.00  0.00    -0.028 A 
ATOM     16  C   UNL     1       0.478  -7.006  -6.840  0.00  0.00    +0.005 A 
ATOM     17  C   UNL     1       1.235  -7.997  -7.435  0.00  0.00    +0.000 A 
ATOM     18  C   UNL     1       0.811  -9.312  -7.389  0.00  0.00    +0.000 A 
ATOM     19  C   UNL     1      -0.369  -9.636  -6.746  0.00  0.00    +0.000 A 
ATOM     20  C   UNL     1      -1.124  -8.645  -6.147  0.00  0.00    +0.005 A 
ENDBRANCH  14  15
ENDBRANCH   4  14
ENDBRANCH   1   2
BRANCH   1  21
ATOM     21  C   UNL     1       2.481  -4.559  -1.705  0.00  0.00    +0.144 C 
ATOM     22  S   UNL     1       2.783  -6.242  -1.617  0.00  0.00    -0.018 S 
BRANCH  21  23
ATOM     23  N   UNL     1       3.413  -3.685  -1.275  0.00  0.00    -0.267 N 
ATOM     24  C   UNL     1       4.581  -4.135  -0.777  0.00  0.00    +0.225 C 
ATOM     25  O   UNL     1       4.794  -5.327  -0.714  0.00  0.00    -0.275 OA
ATOM     26  H   UNL     1       3.242  -2.731  -1.325  0.00  0.00    +0.157 HD
BRANCH  24  27
ATOM     27  C   UNL     1       5.622  -3.157  -0.296  0.00  0.00    +0.048 C 
ATOM     28  C   UNL     1       5.040  -2.307   0.835  0.00  0.00    +0.019 C 
ATOM     29  C   UNL     1       6.097  -1.315   1.323  0.00  0.00    -0.009 C 
ATOM     30  C   UNL     1       7.318  -2.080   1.836  0.00  0.00    +0.007 C 
ATOM     31  C   UNL     1       7.900  -2.930   0.705  0.00  0.00    -0.009 C 
ATOM     32  C   UNL     1       6.843  -3.923   0.217  0.00  0.00    +0.019 C 
ATOM     33  C   UNL     1       8.318  -2.021  -0.453  0.00  0.00    +0.007 C 
ATOM     34  C   UNL     1       7.097  -1.255  -0.966  0.00  0.00    -0.009 C 
ATOM     35  C   UNL     1       6.515  -0.406   0.165  0.00  0.00    +0.007 C 
ATOM     36  C   UNL     1       6.040  -2.248  -1.454  0.00  0.00    +0.019 C 
ENDBRANCH  24  27
ENDBRANCH  21  23
ENDBRANCH   1  21
BRANCH   1  37
ATOM     37  C   UNL     1       1.103  -2.672  -2.392  0.00  0.00    +0.115 C 
BRANCH  37  38
ATOM     38  C   UNL     1       0.390  -2.096  -1.167  0.00  0.00    +0.047 C 
BRANCH  38  39
ATOM     39  C   UNL     1       0.170  -0.594  -1.364  0.00  0.00    +0.161 C 
BRANCH  39  41
ATOM     40  C   UNL     1      -0.751   1.347  -0.302  0.00  0.00    +0.193 C 
ATOM     41  O   UNL     1      -0.496  -0.056  -0.220  0.00  0.00    -0.383 OA
ENDBRANCH  39  41
ENDBRANCH  38  39
ENDBRANCH  37  38
ENDBRANCH   1  37
TORSDOF 11
