REMARK  Name = ZINC04728558
REMARK  4 active torsions:
REMARK  status: ('A' for Active; 'I' for Inactive)
REMARK    1  A    between atoms: C_4  and  C_7
REMARK    2  A    between atoms: C_7  and  C_8
REMARK    3  A    between atoms: C_8  and  N_9
REMARK    4  A    between atoms: N_16  and  N_17
REMARK                            x       y       z     vdW  Elec       q    Type
REMARK                         _______ _______ _______ _____ _____    ______ ____
ROOT
ATOM      1  N   UNL     1      -0.898  -2.086   0.677  0.00  0.00    -0.279 N 
ATOM      2  C   UNL     1      -0.949  -0.737   0.724  0.00  0.00    +0.260 A 
ATOM      3  O   UNL     1      -1.805  -0.168   1.383  0.00  0.00    -0.267 OA
ATOM      4  C   UNL     1       0.002  -0.004   0.002  0.00  0.00    +0.050 A 
ATOM      5  C   UNL     1       0.964  -0.688  -0.723  0.00  0.00    +0.084 A 
ATOM      6  N   UNL     1       0.952  -2.026  -0.751  0.00  0.00    -0.214 NA
ATOM      7  C   UNL     1       0.052  -2.709  -0.072  0.00  0.00    +0.213 A 
ATOM      8  N   UNL     1       0.073  -4.077  -0.122  0.00  0.00    -0.253 N 
ATOM      9  C   UNL     1       2.011   0.078  -1.435  0.00  0.00    +0.004 A 
ATOM     10  C   UNL     1       2.809  -0.526  -2.402  0.00  0.00    +0.010 A 
ATOM     11  C   UNL     1       3.770   0.215  -3.059  0.00  0.00    +0.001 A 
ATOM     12  C   UNL     1       3.944   1.553  -2.751  0.00  0.00    +0.000 A 
ATOM     13  C   UNL     1       3.169   2.152  -1.775  0.00  0.00    +0.004 A 
ATOM     14  C   UNL     1       2.212   1.419  -1.103  0.00  0.00    -0.037 A 
ATOM     15  C   UNL     1       1.407   2.051  -0.000  0.00  0.00    +0.047 C 
ATOM     16  C   UNL     1      -0.018   1.500   0.010  0.00  0.00    +0.007 C 
ATOM     17  C   UNL     1      -0.742   1.991   1.268  0.00  0.00    +0.012 C 
ATOM     18  C   UNL     1      -0.765   3.520   1.278  0.00  0.00    +0.001 C 
ATOM     19  C   UNL     1      -1.506   4.027   0.038  0.00  0.00    +0.000 C 
ATOM     20  C   UNL     1      -0.789   3.534  -1.220  0.00  0.00    +0.001 C 
ATOM     21  C   UNL     1      -0.765   2.004  -1.228  0.00  0.00    +0.012 C 
ATOM     22  H   UNL     1      -0.584  -4.591   0.373  0.00  0.00    +0.169 HD
ENDROOT
BRANCH   8  23
ATOM     23  N   UNL     1       1.020  -4.719  -0.869  0.00  0.00    -0.254 NA
ATOM     24  H   UNL     1       0.911  -5.720  -0.809  0.00  0.00    +0.140 HD
ATOM     25  H   UNL     1       0.994  -4.410  -1.829  0.00  0.00    +0.140 HD
ENDBRANCH   8  23
BRANCH   1  26
ATOM     26  C   UNL     1      -1.868  -2.880   1.434  0.00  0.00    +0.133 C 
BRANCH  26  27
ATOM     27  C   UNL     1      -3.096  -3.151   0.562  0.00  0.00    +0.057 C 
BRANCH  27  31
ATOM     28  C   UNL     1      -5.926  -5.468   2.770  0.00  0.00    +0.000 A 
ATOM     29  C   UNL     1      -5.976  -4.088   2.817  0.00  0.00    +0.000 A 
ATOM     30  C   UNL     1      -5.060  -3.338   2.103  0.00  0.00    +0.004 A 
ATOM     31  C   UNL     1      -4.094  -3.968   1.341  0.00  0.00    -0.046 A 
ATOM     32  C   UNL     1      -4.047  -5.349   1.290  0.00  0.00    +0.004 A 
ATOM     33  C   UNL     1      -4.959  -6.099   2.008  0.00  0.00    +0.000 A 
ENDBRANCH  27  31
ENDBRANCH  26  27
ENDBRANCH   1  26
TORSDOF 4
