REMARK  Name = ZINC16312204
REMARK  7 active torsions:
REMARK  status: ('A' for Active; 'I' for Inactive)
REMARK    1  A    between atoms: C_1  and  C_2
REMARK    2  A    between atoms: C_5  and  N_9
REMARK    3  A    between atoms: C_7  and  C_8
REMARK    4  A    between atoms: C_13  and  C_14
REMARK    5  A    between atoms: C_17  and  O_22
REMARK    6  A    between atoms: C_18  and  O_20
REMARK    7  A    between atoms: O_20  and  C_21
REMARK                            x       y       z     vdW  Elec       q    Type
REMARK                         _______ _______ _______ _____ _____    ______ ____
ROOT
ATOM      1  N   UNL     1      -2.475   3.867  -0.336  0.00  0.00    -0.184 N 
ATOM      2  C   UNL     1      -3.689   3.286  -0.378  0.00  0.00    +0.272 C 
ATOM      3  O   UNL     1      -3.929   2.127  -0.660  0.00  0.00    -0.268 OA
ATOM      4  C   UNL     1      -4.673   4.324  -0.013  0.00  0.00    +0.102 C 
ATOM      5  C   UNL     1      -6.042   4.186   0.079  0.00  0.00    +0.026 C 
ATOM      6  C   UNL     1      -3.874   5.542   0.226  0.00  0.00    +0.266 C 
ATOM      7  O   UNL     1      -4.300   6.636   0.547  0.00  0.00    -0.268 OA
ATOM      8  N   UNL     1      -2.586   5.211   0.021  0.00  0.00    -0.223 N 
ATOM      9  H   UNL     1      -1.838   5.822   0.108  0.00  0.00    +0.174 HD
ENDROOT
BRANCH   1  14
ATOM     10  C   UNL     1       2.412   1.221  -1.473  0.00  0.00    +0.044 C 
ATOM     11  C   UNL     1       1.114   1.924  -1.171  0.00  0.00    -0.047 A 
ATOM     12  C   UNL     1      -0.080   1.228  -1.240  0.00  0.00    +0.005 A 
ATOM     13  C   UNL     1      -1.272   1.871  -0.968  0.00  0.00    +0.025 A 
ATOM     14  C   UNL     1      -1.270   3.215  -0.616  0.00  0.00    +0.057 A 
ATOM     15  C   UNL     1      -0.070   3.910  -0.548  0.00  0.00    +0.028 A 
ATOM     16  C   UNL     1       1.118   3.263  -0.826  0.00  0.00    -0.046 A 
ATOM     17  C   UNL     1       2.421   4.017  -0.753  0.00  0.00    +0.044 C 
ENDBRANCH   1  14
BRANCH   5  18
ATOM     18  C   UNL     1      -6.653   2.861  -0.031  0.00  0.00    -0.020 A 
ATOM     19  C   UNL     1      -6.032   1.748   0.555  0.00  0.00    +0.012 A 
ATOM     20  C   UNL     1      -6.610   0.504   0.449  0.00  0.00    +0.050 A 
ATOM     21  C   UNL     1      -7.808   0.346  -0.237  0.00  0.00    +0.158 A 
ATOM     22  C   UNL     1      -8.433   1.447  -0.823  0.00  0.00    +0.162 A 
ATOM     23  C   UNL     1      -7.865   2.700  -0.718  0.00  0.00    +0.057 A 
BRANCH  22  24
ATOM     24  O   UNL     1      -9.606   1.287  -1.492  0.00  0.00    -0.491 OA
ATOM     25  C   UNL     1     -10.191   2.457  -2.067  0.00  0.00    +0.277 C 
ENDBRANCH  22  24
BRANCH  21  26
ATOM     26  O   UNL     1      -8.373  -0.885  -0.337  0.00  0.00    -0.503 OA
ATOM     27  H   UNL     1      -8.983  -1.097   0.382  0.00  0.00    +0.292 HD
ENDBRANCH  21  26
ENDBRANCH   5  18
TORSDOF 4
