REMARK  Name = ZINC10243070
REMARK  6 active torsions:
REMARK  status: ('A' for Active; 'I' for Inactive)
REMARK    1  A    between atoms: C_1  and  C_2
REMARK    2  A    between atoms: C_7  and  C_11
REMARK    3  A    between atoms: C_11  and  S_12
REMARK    4  A    between atoms: S_12  and  C_13
REMARK    5  A    between atoms: N_17  and  C_18
REMARK    6  A    between atoms: C_23  and  C_24
REMARK                            x       y       z     vdW  Elec       q    Type
REMARK                         _______ _______ _______ _____ _____    ______ ____
ROOT
ATOM      1  S   UNL     1       2.062   5.056   2.530  0.00  0.00    -0.079 S 
ENDROOT
BRANCH   1   2
ATOM      2  C   UNL     1       2.841   4.704   0.989  0.00  0.00    +0.196 A 
ATOM      3  N   UNL     1       3.993   5.174   0.571  0.00  0.00    -0.122 NA
ATOM      4  N   UNL     1       4.256   4.710  -0.599  0.00  0.00    -0.137 NA
ATOM      5  C   UNL     1       3.299   3.919  -0.994  0.00  0.00    +0.230 A 
ATOM      6  N   UNL     1       2.358   3.890   0.001  0.00  0.00    -0.277 N 
BRANCH   6   7
ATOM      7  C   UNL     1       1.155   3.170   0.008  0.00  0.00    +0.053 A 
ATOM      8  C   UNL     1       1.174   1.782   0.000  0.00  0.00    +0.026 A 
ATOM      9  C   UNL     1      -0.013   1.076   0.008  0.00  0.00    +0.002 A 
ATOM     10  C   UNL     1      -1.220   1.750   0.017  0.00  0.00    +0.000 A 
ATOM     11  C   UNL     1      -1.242   3.133   0.031  0.00  0.00    +0.005 A 
ATOM     12  C   UNL     1      -0.059   3.844   0.023  0.00  0.00    -0.027 A 
ATOM     13  C   UNL     1      -0.084   5.351   0.032  0.00  0.00    +0.046 C 
ENDBRANCH   6   7
ENDBRANCH   1   2
BRANCH   1  14
ATOM     14  C   UNL     1       3.288   6.175   3.252  0.00  0.00    +0.134 C 
BRANCH  14  21
ATOM     15  C   UNL     1       0.394   9.397   9.241  0.00  0.00    +0.045 C 
ATOM     16  C   UNL     1       1.148   8.429   8.367  0.00  0.00    -0.034 A 
ATOM     17  C   UNL     1       1.807   7.332   8.946  0.00  0.00    +0.008 A 
ATOM     18  C   UNL     1       2.487   6.459   8.154  0.00  0.00    +0.047 A 
ATOM     19  C   UNL     1       2.518   6.672   6.761  0.00  0.00    +0.138 A 
ATOM     20  N   UNL     1       3.088   6.003   5.769  0.00  0.00    -0.232 NA
ATOM     21  C   UNL     1       2.821   6.619   4.615  0.00  0.00    +0.070 A 
ATOM     22  C   UNL     1       2.068   7.711   4.873  0.00  0.00    +0.116 A 
ATOM     23  N   UNL     1       1.865   7.752   6.225  0.00  0.00    -0.306 N 
ATOM     24  C   UNL     1       1.187   8.619   7.032  0.00  0.00    +0.096 A 
ENDBRANCH  14  21
ENDBRANCH   1  14
TORSDOF 4
