REMARK  Name = ZINC02870591
REMARK  5 active torsions:
REMARK  status: ('A' for Active; 'I' for Inactive)
REMARK    1  A    between atoms: C_8  and  C_10
REMARK    2  A    between atoms: N_12  and  N_13
REMARK    3  A    between atoms: C_14  and  C_16
REMARK    4  A    between atoms: C_16  and  N_17
REMARK    5  A    between atoms: C_18  and  C_20
REMARK                            x       y       z     vdW  Elec       q    Type
REMARK                         _______ _______ _______ _____ _____    ______ ____
ROOT
ATOM      1  N   UNL     1       3.738   8.740   0.014  0.00  0.00    -0.233 N 
ATOM      2  C   UNL     1       3.364  10.034   0.024  0.00  0.00    +0.246 C 
ATOM      3  O   UNL     1       2.187  10.326   0.036  0.00  0.00    -0.273 OA
ATOM      4  H   UNL     1       4.680   8.507   0.004  0.00  0.00    +0.173 HD
ENDROOT
BRANCH   1   7
ATOM      5  C   UNL     1       3.140   6.435   0.007  0.00  0.00    +0.268 C 
ATOM      6  O   UNL     1       4.322   6.143  -0.006  0.00  0.00    -0.268 OA
ATOM      7  N   UNL     1       2.767   7.730   0.017  0.00  0.00    -0.230 N 
ATOM      8  H   UNL     1       1.825   7.963   0.027  0.00  0.00    +0.173 HD
BRANCH   5  16
ATOM      9  C   UNL     1      -0.013   1.076   0.008  0.00  0.00    +0.001 A 
ATOM     10  C   UNL     1      -1.235   1.737   0.017  0.00  0.00    +0.001 A 
ATOM     11  C   UNL     1      -1.261   3.117   0.030  0.00  0.00    +0.016 A 
ATOM     12  C   UNL     1      -0.075   3.819   0.022  0.00  0.00    +0.021 A 
ATOM     13  C   UNL     1       1.184   3.173   0.007  0.00  0.00    +0.008 A 
ATOM     14  C   UNL     1       1.164   1.754   0.000  0.00  0.00    +0.010 A 
ATOM     15  C   UNL     1       2.301   4.028   0.002  0.00  0.00    +0.068 A 
ATOM     16  C   UNL     1       2.122   5.377   0.011  0.00  0.00    +0.095 A 
ATOM     17  S   UNL     1       0.346   5.544   0.028  0.00  0.00    -0.082 S 
ATOM     18 CL   UNL     1       3.905   3.364  -0.017  0.00  0.00    -0.082 Cl
ENDBRANCH   5  16
ENDBRANCH   1   7
BRANCH   2  19
ATOM     19  C   UNL     1       4.409  11.120   0.020  0.00  0.00    +0.201 C 
BRANCH  19  20
ATOM     20  N   UNL     1       3.752  12.430   0.033  0.00  0.00    -0.306 N 
ATOM     21  C   UNL     1       4.494  13.556   0.033  0.00  0.00    +0.217 C 
ATOM     22  O   UNL     1       5.704  13.484   0.021  0.00  0.00    -0.276 OA
ATOM     23  H   UNL     1       2.784  12.487   0.043  0.00  0.00    +0.149 HD
BRANCH  21  24
ATOM     24  C   UNL     1       3.818  14.903   0.046  0.00  0.00    +0.075 C 
ATOM     25  C   UNL     1       2.933  15.042  -1.194  0.00  0.00    +0.013 C 
ATOM     26  C   UNL     1       2.248  16.410  -1.181  0.00  0.00    +0.001 C 
ATOM     27  C   UNL     1       3.308  17.512  -1.185  0.00  0.00    +0.000 C 
ATOM     28  C   UNL     1       4.193  17.373   0.056  0.00  0.00    +0.001 C 
ATOM     29  C   UNL     1       4.879  16.005   0.042  0.00  0.00    +0.013 C 
ENDBRANCH  21  24
ENDBRANCH  19  20
ENDBRANCH   2  19
TORSDOF 5
