REMARK  Name = ZINC23259760
REMARK  11 active torsions:
REMARK  status: ('A' for Active; 'I' for Inactive)
REMARK    1  A    between atoms: C_1  and  C_2
REMARK    2  A    between atoms: C_5  and  C_8
REMARK    3  A    between atoms: C_9  and  C_35
REMARK    4  A    between atoms: C_17  and  C_19
REMARK    5  A    between atoms: C_19  and  N_20
REMARK    6  A    between atoms: N_20  and  C_21
REMARK    7  A    between atoms: N_20  and  C_22
REMARK    8  A    between atoms: C_22  and  C_24
REMARK    9  A    between atoms: C_22  and  C_25
REMARK   10  A    between atoms: C_28  and  S_31
REMARK   11  A    between atoms: S_31  and  N_34
REMARK                            x       y       z     vdW  Elec       q    Type
REMARK                         _______ _______ _______ _____ _____    ______ ____
ROOT
ATOM      1  C   UNL     1       0.060  -4.255  -0.021  0.00  0.00    +0.007 A 
ATOM      2  C   UNL     1      -0.988  -4.956  -0.517  0.00  0.00    -0.003 A 
ATOM      3  S   UNL     1      -0.486  -6.653  -0.304  0.00  0.00    -0.073 S 
ATOM      4  C   UNL     1       1.102  -6.384   0.439  0.00  0.00    +0.116 A 
ATOM      5  C   UNL     1       1.209  -4.985   0.499  0.00  0.00    +0.080 A 
ATOM      6  C   UNL     1       2.424  -4.480   1.063  0.00  0.00    +0.260 A 
ATOM      7  O   UNL     1       2.607  -3.279   1.162  0.00  0.00    -0.267 OA
ATOM      8  N   UNL     1       3.360  -5.351   1.484  0.00  0.00    -0.309 N 
ATOM      9  H   UNL     1       4.184  -5.014   1.868  0.00  0.00    +0.170 HD
ATOM     10  C   UNL     1       3.171  -6.692   1.383  0.00  0.00    +0.125 A 
ATOM     11  N   UNL     1       2.070  -7.183   0.881  0.00  0.00    -0.225 NA
ATOM     12  C   UNL     1      -2.270  -4.428  -1.108  0.00  0.00    +0.052 C 
ENDROOT
BRANCH   1  17
ATOM     13  C   UNL     1      -0.018   1.503   0.010  0.00  0.00    +0.044 C 
ATOM     14  C   UNL     1       0.002  -0.004   0.002  0.00  0.00    -0.050 A 
ATOM     15  C   UNL     1       0.006  -0.686  -1.201  0.00  0.00    +0.004 A 
ATOM     16  C   UNL     1       0.024  -2.066  -1.215  0.00  0.00    +0.009 A 
ATOM     17  C   UNL     1       0.040  -2.772  -0.013  0.00  0.00    -0.016 A 
ATOM     18  C   UNL     1       0.037  -2.079   1.196  0.00  0.00    +0.009 A 
ATOM     19  C   UNL     1       0.023  -0.699   1.198  0.00  0.00    +0.004 A 
ENDBRANCH   1  17
BRANCH  10  20
ATOM     20  C   UNL     1       4.247  -7.629   1.867  0.00  0.00    +0.159 C 
BRANCH  20  21
ATOM     21  N   UNL     1       3.818  -9.018   1.655  0.00  0.00    -0.292 NA
ATOM     22  C   UNL     1       2.662  -9.347   2.498  0.00  0.00    +0.106 C 
BRANCH  21  23
ATOM     23  C   UNL     1       4.926  -9.953   1.892  0.00  0.00    +0.084 C 
ATOM     24  C   UNL     1       6.073  -9.641   0.928  0.00  0.00    +0.029 C 
BRANCH  23  25
ATOM     25  C   UNL     1       4.450 -11.365   1.665  0.00  0.00    -0.030 A 
ATOM     26  C   UNL     1       3.602 -11.646   0.610  0.00  0.00    +0.007 A 
ATOM     27  C   UNL     1       3.164 -12.941   0.401  0.00  0.00    +0.029 A 
ATOM     28  C   UNL     1       3.576 -13.954   1.247  0.00  0.00    +0.105 A 
ATOM     29  C   UNL     1       4.425 -13.673   2.301  0.00  0.00    +0.029 A 
ATOM     30  C   UNL     1       4.865 -12.379   2.507  0.00  0.00    +0.007 A 
BRANCH  28  31
ATOM     31  S   UNL     1       3.018 -15.604   0.982  0.00  0.00    +0.056 S 
ATOM     32  O   UNL     1       3.110 -16.270   2.234  0.00  0.00    -0.153 OA
ATOM     33  O   UNL     1       1.799 -15.509   0.258  0.00  0.00    -0.153 OA
BRANCH  31  34
ATOM     34  N   UNL     1       4.111 -16.335  -0.025  0.00  0.00    -0.204 NA
ATOM     35  H   UNL     1       4.881 -15.840  -0.346  0.00  0.00    +0.144 HD
ATOM     36  H   UNL     1       3.981 -17.258  -0.294  0.00  0.00    +0.144 HD
ENDBRANCH  31  34
ENDBRANCH  28  31
ENDBRANCH  23  25
ENDBRANCH  21  23
ENDBRANCH  20  21
ENDBRANCH  10  20
TORSDOF 7
