REMARK  Name = ZINC64847333
REMARK  7 active torsions:
REMARK  status: ('A' for Active; 'I' for Inactive)
REMARK    1  A    between atoms: C_1  and  C_2
REMARK    2  A    between atoms: C_3  and  C_23
REMARK    3  A    between atoms: C_4  and  C_22
REMARK    4  A    between atoms: C_7  and  C_8
REMARK    5  A    between atoms: N_10  and  C_11
REMARK    6  A    between atoms: N_20  and  C_21
REMARK    7  A    between atoms: C_23  and  C_25
REMARK                            x       y       z     vdW  Elec       q    Type
REMARK                         _______ _______ _______ _____ _____    ______ ____
ROOT
ATOM      1  C   UNL     1       0.171  -0.408   2.476  0.00  0.00    +0.265 C 
ATOM      2  O   UNL     1       0.303   0.768   2.760  0.00  0.00    -0.268 OA
ATOM      3  N   UNL     1       0.030  -1.325   3.454  0.00  0.00    -0.280 N 
ATOM      4  H   UNL     1      -0.000  -2.269   3.233  0.00  0.00    +0.155 HD
ENDROOT
BRANCH   3   5
ATOM      5  C   UNL     1      -0.072  -0.915   4.789  0.00  0.00    +0.034 A 
ATOM      6  C   UNL     1      -0.700   0.284   5.102  0.00  0.00    +0.025 A 
ATOM      7  C   UNL     1      -0.797   0.685   6.418  0.00  0.00    +0.025 A 
ATOM      8  C   UNL     1      -0.270  -0.109   7.431  0.00  0.00    +0.033 A 
ATOM      9  C   UNL     1       0.354  -1.307   7.122  0.00  0.00    -0.025 A 
ATOM     10  C   UNL     1       0.448  -1.710   5.800  0.00  0.00    +0.028 A 
ATOM     11  C   UNL     1       0.927  -2.195   8.195  0.00  0.00    +0.038 C 
ATOM     12  C   UNL     1       1.180  -1.397   9.473  0.00  0.00    +0.024 C 
ATOM     13  C   UNL     1      -0.099  -0.632   9.841  0.00  0.00    +0.105 C 
ATOM     14  N   UNL     1      -0.377   0.323   8.760  0.00  0.00    -0.333 N 
ATOM     15  C   UNL     1      -0.761   1.703   9.066  0.00  0.00    +0.129 C 
ENDBRANCH   3   5
BRANCH   1  22
ATOM     16  C   UNL     1       0.475   1.491   0.022  0.00  0.00    +0.047 C 
ATOM     17  C   UNL     1       0.297  -0.005  -0.008  0.00  0.00    -0.010 A 
ATOM     18  C   UNL     1       0.242  -0.823  -1.162  0.00  0.00    +0.041 A 
ATOM     19  C   UNL     1       0.071  -2.128  -0.726  0.00  0.00    +0.024 A 
ATOM     20  N   UNL     1       0.022  -2.121   0.615  0.00  0.00    -0.354 N 
ATOM     21  H   UNL     1      -0.092  -2.904   1.176  0.00  0.00    +0.166 HD
ATOM     22  C   UNL     1       0.165  -0.828   1.070  0.00  0.00    +0.106 A 
ATOM     23  C   UNL     1      -0.043  -3.345  -1.607  0.00  0.00    +0.064 C 
BRANCH  18  24
ATOM     24  C   UNL     1       0.347  -0.376  -2.555  0.00  0.00    +0.162 C 
ATOM     25  O   UNL     1      -0.657  -0.149  -3.196  0.00  0.00    -0.292 OA
ATOM     26  C   UNL     1       1.703  -0.199  -3.189  0.00  0.00    +0.091 C 
ENDBRANCH  18  24
ENDBRANCH   1  22
TORSDOF 3
