REMARK  Name = ZINC41091331
REMARK  6 active torsions:
REMARK  status: ('A' for Active; 'I' for Inactive)
REMARK    1  A    between atoms: C_1  and  C_2
REMARK    2  A    between atoms: C_2  and  C_3
REMARK    3  A    between atoms: N_9  and  S_10
REMARK    4  A    between atoms: S_10  and  C_13
REMARK    5  A    between atoms: N_25  and  C_26
REMARK    6  A    between atoms: C_26  and  C_27
REMARK                            x       y       z     vdW  Elec       q    Type
REMARK                         _______ _______ _______ _____ _____    ______ ____
ROOT
ATOM      1  C   UNL     1       3.101   0.018   1.181  0.00  0.00    +0.113 A 
ATOM      2  C   UNL     1       4.422  -0.113   1.514  0.00  0.00    +0.031 A 
ATOM      3  C   UNL     1       4.871  -0.924   2.555  0.00  0.00    +0.026 A 
ATOM      4  C   UNL     1       3.965  -1.645   3.309  0.00  0.00    +0.045 A 
ATOM      5  C   UNL     1       2.626  -1.502   2.960  0.00  0.00    +0.018 A 
ATOM      6  C   UNL     1       2.148  -0.695   1.927  0.00  0.00    +0.011 A 
ATOM      7  C   UNL     1       0.757  -0.669   1.723  0.00  0.00    +0.010 A 
ATOM      8  C   UNL     1      -0.046  -1.422   2.538  0.00  0.00    +0.001 A 
ATOM      9  C   UNL     1       0.448  -2.220   3.569  0.00  0.00    +0.014 A 
ATOM     10  C   UNL     1       1.812  -2.281   3.796  0.00  0.00    +0.047 A 
ATOM     11  C   UNL     1       2.755  -2.934   4.712  0.00  0.00    +0.251 C 
ATOM     12  O   UNL     1       2.465  -3.705   5.607  0.00  0.00    -0.270 OA
ATOM     13  N   UNL     1       4.010  -2.526   4.383  0.00  0.00    -0.267 N 
ENDROOT
BRANCH   1  14
ATOM     14  S   UNL     1       2.606   1.062  -0.149  0.00  0.00    +0.062 S 
ATOM     15  O   UNL     1       3.795   1.623  -0.689  0.00  0.00    -0.153 OA
ATOM     16  O   UNL     1       1.538   1.863   0.339  0.00  0.00    -0.153 OA
BRANCH  14  22
ATOM     17  C   UNL     1       2.844  -0.671  -2.228  0.00  0.00    +0.080 C 
ATOM     18  C   UNL     1       2.456  -0.358  -3.676  0.00  0.00    +0.021 C 
ATOM     19  C   UNL     1       0.963  -0.634  -3.872  0.00  0.00    +0.003 C 
ATOM     20  C   UNL     1       0.149   0.273  -2.946  0.00  0.00    +0.017 C 
ATOM     21  C   UNL     1       0.511  -0.033  -1.490  0.00  0.00    +0.110 C 
ATOM     22  N   UNL     1       1.966   0.087  -1.325  0.00  0.00    -0.174 NA
BRANCH  17  24
ATOM     23  C   UNL     1       5.222  -1.168  -2.811  0.00  0.00    +0.005 C 
ATOM     24  C   UNL     1       4.300  -0.267  -1.988  0.00  0.00    +0.017 C 
ENDBRANCH  17  24
ENDBRANCH  14  22
ENDBRANCH   1  14
BRANCH  13  25
ATOM     25  C   UNL     1       5.234  -2.955   5.063  0.00  0.00    +0.110 C 
ATOM     26  C   UNL     1       5.540  -1.996   6.215  0.00  0.00    +0.025 C 
ENDBRANCH  13  25
TORSDOF 4
