REMARK  Name = ZINC36595766
REMARK  11 active torsions:
REMARK  status: ('A' for Active; 'I' for Inactive)
REMARK    1  A    between atoms: C_1  and  C_2
REMARK    2  A    between atoms: C_5  and  C_7
REMARK    3  A    between atoms: C_7  and  N_8
REMARK    4  A    between atoms: N_8  and  C_9
REMARK    5  A    between atoms: C_9  and  C_11
REMARK    6  A    between atoms: C_9  and  C_20
REMARK    7  A    between atoms: C_12  and  O_19
REMARK    8  A    between atoms: C_14  and  O_18
REMARK    9  A    between atoms: C_16  and  O_17
REMARK   10  A    between atoms: N_22  and  C_23
REMARK   11  A    between atoms: C_29  and  C_31
REMARK                            x       y       z     vdW  Elec       q    Type
REMARK                         _______ _______ _______ _____ _____    ______ ____
ROOT
ATOM      1  C   UNL     1       2.918  -3.208  -2.308  0.00  0.00    +0.200 C 
ENDROOT
BRANCH   1   2
ATOM      2  C   UNL     1       2.046  -2.670  -3.412  0.00  0.00    +0.065 A 
ATOM      3  C   UNL     1       2.154  -3.186  -4.695  0.00  0.00    +0.129 A 
ATOM      4  C   UNL     1       1.351  -2.691  -5.711  0.00  0.00    +0.091 A 
ATOM      5  C   UNL     1       0.441  -1.679  -5.445  0.00  0.00    +0.124 A 
ATOM      6  C   UNL     1       0.332  -1.163  -4.162  0.00  0.00    +0.091 A 
ATOM      7  C   UNL     1       1.132  -1.662  -3.145  0.00  0.00    +0.129 A 
BRANCH   7   8
ATOM      8  O   UNL     1       1.023  -1.160  -1.887  0.00  0.00    -0.506 OA
ATOM      9  H   UNL     1       1.543  -0.358  -1.737  0.00  0.00    +0.292 HD
ENDBRANCH   7   8
BRANCH   5  10
ATOM     10  O   UNL     1      -0.345  -1.193  -6.441  0.00  0.00    -0.507 OA
ATOM     11  H   UNL     1      -1.188  -1.656  -6.539  0.00  0.00    +0.292 HD
ENDBRANCH   5  10
BRANCH   3  12
ATOM     12  O   UNL     1       3.046  -4.178  -4.955  0.00  0.00    -0.506 OA
ATOM     13  H   UNL     1       2.666  -5.066  -4.928  0.00  0.00    +0.292 HD
ENDBRANCH   3  12
ENDBRANCH   1   2
BRANCH   1  14
ATOM     14  C   UNL     1       3.717  -4.378  -2.823  0.00  0.00    +0.239 C 
ATOM     15  O   UNL     1       3.298  -5.507  -2.683  0.00  0.00    -0.273 OA
ATOM     16  N   UNL     1       4.897  -4.168  -3.439  0.00  0.00    -0.311 N 
ATOM     17  H   UNL     1       5.263  -3.271  -3.496  0.00  0.00    +0.149 HD
BRANCH  16  18
ATOM     18  C   UNL     1       5.629  -5.295  -4.024  0.00  0.00    +0.073 C 
ATOM     19  C   UNL     1       6.479  -5.967  -2.945  0.00  0.00    +0.022 C 
ATOM     20  C   UNL     1       7.242  -7.144  -3.556  0.00  0.00    +0.002 C 
ATOM     21  C   UNL     1       8.151  -6.635  -4.677  0.00  0.00    +0.000 C 
ATOM     22  C   UNL     1       7.300  -5.963  -5.757  0.00  0.00    +0.002 C 
ATOM     23  C   UNL     1       6.537  -4.786  -5.146  0.00  0.00    +0.022 C 
ENDBRANCH  16  18
ENDBRANCH   1  14
BRANCH   1  24
ATOM     24  N   UNL     1       2.077  -3.646  -1.191  0.00  0.00    -0.272 N 
ATOM     25  C   UNL     1       1.041  -4.479  -1.413  0.00  0.00    +0.283 C 
ATOM     26  O   UNL     1       0.739  -4.783  -2.552  0.00  0.00    -0.267 OA
BRANCH  25  27
ATOM     27  C   UNL     1       0.278  -5.018  -0.283  0.00  0.00    +0.189 A 
ATOM     28  C   UNL     1      -0.754  -5.909  -0.364  0.00  0.00    +0.054 A 
ATOM     29  C   UNL     1      -1.186  -6.146   0.951  0.00  0.00    +0.042 A 
ATOM     30  C   UNL     1      -0.409  -5.399   1.766  0.00  0.00    +0.196 A 
ATOM     31  O   UNL     1       0.475  -4.724   1.019  0.00  0.00    -0.458 OA
ENDBRANCH  25  27
BRANCH  24  32
ATOM     32  C   UNL     1       2.363  -3.179   0.168  0.00  0.00    +0.183 C 
BRANCH  32  37
ATOM     33  C   UNL     1       0.726   1.553   0.775  0.00  0.00    +0.086 C 
ATOM     34  C   UNL     1       0.757   0.047   0.760  0.00  0.00    +0.102 A 
ATOM     35  C   UNL     1      -0.252  -0.764   1.125  0.00  0.00    +0.045 A 
ATOM     36  C   UNL     1       0.207  -2.091   0.955  0.00  0.00    +0.046 A 
ATOM     37  C   UNL     1       1.469  -2.011   0.496  0.00  0.00    +0.122 A 
ATOM     38  O   UNL     1       1.795  -0.714   0.374  0.00  0.00    -0.463 OA
ENDBRANCH  32  37
ENDBRANCH  24  32
ENDBRANCH   1  24
TORSDOF 10
