REMARK  Name = ZINC08897508
REMARK  6 active torsions:
REMARK  status: ('A' for Active; 'I' for Inactive)
REMARK    1  A    between atoms: C_1  and  C_2
REMARK    2  A    between atoms: C_15  and  S_17
REMARK    3  A    between atoms: S_17  and  C_18
REMARK    4  A    between atoms: C_18  and  C_19
REMARK    5  A    between atoms: N_21  and  C_22
REMARK    6  A    between atoms: C_23  and  C_31
REMARK                            x       y       z     vdW  Elec       q    Type
REMARK                         _______ _______ _______ _____ _____    ______ ____
ROOT
ATOM      1  C   UNL     1      -3.559   2.983   0.037  0.00  0.00    +0.173 C 
ENDROOT
BRANCH   1   2
ATOM      2  C   UNL     1      -2.366   2.062   0.026  0.00  0.00    +0.228 C 
ATOM      3  O   UNL     1      -2.527   0.860   0.020  0.00  0.00    -0.275 OA
ATOM      4  N   UNL     1      -1.119   2.575   0.022  0.00  0.00    -0.279 N 
ATOM      5  H   UNL     1      -0.991   3.537   0.026  0.00  0.00    +0.155 HD
BRANCH   4   6
ATOM      6  C   UNL     1      -0.021   1.728   0.011  0.00  0.00    +0.084 A 
ATOM      7  C   UNL     1       1.325   2.063   0.001  0.00  0.00    +0.068 A 
ATOM      8  C   UNL     1       2.288   0.974  -0.014  0.00  0.00    -0.023 A 
ATOM      9  C   UNL     1       1.753  -0.266  -0.016  0.00  0.00    -0.004 A 
ATOM     10  S   UNL     1       0.002  -0.004   0.002  0.00  0.00    -0.077 S 
ATOM     11  C   UNL     1       2.492  -1.568  -0.031  0.00  0.00    +0.043 C 
ATOM     12  C   UNL     1       3.951  -1.292  -0.422  0.00  0.00    +0.005 C 
ATOM     13  C   UNL     1       4.473  -0.121   0.416  0.00  0.00    +0.005 C 
ATOM     14  C   UNL     1       3.798   1.178  -0.027  0.00  0.00    +0.037 C 
BRANCH   7  15
ATOM     15  C   UNL     1       1.761   3.463   0.004  0.00  0.00    +0.244 C 
ATOM     16  O   UNL     1       1.952   4.038   1.059  0.00  0.00    -0.270 OA
ATOM     17  N   UNL     1       1.950   4.113  -1.162  0.00  0.00    -0.325 N 
ATOM     18  H   UNL     1       1.797   3.654  -2.003  0.00  0.00    +0.145 HD
ATOM     19  H   UNL     1       2.238   5.039  -1.160  0.00  0.00    +0.145 HD
ENDBRANCH   7  15
ENDBRANCH   4   6
ENDBRANCH   1   2
BRANCH   1  20
ATOM     20  S   UNL     1      -5.079   2.000   0.040  0.00  0.00    -0.078 S 
BRANCH  20  34
ATOM     21  C   UNL     1     -11.231  10.201   0.016  0.00  0.00    +0.008 C 
ATOM     22  C   UNL     1     -10.488   8.897  -0.279  0.00  0.00    -0.009 C 
ATOM     23  C   UNL     1     -11.085   7.761   0.556  0.00  0.00    +0.008 C 
ATOM     24  C   UNL     1     -10.521   6.419   0.088  0.00  0.00    +0.037 C 
ATOM     25  C   UNL     1      -8.997   6.501   0.081  0.00  0.00    -0.023 A 
ATOM     26  C   UNL     1      -8.371   7.696   0.084  0.00  0.00    -0.004 A 
ATOM     27  S   UNL     1      -6.641   7.310   0.074  0.00  0.00    -0.073 S 
ATOM     28  C   UNL     1      -6.763   5.539   0.066  0.00  0.00    +0.117 A 
ATOM     29  C   UNL     1      -8.149   5.307   0.072  0.00  0.00    +0.075 A 
ATOM     30  C   UNL     1      -8.551   3.934   0.067  0.00  0.00    +0.261 A 
ATOM     31  O   UNL     1      -9.733   3.636   0.073  0.00  0.00    -0.267 OA
ATOM     32  N   UNL     1      -7.606   2.976   0.058  0.00  0.00    -0.301 N 
ATOM     33  H   UNL     1      -7.874   2.044   0.055  0.00  0.00    +0.171 HD
ATOM     34  C   UNL     1      -6.278   3.291   0.052  0.00  0.00    +0.170 A 
ATOM     35  N   UNL     1      -5.881   4.547   0.062  0.00  0.00    -0.216 NA
ATOM     36  C   UNL     1      -9.006   9.053   0.092  0.00  0.00    +0.046 C 
ENDBRANCH  20  34
ENDBRANCH   1  20
TORSDOF 5
