REMARK  Name = ZINC38085459
REMARK  4 active torsions:
REMARK  status: ('A' for Active; 'I' for Inactive)
REMARK    1  A    between atoms: C_3  and  O_11
REMARK    2  A    between atoms: C_4  and  C_8
REMARK    3  A    between atoms: C_6  and  N_7
REMARK    4  A    between atoms: O_11  and  C_12
REMARK                            x       y       z     vdW  Elec       q    Type
REMARK                         _______ _______ _______ _____ _____    ______ ____
ROOT
ATOM      1  C   UNL     1      -0.006   1.369  -0.242  0.00  0.00    +0.026 A 
ATOM      2  C   UNL     1       1.175   2.083  -0.238  0.00  0.00    +0.048 A 
ATOM      3  C   UNL     1       2.381   1.435  -0.024  0.00  0.00    +0.135 A 
ATOM      4  C   UNL     1       2.400   0.048   0.189  0.00  0.00    +0.106 A 
ATOM      5  C   UNL     1       1.199  -0.669   0.184  0.00  0.00    +0.041 A 
ATOM      6  C   UNL     1       0.004  -0.007  -0.031  0.00  0.00    +0.026 A 
ENDROOT
BRANCH   6   7
ATOM      7  N   UNL     1      -1.199  -0.722  -0.037  0.00  0.00    -0.358 N 
ATOM      8  H   UNL     1      -2.038  -0.259  -0.188  0.00  0.00    +0.142 HD
ATOM      9  H   UNL     1      -1.194  -1.681   0.110  0.00  0.00    +0.142 HD
ENDBRANCH   6   7
BRANCH   4  10
ATOM     10  C   UNL     1       3.676  -0.648   0.416  0.00  0.00    +0.390 C 
ATOM     11  O   UNL     1       3.689  -1.857   0.602  0.00  0.00    -0.240 OA
ATOM     12  O   UNL     1       4.725  -0.018   0.420  0.00  0.00    -0.240 OA
ENDBRANCH   4  10
BRANCH   3  13
ATOM     13  O   UNL     1       3.541   2.139  -0.022  0.00  0.00    -0.486 OA
BRANCH  13  14
ATOM     14  C   UNL     1       3.437   3.561  -0.124  0.00  0.00    +0.196 C 
ATOM     15  C   UNL     1       3.359   3.970  -1.605  0.00  0.00    +0.069 C 
ATOM     16  C   UNL     1       3.568   5.497  -1.742  0.00  0.00    +0.169 C 
ATOM     17  S   UNL     1       4.620   5.893  -0.285  0.00  0.00    -0.027 S 
ATOM     18  O   UNL     1       3.907   6.772   0.574  0.00  0.00    -0.174 OA
ATOM     19  O   UNL     1       5.917   6.255  -0.737  0.00  0.00    -0.174 OA
ATOM     20  C   UNL     1       4.699   4.226   0.495  0.00  0.00    +0.210 C 
ENDBRANCH  13  14
ENDBRANCH   3  13
TORSDOF 4
