REMARK  Name = ZINC12339786
REMARK  7 active torsions:
REMARK  status: ('A' for Active; 'I' for Inactive)
REMARK    1  A    between atoms: C_4  and  N_7
REMARK    2  A    between atoms: N_7  and  N_8
REMARK    3  A    between atoms: C_9  and  N_23
REMARK    4  A    between atoms: C_13  and  C_14
REMARK    5  A    between atoms: C_19  and  O_20
REMARK    6  A    between atoms: N_23  and  S_24
REMARK    7  A    between atoms: S_24  and  C_27
REMARK                            x       y       z     vdW  Elec       q    Type
REMARK                         _______ _______ _______ _____ _____    ______ ____
ROOT
ATOM      1  N   UNL     1      -2.361   3.500  -2.351  0.00  0.00    -0.197 N 
ATOM      2  C   UNL     1      -1.125   3.309  -1.574  0.00  0.00    +0.287 C 
ATOM      3  N   UNL     1      -0.069   3.849  -2.447  0.00  0.00    -0.231 N 
ATOM      4  N   UNL     1      -0.709   4.295  -3.609  0.00  0.00    -0.167 NA
ATOM      5  C   UNL     1      -1.986   4.099  -3.551  0.00  0.00    +0.169 C 
ATOM      6  H   UNL     1       0.881   3.887  -2.255  0.00  0.00    +0.172 HD
ENDROOT
BRANCH   5   7
ATOM      7  C   UNL     1      -2.930   4.465  -4.627  0.00  0.00    +0.062 A 
ATOM      8  C   UNL     1      -4.295   4.216  -4.476  0.00  0.00    +0.035 A 
ATOM      9  C   UNL     1      -5.173   4.560  -5.484  0.00  0.00    +0.043 A 
ATOM     10  C   UNL     1      -4.705   5.154  -6.645  0.00  0.00    +0.043 A 
ATOM     11  C   UNL     1      -3.355   5.406  -6.805  0.00  0.00    +0.084 A 
ATOM     12  C   UNL     1      -2.462   5.069  -5.800  0.00  0.00    +0.146 A 
ATOM     13 CL   UNL     1      -2.779   6.150  -8.263  0.00  0.00    -0.080 Cl
ATOM     14 CL   UNL     1      -6.871   4.250  -5.296  0.00  0.00    -0.083 Cl
BRANCH  12  15
ATOM     15  O   UNL     1      -1.135   5.321  -5.953  0.00  0.00    -0.505 OA
ATOM     16  H   UNL     1      -0.642   4.598  -6.365  0.00  0.00    +0.292 HD
ENDBRANCH  12  15
ENDBRANCH   5   7
BRANCH   1  17
ATOM     17  N   UNL     1      -3.660   3.149  -1.959  0.00  0.00    -0.260 N 
ATOM     18  H   UNL     1      -3.935   2.219  -1.970  0.00  0.00    +0.170 HD
BRANCH  17  22
ATOM     19  C   UNL     1      -6.339   6.097  -0.748  0.00  0.00    +0.000 A 
ATOM     20  C   UNL     1      -6.732   4.772  -0.764  0.00  0.00    +0.002 A 
ATOM     21  C   UNL     1      -5.846   3.791  -1.165  0.00  0.00    +0.024 A 
ATOM     22  C   UNL     1      -4.558   4.138  -1.553  0.00  0.00    +0.045 A 
ATOM     23  C   UNL     1      -4.164   5.470  -1.531  0.00  0.00    +0.024 A 
ATOM     24  C   UNL     1      -5.057   6.446  -1.134  0.00  0.00    +0.002 A 
ENDBRANCH  17  22
ENDBRANCH   1  17
BRANCH   2  25
ATOM     25  N   UNL     1      -0.897   1.885  -1.312  0.00  0.00    -0.151 NA
ATOM     26  H   UNL     1      -1.263   1.218  -1.913  0.00  0.00    +0.152 HD
BRANCH  25  27
ATOM     27  S   UNL     1      -0.017   1.417   0.010  0.00  0.00    +0.061 S 
ATOM     28  O   UNL     1       0.002  -0.004   0.002  0.00  0.00    -0.153 OA
ATOM     29  O   UNL     1       1.172   2.195   0.003  0.00  0.00    -0.153 OA
BRANCH  27  30
ATOM     30  C   UNL     1      -0.927   1.900   1.439  0.00  0.00    +0.105 A 
ATOM     31  C   UNL     1      -0.717   3.145   2.004  0.00  0.00    +0.028 A 
ATOM     32  C   UNL     1      -1.434   3.526   3.123  0.00  0.00    +0.002 A 
ATOM     33  C   UNL     1      -2.353   2.659   3.683  0.00  0.00    +0.000 A 
ATOM     34  C   UNL     1      -2.559   1.412   3.121  0.00  0.00    +0.002 A 
ATOM     35  C   UNL     1      -1.846   1.033   2.000  0.00  0.00    +0.028 A 
ENDBRANCH  27  30
ENDBRANCH  25  27
ENDBRANCH   2  25
TORSDOF 7
