REMARK  Name = ZINC10243613
REMARK  6 active torsions:
REMARK  status: ('A' for Active; 'I' for Inactive)
REMARK    1  A    between atoms: C_6  and  C_7
REMARK    2  A    between atoms: C_7  and  S_8
REMARK    3  A    between atoms: S_8  and  C_9
REMARK    4  A    between atoms: C_14  and  N_18
REMARK    5  A    between atoms: C_15  and  N_17
REMARK    6  A    between atoms: C_19  and  C_21
REMARK                            x       y       z     vdW  Elec       q    Type
REMARK                         _______ _______ _______ _____ _____    ______ ____
ROOT
ATOM      1  C   UNL     1       3.286   8.938   0.207  0.00  0.00    +0.171 A 
ATOM      2  N   UNL     1       3.854   7.704   0.112  0.00  0.00    -0.300 N 
ATOM      3  H   UNL     1       4.820   7.616   0.089  0.00  0.00    +0.171 HD
ATOM      4  C   UNL     1       3.077   6.602   0.056  0.00  0.00    +0.275 A 
ATOM      5  O   UNL     1       3.579   5.491  -0.024  0.00  0.00    -0.266 OA
ATOM      6  C   UNL     1       1.683   6.755   0.086  0.00  0.00    +0.139 A 
ATOM      7  C   UNL     1       1.155   8.038   0.183  0.00  0.00    +0.146 A 
ATOM      8  N   UNL     1       1.979   9.091   0.241  0.00  0.00    -0.207 NA
ENDROOT
BRANCH   6   9
ATOM      9  N   UNL     1       0.836   5.632   0.025  0.00  0.00    -0.272 N 
ATOM     10  C   UNL     1       0.900   4.796  -1.030  0.00  0.00    +0.284 C 
ATOM     11  O   UNL     1       1.625   5.059  -1.972  0.00  0.00    -0.266 OA
ATOM     12  H   UNL     1       0.205   5.461   0.742  0.00  0.00    +0.155 HD
BRANCH  10  13
ATOM     13  C   UNL     1       0.098   3.569  -1.043  0.00  0.00    +0.191 A 
ATOM     14  C   UNL     1       0.069   2.640  -2.043  0.00  0.00    +0.056 A 
ATOM     15  C   UNL     1      -0.828   1.639  -1.639  0.00  0.00    +0.058 A 
ATOM     16  C   UNL     1      -1.307   2.000  -0.427  0.00  0.00    +0.171 A 
ATOM     17  O   UNL     1      -0.742   3.161  -0.069  0.00  0.00    -0.444 OA
ATOM     18 BR   UNL     1      -2.562   1.024   0.597  0.00  0.00    -0.008 Br
ENDBRANCH  10  13
ENDBRANCH   6   9
BRANCH   7  19
ATOM     19  N   UNL     1      -0.215   8.225   0.220  0.00  0.00    -0.341 N 
ATOM     20  H   UNL     1      -0.810   7.460   0.178  0.00  0.00    +0.144 HD
ATOM     21  H   UNL     1      -0.581   9.121   0.288  0.00  0.00    +0.144 HD
ENDBRANCH   7  19
BRANCH   1  22
ATOM     22  S   UNL     1       4.323  10.360   0.286  0.00  0.00    -0.083 S 
BRANCH  22  23
ATOM     23  C   UNL     1       3.067  11.659   0.398  0.00  0.00    +0.112 C 
BRANCH  23  29
ATOM     24  C   UNL     1       4.066  13.541   1.710  0.00  0.00    +0.006 A 
ATOM     25  C   UNL     1       4.689  14.773   1.785  0.00  0.00    +0.022 A 
ATOM     26  C   UNL     1       4.978  15.474   0.628  0.00  0.00    +0.059 A 
ATOM     27  C   UNL     1       4.647  14.938  -0.605  0.00  0.00    +0.060 A 
ATOM     28  C   UNL     1       4.029  13.703  -0.679  0.00  0.00    +0.026 A 
ATOM     29  C   UNL     1       3.741  13.004   0.479  0.00  0.00    -0.036 A 
ATOM     30 CL   UNL     1       5.009  15.816  -2.058  0.00  0.00    -0.082 Cl
ATOM     31 CL   UNL     1       5.755  17.023   0.722  0.00  0.00    -0.082 Cl
ENDBRANCH  23  29
ENDBRANCH  22  23
ENDBRANCH   1  22
TORSDOF 6
