REMARK  Name = ZINC51694267
REMARK  4 active torsions:
REMARK  status: ('A' for Active; 'I' for Inactive)
REMARK    1  A    between atoms: C_3  and  N_8
REMARK    2  A    between atoms: C_6  and  N_7
REMARK    3  A    between atoms: C_9  and  C_11
REMARK    4  A    between atoms: C_18  and  C_20
REMARK                            x       y       z     vdW  Elec       q    Type
REMARK                         _______ _______ _______ _____ _____    ______ ____
ROOT
ATOM      1  N   UNL     1       1.517   2.005  -2.485  0.00  0.00    -0.312 N 
ATOM      2  C   UNL     1       2.159   2.228  -3.648  0.00  0.00    +0.218 C 
ATOM      3  O   UNL     1       3.367   2.126  -3.704  0.00  0.00    -0.275 OA
ATOM      4  H   UNL     1       0.560   2.153  -2.423  0.00  0.00    +0.149 HD
ENDROOT
BRANCH   2   5
ATOM      5  C   UNL     1       1.378   2.604  -4.881  0.00  0.00    +0.096 C 
ATOM      6  C   UNL     1       2.331   2.764  -6.108  0.00  0.00    +0.025 C 
ATOM      7  C   UNL     1       1.485   3.748  -6.997  0.00  0.00    +0.016 C 
ATOM      8  C   UNL     1       1.401   4.841  -5.868  0.00  0.00    +0.027 C 
ATOM      9  C   UNL     1       0.745   4.007  -4.717  0.00  0.00    +0.121 C 
ATOM     10  C   UNL     1       2.881   4.924  -5.475  0.00  0.00    -0.027 C 
ATOM     11  C   UNL     1       3.429   3.710  -5.605  0.00  0.00    -0.027 C 
BRANCH   9  12
ATOM     12  C   UNL     1       1.094   4.592  -3.373  0.00  0.00    +0.360 C 
ATOM     13  O   UNL     1       2.258   4.823  -3.092  0.00  0.00    -0.246 OA
ATOM     14  O   UNL     1       0.213   4.835  -2.566  0.00  0.00    -0.246 OA
ENDBRANCH   9  12
ENDBRANCH   2   5
BRANCH   1  17
ATOM     15  C   UNL     1       0.126   1.315  -0.040  0.00  0.00    -0.014 C 
ATOM     16  C   UNL     1       1.519   1.946  -0.040  0.00  0.00    +0.021 C 
ATOM     17  C   UNL     1       2.264   1.540  -1.313  0.00  0.00    +0.073 C 
ATOM     18  C   UNL     1       2.394   0.016  -1.363  0.00  0.00    +0.021 C 
ATOM     19  C   UNL     1       1.001  -0.615  -1.364  0.00  0.00    -0.014 C 
ATOM     20  C   UNL     1       0.256  -0.209  -0.090  0.00  0.00    -0.075 C 
BRANCH  20  21
ATOM     21  N   UNL     1      -1.082  -0.815  -0.091  0.00  0.00    +0.380 N 
ATOM     22  H   UNL     1      -1.596  -0.495  -0.898  0.00  0.00    -0.090 HD
ATOM     23  H   UNL     1      -0.996  -1.820  -0.124  0.00  0.00    -0.090 HD
ATOM     24  H   UNL     1      -1.573  -0.547   0.749  0.00  0.00    -0.090 HD
ENDBRANCH  20  21
ENDBRANCH   1  17
TORSDOF 4
