REMARK  Name = ZINC37036654
REMARK  4 active torsions:
REMARK  status: ('A' for Active; 'I' for Inactive)
REMARK    1  A    between atoms: C_1  and  C_2
REMARK    2  A    between atoms: C_3  and  S_8
REMARK    3  A    between atoms: S_8  and  C_9
REMARK    4  A    between atoms: C_9  and  C_10
REMARK                            x       y       z     vdW  Elec       q    Type
REMARK                         _______ _______ _______ _____ _____    ______ ____
ROOT
ATOM      1  C   UNL     1      -0.010  -1.173  -5.311  0.00  0.00    +0.059 A 
ATOM      2  C   UNL     1       1.142  -1.283  -6.065  0.00  0.00    +0.094 A 
ATOM      3  C   UNL     1       1.105  -0.915  -7.415  0.00  0.00    +0.259 A 
ATOM      4  O   UNL     1       2.106  -1.001  -8.109  0.00  0.00    -0.267 OA
ATOM      5  N   UNL     1      -0.055  -0.465  -7.938  0.00  0.00    -0.267 N 
ATOM      6  C   UNL     1      -0.107  -0.103  -9.251  0.00  0.00    +0.116 A 
ATOM      7  C   UNL     1      -1.258   0.351  -9.798  0.00  0.00    +0.058 A 
ATOM      8  C   UNL     1      -2.417   0.455  -9.014  0.00  0.00    +0.025 A 
ATOM      9  C   UNL     1      -2.374   0.096  -7.700  0.00  0.00    +0.048 A 
ATOM     10  C   UNL     1      -1.168  -0.374  -7.150  0.00  0.00    +0.141 A 
ATOM     11  N   UNL     1      -1.127  -0.730  -5.867  0.00  0.00    -0.233 NA
ATOM     12 CL   UNL     1      -1.301   0.806 -11.472  0.00  0.00    -0.082 Cl
ENDROOT
BRANCH   1  13
ATOM     13  C   UNL     1       0.003  -1.562  -3.855  0.00  0.00    +0.130 C 
BRANCH  13  14
ATOM     14  S   UNL     1      -0.012  -0.066  -2.829  0.00  0.00    -0.110 S 
BRANCH  14  17
ATOM     15  C   UNL     1      -0.018   1.503   0.010  0.00  0.00    +0.067 C 
ATOM     16  C   UNL     1       0.002  -0.004   0.002  0.00  0.00    +0.061 A 
ATOM     17  C   UNL     1       0.005  -0.682  -1.178  0.00  0.00    +0.070 A 
ATOM     18  S   UNL     1       0.031  -2.370  -0.589  0.00  0.00    -0.046 S 
ATOM     19  C   UNL     1       0.035  -1.995   1.158  0.00  0.00    +0.157 A 
ATOM     20  N   UNL     1       0.022  -0.675   1.141  0.00  0.00    -0.229 NA
ATOM     21  N   UNL     1       0.052  -2.861   2.245  0.00  0.00    -0.337 N 
ATOM     22  H   UNL     1       0.065  -3.820   2.100  0.00  0.00    +0.144 HD
ATOM     23  H   UNL     1       0.052  -2.507   3.148  0.00  0.00    +0.144 HD
ENDBRANCH  14  17
ENDBRANCH  13  14
ENDBRANCH   1  13
TORSDOF 3
