REMARK  Name = ZINC61951791
REMARK  7 active torsions:
REMARK  status: ('A' for Active; 'I' for Inactive)
REMARK    1  A    between atoms: C_1  and  N_2
REMARK    2  A    between atoms: N_2  and  C_3
REMARK    3  A    between atoms: N_2  and  C_13
REMARK    4  A    between atoms: C_3  and  C_4
REMARK    5  A    between atoms: C_4  and  O_5
REMARK    6  A    between atoms: O_5  and  C_6
REMARK    7  A    between atoms: C_16  and  C_19
REMARK                            x       y       z     vdW  Elec       q    Type
REMARK                         _______ _______ _______ _____ _____    ______ ____
ROOT
ATOM      1  C   UNL     1       0.000  -0.693  -1.206  0.00  0.00    +0.030 A 
ATOM      2  C   UNL     1       0.013  -2.085  -1.212  0.00  0.00    +0.024 A 
ATOM      3  C   UNL     1       0.011  -2.769  -2.407  0.00  0.00    +0.013 A 
ATOM      4  C   UNL     1      -0.005  -2.066  -3.614  0.00  0.00    +0.012 A 
ATOM      5  C   UNL     1      -0.018  -0.668  -3.604  0.00  0.00    +0.013 A 
ATOM      6  C   UNL     1      -0.021   0.011  -2.407  0.00  0.00    +0.024 A 
ENDROOT
BRANCH   4   7
ATOM      7  C   UNL     1      -0.007  -2.797  -4.896  0.00  0.00    +0.094 C 
ATOM      8  N   UNL     1      -0.022  -2.124  -6.047  0.00  0.00    -0.387 N 
ATOM      9  N   UNL     1       0.006  -4.130  -4.904  0.00  0.00    -0.345 N 
ATOM     10  H   UNL     1      -0.024  -2.605  -6.890  0.00  0.00    +0.157 HD
ATOM     11  H   UNL     1       0.017  -4.619  -4.066  0.00  0.00    +0.144 HD
ATOM     12  H   UNL     1       0.004  -4.610  -5.747  0.00  0.00    +0.144 HD
ATOM     13  H   UNL     1      -0.032  -1.155  -6.042  0.00  0.00    +0.157 HD
ENDBRANCH   4   7
BRANCH   1  15
ATOM     14  C   UNL     1      -0.018   1.461   0.010  0.00  0.00    +0.129 C 
ATOM     15  N   UNL     1       0.002  -0.004   0.002  0.00  0.00    -0.330 N 
BRANCH  15  16
ATOM     16  C   UNL     1       0.024  -0.743   1.267  0.00  0.00    +0.145 C 
BRANCH  16  17
ATOM     17  C   UNL     1      -1.411  -1.020   1.720  0.00  0.00    +0.248 C 
BRANCH  17  18
ATOM     18  O   UNL     1      -2.046  -1.892   0.784  0.00  0.00    -0.490 OA
BRANCH  18  19
ATOM     19  C   UNL     1      -3.335  -2.240   1.041  0.00  0.00    +0.122 A 
ATOM     20  C   UNL     1      -3.976  -1.747   2.169  0.00  0.00    +0.046 A 
ATOM     21  C   UNL     1      -5.285  -2.102   2.429  0.00  0.00    +0.005 A 
ATOM     22  C   UNL     1      -5.958  -2.947   1.566  0.00  0.00    +0.015 A 
ATOM     23  C   UNL     1      -5.322  -3.441   0.441  0.00  0.00    +0.021 A 
ATOM     24  C   UNL     1      -4.013  -3.083   0.174  0.00  0.00    +0.061 A 
ATOM     25 BR   UNL     1      -6.245  -4.598  -0.736  0.00  0.00    -0.050 Br
ENDBRANCH  18  19
ENDBRANCH  17  18
ENDBRANCH  16  17
ENDBRANCH  15  16
ENDBRANCH   1  15
TORSDOF 6
