REMARK  Name = ZINC17231156
REMARK  9 active torsions:
REMARK  status: ('A' for Active; 'I' for Inactive)
REMARK    1  A    between atoms: C_1  and  O_2
REMARK    2  A    between atoms: O_2  and  C_3
REMARK    3  A    between atoms: C_8  and  N_9
REMARK    4  A    between atoms: N_9  and  C_10
REMARK    5  A    between atoms: C_10  and  C_11
REMARK    6  A    between atoms: C_11  and  C_12
REMARK    7  A    between atoms: C_15  and  C_17
REMARK    8  A    between atoms: C_17  and  S_18
REMARK    9  A    between atoms: S_18  and  C_19
REMARK                            x       y       z     vdW  Elec       q    Type
REMARK                         _______ _______ _______ _____ _____    ______ ____
ROOT
ATOM      1  N   UNL     1      -5.061   0.814   0.997  0.00  0.00    -0.267 N 
ATOM      2  C   UNL     1      -4.031  -0.040   0.832  0.00  0.00    +0.230 C 
ATOM      3  O   UNL     1      -4.224  -1.237   0.864  0.00  0.00    -0.274 OA
ENDROOT
BRANCH   1   9
ATOM      4  C   UNL     1      -7.192   0.070   0.121  0.00  0.00    +0.141 A 
ATOM      5  C   UNL     1      -8.470  -0.420   0.334  0.00  0.00    +0.047 A 
ATOM      6  C   UNL     1      -8.913  -0.661   1.621  0.00  0.00    +0.004 A 
ATOM      7  C   UNL     1      -8.082  -0.415   2.699  0.00  0.00    +0.002 A 
ATOM      8  C   UNL     1      -6.804   0.069   2.495  0.00  0.00    +0.027 A 
ATOM      9  C   UNL     1      -6.355   0.318   1.206  0.00  0.00    +0.078 A 
BRANCH   4  11
ATOM     10  C   UNL     1      -7.668   0.029  -2.209  0.00  0.00    +0.277 C 
ATOM     11  O   UNL     1      -6.755   0.307  -1.145  0.00  0.00    -0.493 OA
ENDBRANCH   4  11
ENDBRANCH   1   9
BRANCH   1  12
ATOM     12  C   UNL     1      -4.828   2.259   0.957  0.00  0.00    +0.123 C 
BRANCH  12  13
ATOM     13  C   UNL     1      -4.976   2.761  -0.481  0.00  0.00    +0.115 C 
BRANCH  13  14
ATOM     14  C   UNL     1      -4.736   4.248  -0.521  0.00  0.00    +0.212 C 
ATOM     15  O   UNL     1      -4.472   4.848   0.499  0.00  0.00    -0.276 OA
ATOM     16  N   UNL     1      -4.815   4.912  -1.692  0.00  0.00    -0.329 N 
ATOM     17  H   UNL     1      -5.026   4.432  -2.508  0.00  0.00    +0.145 HD
ATOM     18  H   UNL     1      -4.660   5.869  -1.718  0.00  0.00    +0.145 HD
ENDBRANCH  13  14
ENDBRANCH  12  13
ENDBRANCH   1  12
BRANCH   2  19
ATOM     19  C   UNL     1      -2.640   0.493   0.606  0.00  0.00    +0.173 C 
BRANCH  19  20
ATOM     20  S   UNL     1      -1.486  -0.890   0.422  0.00  0.00    -0.077 S 
BRANCH  20  21
ATOM     21  C   UNL     1       0.017  -0.004   0.178  0.00  0.00    +0.191 A 
ATOM     22  N   UNL     1      -0.002   1.323   0.180  0.00  0.00    -0.207 NA
ATOM     23  C   UNL     1       1.094   2.042   0.003  0.00  0.00    +0.129 A 
ATOM     24  C   UNL     1       2.337   1.377  -0.196  0.00  0.00    +0.051 A 
ATOM     25  C   UNL     1       3.663   1.961  -0.410  0.00  0.00    -0.025 A 
ATOM     26  C   UNL     1       4.690   1.104  -0.573  0.00  0.00    -0.004 A 
ATOM     27  S   UNL     1       3.968  -0.511  -0.456  0.00  0.00    -0.073 S 
ATOM     28  C   UNL     1       2.282  -0.031  -0.186  0.00  0.00    +0.115 A 
ATOM     29  N   UNL     1       1.146  -0.677  -0.003  0.00  0.00    -0.214 NA
ATOM     30  C   UNL     1       6.130   1.446  -0.805  0.00  0.00    +0.043 C 
ATOM     31  C   UNL     1       6.219   2.927  -1.200  0.00  0.00    +0.005 C 
ATOM     32  C   UNL     1       5.378   3.748  -0.218  0.00  0.00    +0.005 C 
ATOM     33  C   UNL     1       3.893   3.469  -0.448  0.00  0.00    +0.037 C 
ATOM     34  N   UNL     1       1.034   3.423   0.011  0.00  0.00    -0.343 N 
ATOM     35  H   UNL     1       0.256   3.873   0.376  0.00  0.00    +0.144 HD
ATOM     36  H   UNL     1       1.770   3.943  -0.348  0.00  0.00    +0.144 HD
ENDBRANCH  20  21
ENDBRANCH  19  20
ENDBRANCH   2  19
TORSDOF 8
