REMARK  Name = ZINC21324949
REMARK  7 active torsions:
REMARK  status: ('A' for Active; 'I' for Inactive)
REMARK    1  A    between atoms: C_1  and  C_2
REMARK    2  A    between atoms: C_2  and  C_25
REMARK    3  A    between atoms: N_3  and  N_4
REMARK    4  A    between atoms: C_8  and  S_11
REMARK    5  A    between atoms: N_9  and  N_10
REMARK    6  A    between atoms: S_11  and  C_12
REMARK    7  A    between atoms: C_12  and  C_13
REMARK                            x       y       z     vdW  Elec       q    Type
REMARK                         _______ _______ _______ _____ _____    ______ ____
ROOT
ATOM      1  N   UNL     1       1.754  -1.723  -0.024  0.00  0.00    -0.204 N 
ATOM      2  C   UNL     1       1.308  -0.409  -0.013  0.00  0.00    +0.254 A 
ATOM      3  N   UNL     1       2.064   0.662  -0.014  0.00  0.00    -0.109 NA
ATOM      4  N   UNL     1       1.226   1.784  -0.000  0.00  0.00    -0.119 NA
ATOM      5  C   UNL     1      -0.016   1.361   0.009  0.00  0.00    +0.210 A 
ATOM      6  N   UNL     1       0.002  -0.004   0.002  0.00  0.00    -0.211 N 
ATOM      7  H   UNL     1       1.029  -2.550  -0.021  0.00  0.00    +0.178 HD
ENDROOT
BRANCH   1  10
ATOM      8  C   UNL     1       2.553  -4.359  -0.046  0.00  0.00    +0.069 C 
ATOM      9  C   UNL     1       3.546  -3.226  -0.049  0.00  0.00    +0.081 C 
ATOM     10  N   UNL     1       3.128  -1.996  -0.038  0.00  0.00    -0.183 NA
BRANCH   9  11
ATOM     11  C   UNL     1       4.991  -3.513  -0.065  0.00  0.00    +0.086 A 
ATOM     12  C   UNL     1       5.908  -2.458  -0.073  0.00  0.00    +0.029 A 
ATOM     13  C   UNL     1       7.260  -2.745  -0.083  0.00  0.00    +0.004 A 
ATOM     14  C   UNL     1       7.657  -4.076  -0.094  0.00  0.00    +0.020 A 
ATOM     15  C   UNL     1       6.697  -5.071  -0.089  0.00  0.00    +0.111 A 
ATOM     16  N   UNL     1       5.414  -4.774  -0.075  0.00  0.00    -0.254 NA
ENDBRANCH   9  11
ENDBRANCH   1  10
BRANCH   6  17
ATOM     17  N   UNL     1      -1.092  -0.822   0.008  0.00  0.00    -0.294 N 
ATOM     18  H   UNL     1      -2.103  -0.388   0.020  0.00  0.00    +0.163 HD
ATOM     19  H   UNL     1      -0.963  -1.914   0.000  0.00  0.00    +0.163 HD
ENDBRANCH   6  17
BRANCH   5  20
ATOM     20  S   UNL     1      -1.456   2.378   0.022  0.00  0.00    -0.075 S 
BRANCH  20  21
ATOM     21  C   UNL     1      -0.685   4.015   0.027  0.00  0.00    +0.173 C 
BRANCH  21  22
ATOM     22  C   UNL     1      -1.756   5.075   0.038  0.00  0.00    +0.229 C 
ATOM     23  O   UNL     1      -2.926   4.755   0.042  0.00  0.00    -0.275 OA
ATOM     24  N   UNL     1      -1.414   6.379   0.044  0.00  0.00    -0.264 N 
ATOM     25  C   UNL     1      -2.399   7.353   0.054  0.00  0.00    +0.165 A 
ATOM     26  N   UNL     1      -2.265   8.659   0.060  0.00  0.00    -0.225 NA
ATOM     27  C   UNL     1      -3.324   9.497   0.070  0.00  0.00    +0.080 A 
ATOM     28  C   UNL     1      -3.318  10.911   0.077  0.00  0.00    +0.029 A 
ATOM     29  C   UNL     1      -4.494  11.616   0.086  0.00  0.00    +0.002 A 
ATOM     30  C   UNL     1      -5.724  10.974   0.088  0.00  0.00    +0.001 A 
ATOM     31  C   UNL     1      -5.767   9.592   0.082  0.00  0.00    +0.017 A 
ATOM     32  C   UNL     1      -4.595   8.878   0.072  0.00  0.00    +0.041 A 
ATOM     33  S   UNL     1      -4.175   7.152   0.054  0.00  0.00    -0.052 S 
ATOM     34  H   UNL     1      -0.353   6.669   0.040  0.00  0.00    +0.157 HD
ENDBRANCH  21  22
ENDBRANCH  20  21
ENDBRANCH   5  20
TORSDOF 6
