REMARK  Name = ZINC43669192
REMARK  7 active torsions:
REMARK  status: ('A' for Active; 'I' for Inactive)
REMARK    1  A    between atoms: C_1  and  C_2
REMARK    2  A    between atoms: C_8  and  N_10
REMARK    3  A    between atoms: N_13  and  C_14
REMARK    4  A    between atoms: C_16  and  N_22
REMARK    5  A    between atoms: C_19  and  O_20
REMARK    6  A    between atoms: O_20  and  C_21
REMARK    7  A    between atoms: C_23  and  C_25
REMARK                            x       y       z     vdW  Elec       q    Type
REMARK                         _______ _______ _______ _____ _____    ______ ____
ROOT
ATOM      1  N   UNL     1       2.175  -0.040   1.201  0.00  0.00    -0.296 N 
ATOM      2  C   UNL     1       2.834   0.106   2.368  0.00  0.00    +0.304 C 
ATOM      3  O   UNL     1       2.300  -0.214   3.412  0.00  0.00    -0.252 OA
ATOM      4  N   UNL     1       4.085   0.607   2.377  0.00  0.00    -0.266 N 
ATOM      5  H   UNL     1       2.602   0.216   0.368  0.00  0.00    +0.151 HD
ATOM      6  H   UNL     1       4.537   0.800   1.540  0.00  0.00    +0.156 HD
ENDROOT
BRANCH   1  13
ATOM      7  C   UNL     1       0.015   1.435  -0.043  0.00  0.00    +0.009 C 
ATOM      8  C   UNL     1       0.079  -0.094  -0.056  0.00  0.00    +0.006 C 
ATOM      9  C   UNL     1      -1.341  -0.663  -0.067  0.00  0.00    +0.005 C 
ATOM     10  C   UNL     1      -1.278  -2.192  -0.080  0.00  0.00    +0.000 C 
ATOM     11  C   UNL     1      -0.541  -2.683   1.168  0.00  0.00    +0.002 C 
ATOM     12  C   UNL     1       0.879  -2.114   1.178  0.00  0.00    +0.022 C 
ATOM     13  C   UNL     1       0.816  -0.585   1.191  0.00  0.00    +0.077 C 
ENDBRANCH   1  13
BRANCH   4  14
ATOM     14  C   UNL     1       4.734   0.850   3.596  0.00  0.00    +0.079 A 
ATOM     15  C   UNL     1       4.517   0.011   4.677  0.00  0.00    +0.050 A 
ATOM     16  C   UNL     1       5.161   0.254   5.882  0.00  0.00    +0.035 A 
ATOM     17  C   UNL     1       6.022   1.337   6.004  0.00  0.00    +0.027 A 
ATOM     18  C   UNL     1       6.238   2.175   4.927  0.00  0.00    +0.049 A 
ATOM     19  C   UNL     1       5.602   1.932   3.720  0.00  0.00    +0.141 A 
BRANCH  16  20
ATOM     20  N   UNL     1       4.943  -0.594   6.976  0.00  0.00    -0.286 N 
ATOM     21  C   UNL     1       5.886  -0.717   7.932  0.00  0.00    +0.214 C 
ATOM     22  O   UNL     1       6.964  -0.180   7.793  0.00  0.00    -0.276 OA
ATOM     23  C   UNL     1       5.600  -1.524   9.172  0.00  0.00    +0.109 C 
ATOM     24  H   UNL     1       4.113  -1.091   7.046  0.00  0.00    +0.155 HD
ENDBRANCH  16  20
BRANCH  19  25
ATOM     25  O   UNL     1       5.821   2.755   2.658  0.00  0.00    -0.493 OA
ATOM     26  C   UNL     1       6.724   3.845   2.857  0.00  0.00    +0.277 C 
ENDBRANCH  19  25
ENDBRANCH   4  14
TORSDOF 4
