REMARK  Name = ZINC65621291
REMARK  7 active torsions:
REMARK  status: ('A' for Active; 'I' for Inactive)
REMARK    1  A    between atoms: C_1  and  C_2
REMARK    2  A    between atoms: N_4  and  C_5
REMARK    3  A    between atoms: C_8  and  O_28
REMARK    4  A    between atoms: C_9  and  C_11
REMARK    5  A    between atoms: N_13  and  N_14
REMARK    6  A    between atoms: C_15  and  C_16
REMARK    7  A    between atoms: C_15  and  C_22
REMARK                            x       y       z     vdW  Elec       q    Type
REMARK                         _______ _______ _______ _____ _____    ______ ____
ROOT
ATOM      1  C   UNL     1      -3.711  -4.736  -0.522  0.00  0.00    +0.267 C 
ATOM      2  O   UNL     1      -3.704  -5.948  -0.622  0.00  0.00    -0.268 OA
ATOM      3  N   UNL     1      -4.882  -4.071  -0.463  0.00  0.00    -0.202 N 
ATOM      4  H   UNL     1      -4.888  -3.105  -0.383  0.00  0.00    +0.178 HD
ENDROOT
BRANCH   1   9
ATOM      5  C   UNL     1      -1.244  -1.911  -0.297  0.00  0.00    +0.034 A 
ATOM      6  C   UNL     1      -0.037  -2.600  -0.358  0.00  0.00    +0.027 A 
ATOM      7  C   UNL     1      -0.025  -3.976  -0.472  0.00  0.00    +0.048 A 
ATOM      8  C   UNL     1      -1.218  -4.681  -0.526  0.00  0.00    +0.129 A 
ATOM      9  C   UNL     1      -2.438  -3.993  -0.465  0.00  0.00    +0.081 A 
ATOM     10  C   UNL     1      -2.442  -2.601  -0.344  0.00  0.00    +0.040 A 
BRANCH   5  14
ATOM     11  C   UNL     1      -0.349   1.720  -0.747  0.00  0.00    +0.109 C 
ATOM     12  C   UNL     1      -0.300   0.215  -0.805  0.00  0.00    +0.214 C 
ATOM     13  O   UNL     1       0.591  -0.340  -1.413  0.00  0.00    -0.276 OA
ATOM     14  N   UNL     1      -1.246  -0.514  -0.180  0.00  0.00    -0.286 N 
ATOM     15  H   UNL     1      -1.928  -0.073   0.349  0.00  0.00    +0.155 HD
ENDBRANCH   5  14
BRANCH   8  16
ATOM     16  O   UNL     1      -1.205  -6.033  -0.639  0.00  0.00    -0.506 OA
ATOM     17  H   UNL     1      -1.197  -6.498   0.209  0.00  0.00    +0.292 HD
ENDBRANCH   8  16
ENDBRANCH   1   9
BRANCH   3  18
ATOM     18  N   UNL     1      -6.091  -4.777  -0.517  0.00  0.00    -0.179 NA
ATOM     19  C   UNL     1      -7.224  -4.128  -0.563  0.00  0.00    +0.096 C 
BRANCH  19  20
ATOM     20  C   UNL     1      -8.496  -4.870  -0.720  0.00  0.00    +0.002 A 
ATOM     21  C   UNL     1      -9.695  -4.177  -0.888  0.00  0.00    +0.010 A 
ATOM     22  C   UNL     1     -10.877  -4.874  -1.035  0.00  0.00    +0.001 A 
ATOM     23  C   UNL     1     -10.874  -6.257  -1.014  0.00  0.00    +0.000 A 
ATOM     24  C   UNL     1      -9.688  -6.950  -0.847  0.00  0.00    +0.001 A 
ATOM     25  C   UNL     1      -8.499  -6.265  -0.706  0.00  0.00    +0.010 A 
ENDBRANCH  19  20
BRANCH  19  26
ATOM     26  C   UNL     1      -7.237  -2.651  -0.458  0.00  0.00    +0.002 A 
ATOM     27  C   UNL     1      -6.608  -1.875  -1.432  0.00  0.00    +0.010 A 
ATOM     28  C   UNL     1      -6.624  -0.499  -1.329  0.00  0.00    +0.001 A 
ATOM     29  C   UNL     1      -7.261   0.111  -0.263  0.00  0.00    +0.000 A 
ATOM     30  C   UNL     1      -7.886  -0.654   0.706  0.00  0.00    +0.001 A 
ATOM     31  C   UNL     1      -7.882  -2.030   0.611  0.00  0.00    +0.010 A 
ENDBRANCH  19  26
ENDBRANCH   3  18
TORSDOF 6
