REMARK  Name = ZINC63389330
REMARK  7 active torsions:
REMARK  status: ('A' for Active; 'I' for Inactive)
REMARK    1  A    between atoms: C_1  and  C_2
REMARK    2  A    between atoms: C_6  and  O_8
REMARK    3  A    between atoms: O_8  and  C_9
REMARK    4  A    between atoms: C_12  and  N_15
REMARK    5  A    between atoms: N_18  and  C_19
REMARK    6  A    between atoms: C_22  and  C_25
REMARK    7  A    between atoms: N_27  and  C_28
REMARK                            x       y       z     vdW  Elec       q    Type
REMARK                         _______ _______ _______ _____ _____    ______ ____
ROOT
ATOM      1  N   UNL     1       0.497  -8.287   2.330  0.00  0.00    -0.269 N 
ATOM      2  C   UNL     1       0.395  -8.978   3.483  0.00  0.00    +0.304 C 
ATOM      3  O   UNL     1       0.297  -8.384   4.540  0.00  0.00    -0.253 OA
ATOM      4  N   UNL     1       0.402 -10.325   3.465  0.00  0.00    -0.296 N 
ATOM      5  H   UNL     1       0.665  -8.756   1.498  0.00  0.00    +0.156 HD
ATOM      6  H   UNL     1       0.481 -10.799   2.622  0.00  0.00    +0.151 HD
ENDROOT
BRANCH   1  10
ATOM      7  C   UNL     1       0.091  -4.137   2.342  0.00  0.00    +0.129 A 
ATOM      8  C   UNL     1      -0.522  -4.897   3.328  0.00  0.00    +0.048 A 
ATOM      9  C   UNL     1      -0.388  -6.271   3.324  0.00  0.00    +0.027 A 
ATOM     10  C   UNL     1       0.360  -6.893   2.334  0.00  0.00    +0.035 A 
ATOM     11  C   UNL     1       0.974  -6.132   1.347  0.00  0.00    +0.027 A 
ATOM     12  C   UNL     1       0.835  -4.758   1.349  0.00  0.00    +0.048 A 
BRANCH   7  13
ATOM     13  O   UNL     1      -0.041  -2.784   2.345  0.00  0.00    -0.456 OA
BRANCH  13  19
ATOM     14  C   UNL     1      -0.174  -1.742   7.112  0.00  0.00    +0.044 C 
ATOM     15  C   UNL     1      -0.778  -1.681   5.733  0.00  0.00    -0.047 A 
ATOM     16  C   UNL     1      -1.987  -1.038   5.536  0.00  0.00    +0.003 A 
ATOM     17  C   UNL     1      -2.544  -0.980   4.273  0.00  0.00    +0.004 A 
ATOM     18  C   UNL     1      -1.894  -1.564   3.202  0.00  0.00    +0.046 A 
ATOM     19  C   UNL     1      -0.682  -2.209   3.397  0.00  0.00    +0.129 A 
ATOM     20  C   UNL     1      -0.122  -2.261   4.665  0.00  0.00    +0.049 A 
ENDBRANCH  13  19
ENDBRANCH   7  13
ENDBRANCH   1  10
BRANCH   4  21
ATOM     21  C   UNL     1       0.292 -11.075   4.719  0.00  0.00    +0.074 C 
ATOM     22  C   UNL     1       1.678 -11.223   5.349  0.00  0.00    +0.023 C 
ATOM     23  C   UNL     1       2.599 -11.973   4.385  0.00  0.00    +0.014 C 
ATOM     24  C   UNL     1       2.019 -13.360   4.100  0.00  0.00    +0.075 C 
ATOM     25  C   UNL     1       0.632 -13.212   3.470  0.00  0.00    +0.014 C 
ATOM     26  C   UNL     1      -0.289 -12.462   4.434  0.00  0.00    +0.023 C 
BRANCH  24  27
ATOM     27  C   UNL     1       2.926 -14.099   3.151  0.00  0.00    +0.216 C 
ATOM     28  O   UNL     1       3.938 -13.569   2.742  0.00  0.00    -0.276 OA
ATOM     29  N   UNL     1       2.614 -15.349   2.756  0.00  0.00    -0.318 N 
ATOM     30  C   UNL     1       3.496 -16.068   1.833  0.00  0.00    +0.128 C 
ATOM     31  H   UNL     1       1.804 -15.773   3.082  0.00  0.00    +0.148 HD
ENDBRANCH  24  27
ENDBRANCH   4  21
TORSDOF 5
