REMARK  Name = ZINC01766868
REMARK  11 active torsions:
REMARK  status: ('A' for Active; 'I' for Inactive)
REMARK    1  A    between atoms: C_1  and  N_2
REMARK    2  A    between atoms: N_2  and  C_3
REMARK    3  A    between atoms: C_3  and  N_5
REMARK    4  A    between atoms: N_5  and  N_6
REMARK    5  A    between atoms: C_7  and  C_8
REMARK    6  A    between atoms: N_14  and  C_25
REMARK    7  A    between atoms: C_16  and  C_17
REMARK    8  A    between atoms: N_18  and  N_19
REMARK    9  A    between atoms: N_19  and  C_20
REMARK   10  A    between atoms: C_20  and  N_22
REMARK   11  A    between atoms: N_22  and  C_23
REMARK                            x       y       z     vdW  Elec       q    Type
REMARK                         _______ _______ _______ _____ _____    ______ ____
ROOT
ATOM      1  C   UNL     1      -1.540   4.850   0.188  0.00  0.00    +0.019 A 
ATOM      2  C   UNL     1      -0.909   6.091   0.259  0.00  0.00    +0.011 A 
ATOM      3  C   UNL     1       0.471   6.178   0.220  0.00  0.00    +0.001 A 
ATOM      4  C   UNL     1       1.242   5.039   0.107  0.00  0.00    +0.011 A 
ATOM      5  C   UNL     1       0.632   3.788   0.034  0.00  0.00    +0.011 A 
ATOM      6  C   UNL     1      -0.767   3.683   0.074  0.00  0.00    +0.064 A 
ATOM      7  N   UNL     1      -1.086   2.346  -0.021  0.00  0.00    -0.299 N 
ATOM      8  C   UNL     1       0.050   1.594  -0.111  0.00  0.00    +0.124 A 
ATOM      9  C   UNL     1       1.141   2.410  -0.086  0.00  0.00    +0.039 A 
ATOM     10 CL   UNL     1       0.098  -0.136  -0.243  0.00  0.00    -0.063 Cl
ENDROOT
BRANCH   7  11
ATOM     11  C   UNL     1      -2.389   1.832  -0.022  0.00  0.00    +0.048 A 
ATOM     12  C   UNL     1      -3.199   1.991  -1.139  0.00  0.00    +0.026 A 
ATOM     13  C   UNL     1      -4.481   1.478  -1.139  0.00  0.00    +0.002 A 
ATOM     14  C   UNL     1      -4.962   0.815  -0.024  0.00  0.00    +0.000 A 
ATOM     15  C   UNL     1      -4.160   0.660   1.091  0.00  0.00    +0.002 A 
ATOM     16  C   UNL     1      -2.875   1.166   1.095  0.00  0.00    +0.026 A 
ENDBRANCH   7  11
BRANCH   1  18
ATOM     17  N   UNL     1      -3.719   5.836   0.408  0.00  0.00    -0.188 NA
ATOM     18  C   UNL     1      -3.010   4.763   0.231  0.00  0.00    +0.140 C 
BRANCH  17  19
ATOM     19  N   UNL     1      -5.109   5.742   0.555  0.00  0.00    -0.218 N 
ATOM     20  H   UNL     1      -5.534   4.871   0.597  0.00  0.00    +0.176 HD
BRANCH  19  21
ATOM     21  C   UNL     1      -5.856   6.861   0.637  0.00  0.00    +0.150 C 
ATOM     22  S   UNL     1      -7.563   6.748   0.685  0.00  0.00    -0.017 S 
BRANCH  21  24
ATOM     23  C   UNL     1      -6.062   9.276   0.882  0.00  0.00    +0.127 C 
ATOM     24  N   UNL     1      -5.258   8.068   0.681  0.00  0.00    -0.328 N 
ATOM     25  H   UNL     1      -4.296   8.137   0.579  0.00  0.00    +0.147 HD
ENDBRANCH  21  24
ENDBRANCH  19  21
ENDBRANCH  17  19
ENDBRANCH   1  18
BRANCH   9  26
ATOM     26  C   UNL     1       2.550   1.996  -0.166  0.00  0.00    +0.141 C 
ATOM     27  N   UNL     1       2.853   0.737  -0.271  0.00  0.00    -0.188 NA
BRANCH  27  28
ATOM     28  N   UNL     1       4.196   0.344  -0.346  0.00  0.00    -0.218 N 
ATOM     29  H   UNL     1       4.899   1.011  -0.320  0.00  0.00    +0.176 HD
BRANCH  28  30
ATOM     30  C   UNL     1       4.510  -0.963  -0.455  0.00  0.00    +0.150 C 
ATOM     31  S   UNL     1       6.150  -1.444  -0.547  0.00  0.00    -0.017 S 
BRANCH  30  32
ATOM     32  N   UNL     1       3.532  -1.890  -0.491  0.00  0.00    -0.328 N 
ATOM     33  C   UNL     1       3.874  -3.310  -0.609  0.00  0.00    +0.127 C 
ATOM     34  H   UNL     1       2.603  -1.617  -0.439  0.00  0.00    +0.147 HD
ENDBRANCH  30  32
ENDBRANCH  28  30
ENDBRANCH  27  28
ENDBRANCH   9  26
TORSDOF 9
