REMARK  Name = ZINC05338184
REMARK  4 active torsions:
REMARK  status: ('A' for Active; 'I' for Inactive)
REMARK    1  A    between atoms: C_3  and  C_6
REMARK    2  A    between atoms: C_11  and  N_20
REMARK    3  A    between atoms: C_15  and  N_19
REMARK    4  A    between atoms: C_16  and  C_17
REMARK                            x       y       z     vdW  Elec       q    Type
REMARK                         _______ _______ _______ _____ _____    ______ ____
ROOT
ATOM      1  C   UNL     1      -2.567   3.850   0.047  0.00  0.00    +0.134 C 
ATOM      2  C   UNL     1      -1.242   3.134   0.030  0.00  0.00    +0.011 A 
ATOM      3  C   UNL     1      -1.217   1.750   0.017  0.00  0.00    +0.010 A 
ATOM      4  C   UNL     1      -0.013   1.076   0.008  0.00  0.00    +0.023 A 
ATOM      5  C   UNL     1       1.181   1.787   0.000  0.00  0.00    +0.028 A 
ATOM      6  C   UNL     1       1.159   3.174   0.008  0.00  0.00    +0.069 A 
ATOM      7  C   UNL     1      -0.055   3.849   0.023  0.00  0.00    +0.136 A 
ATOM      8  O   UNL     1      -0.060   5.205   0.030  0.00  0.00    -0.441 OA
ATOM      9  C   UNL     1      -1.165   5.873  -0.340  0.00  0.00    +0.199 C 
ATOM     10  C   UNL     1      -2.386   5.287  -0.354  0.00  0.00    +0.101 C 
ENDROOT
BRANCH   1  13
ATOM     11  C   UNL     1      -4.474   3.393   3.167  0.00  0.00    +0.041 A 
ATOM     12  C   UNL     1      -4.324   3.225   1.771  0.00  0.00    +0.045 A 
ATOM     13  C   UNL     1      -3.150   3.789   1.435  0.00  0.00    +0.117 A 
ATOM     14  O   UNL     1      -2.589   4.294   2.546  0.00  0.00    -0.467 OA
ATOM     15  C   UNL     1      -3.387   4.057   3.599  0.00  0.00    +0.195 A 
ENDBRANCH   1  13
BRANCH   9  16
ATOM     16  N   UNL     1      -1.054   7.189  -0.715  0.00  0.00    -0.328 N 
ATOM     17  H   UNL     1      -0.187   7.623  -0.710  0.00  0.00    +0.145 HD
ATOM     18  H   UNL     1      -1.843   7.685  -0.985  0.00  0.00    +0.145 HD
ENDBRANCH   9  16
BRANCH   5  19
ATOM     19  N   UNL     1       2.401   1.107  -0.014  0.00  0.00    -0.358 N 
ATOM     20  H   UNL     1       2.416   0.138  -0.019  0.00  0.00    +0.142 HD
ATOM     21  H   UNL     1       3.234   1.605  -0.019  0.00  0.00    +0.142 HD
ENDBRANCH   5  19
BRANCH  10  22
ATOM     22  C   UNL     1      -3.527   6.052  -0.759  0.00  0.00    +0.101 C 
ATOM     23  N   UNL     1      -4.432   6.658  -1.080  0.00  0.00    -0.191 NA
ENDBRANCH  10  22
TORSDOF 4
