REMARK  Name = ZINC04246396
REMARK  8 active torsions:
REMARK  status: ('A' for Active; 'I' for Inactive)
REMARK    1  A    between atoms: C_1  and  C_2
REMARK    2  A    between atoms: C_5  and  N_9
REMARK    3  A    between atoms: C_6  and  C_8
REMARK    4  A    between atoms: C_10  and  C_12
REMARK    5  A    between atoms: C_12  and  O_13
REMARK    6  A    between atoms: O_13  and  C_14
REMARK    7  A    between atoms: C_14  and  C_16
REMARK    8  A    between atoms: C_21  and  N_22
REMARK                            x       y       z     vdW  Elec       q    Type
REMARK                         _______ _______ _______ _____ _____    ______ ____
ROOT
ATOM      1  C   UNL     1       3.800   6.068   0.082  0.00  0.00    +0.328 C 
ENDROOT
BRANCH   1   3
ATOM      2  N   UNL     1       4.665   8.379   0.253  0.00  0.00    -0.282 N 
ATOM      3  C   UNL     1       3.600   7.554   0.233  0.00  0.00    +0.255 C 
ATOM      4  O   UNL     1       2.480   8.007   0.337  0.00  0.00    -0.272 OA
ATOM      5  H   UNL     1       5.556   8.024   0.107  0.00  0.00    +0.155 HD
BRANCH   2  10
ATOM      6  C   UNL     1       3.939  13.927   1.188  0.00  0.00    +0.044 C 
ATOM      7  C   UNL     1       4.132  12.453   0.940  0.00  0.00    -0.050 A 
ATOM      8  C   UNL     1       3.179  11.742   0.234  0.00  0.00    +0.005 A 
ATOM      9  C   UNL     1       3.353  10.391   0.004  0.00  0.00    +0.024 A 
ATOM     10  C   UNL     1       4.486   9.747   0.484  0.00  0.00    +0.036 A 
ATOM     11  C   UNL     1       5.438  10.463   1.197  0.00  0.00    -0.029 A 
ATOM     12  C   UNL     1       5.261  11.815   1.418  0.00  0.00    +0.008 A 
ATOM     13  C   UNL     1       6.667   9.767   1.724  0.00  0.00    +0.045 C 
ENDBRANCH   2  10
ENDBRANCH   1   3
BRANCH   1  14
ATOM     14  O   UNL     1       2.510   5.402   0.090  0.00  0.00    -0.452 OA
BRANCH  14  15
ATOM     15  C   UNL     1       2.513   4.060  -0.037  0.00  0.00    +0.341 C 
ATOM     16  O   UNL     1       3.566   3.463  -0.150  0.00  0.00    -0.245 OA
BRANCH  15  17
ATOM     17  C   UNL     1       1.241   3.318  -0.037  0.00  0.00    +0.081 A 
ATOM     18  C   UNL     1       0.025   4.006  -0.027  0.00  0.00    +0.032 A 
ATOM     19  C   UNL     1      -1.162   3.305  -0.028  0.00  0.00    +0.019 A 
ATOM     20  C   UNL     1      -1.156   1.919  -0.043  0.00  0.00    +0.017 A 
ATOM     21  C   UNL     1       0.036   1.225  -0.048  0.00  0.00    +0.024 A 
ATOM     22  C   UNL     1       1.243   1.914  -0.048  0.00  0.00    +0.039 A 
ATOM     23 BR   UNL     1      -2.806   4.239  -0.015  0.00  0.00    -0.050 Br
BRANCH  22  24
ATOM     24  N   UNL     1       2.444   1.217  -0.058  0.00  0.00    -0.357 N 
ATOM     25  H   UNL     1       2.480   0.317  -0.418  0.00  0.00    +0.142 HD
ATOM     26  H   UNL     1       3.248   1.631   0.294  0.00  0.00    +0.142 HD
ENDBRANCH  22  24
ENDBRANCH  15  17
ENDBRANCH  14  15
ENDBRANCH   1  14
TORSDOF 6
