REMARK  Name = ZINC16450536
REMARK  5 active torsions:
REMARK  status: ('A' for Active; 'I' for Inactive)
REMARK    1  A    between atoms: C_4  and  S_10
REMARK    2  A    between atoms: C_5  and  N_7
REMARK    3  A    between atoms: S_10  and  N_13
REMARK    4  A    between atoms: C_19  and  S_25
REMARK    5  A    between atoms: S_25  and  N_28
REMARK                            x       y       z     vdW  Elec       q    Type
REMARK                         _______ _______ _______ _____ _____    ______ ____
ROOT
ATOM      1  N   UNL     1      -6.902  -1.223   2.032  0.00  0.00    -0.058 N 
ATOM      2  C   UNL     1      -6.256  -2.059   1.153  0.00  0.00    +0.232 C 
ATOM      3  N   UNL     1      -5.152  -1.762   0.566  0.00  0.00    -0.235 NA
ATOM      4  C   UNL     1      -4.405  -0.635   0.724  0.00  0.00    +0.094 A 
ATOM      5  C   UNL     1      -3.382  -0.330  -0.178  0.00  0.00    +0.051 A 
ATOM      6  C   UNL     1      -2.651   0.830  -0.023  0.00  0.00    +0.069 A 
ATOM      7  C   UNL     1      -2.912   1.693   1.028  0.00  0.00    +0.125 A 
ATOM      8  C   UNL     1      -3.921   1.399   1.932  0.00  0.00    +0.061 A 
ATOM      9  C   UNL     1      -4.652   0.248   1.781  0.00  0.00    +0.138 A 
ATOM     10  S   UNL     1      -5.936  -0.185   2.918  0.00  0.00    +0.096 S 
ATOM     11  O   UNL     1      -5.339  -0.950   3.956  0.00  0.00    -0.148 OA
ATOM     12  O   UNL     1      -6.697   0.990   3.162  0.00  0.00    -0.148 OA
ATOM     13 CL   UNL     1      -1.387   1.207  -1.151  0.00  0.00    -0.081 Cl
ENDROOT
BRANCH   1  14
ATOM     14  S   UNL     1      -8.549  -1.242   2.203  0.00  0.00    +0.096 S 
ATOM     15  O   UNL     1      -8.932   0.070   2.591  0.00  0.00    -0.148 OA
ATOM     16  O   UNL     1      -9.070  -1.876   1.043  0.00  0.00    -0.148 OA
BRANCH  14  20
ATOM     17  C   UNL     1      -9.500  -3.956   5.699  0.00  0.00    +0.002 A 
ATOM     18  C   UNL     1      -8.188  -3.768   5.307  0.00  0.00    +0.002 A 
ATOM     19  C   UNL     1      -7.897  -2.939   4.239  0.00  0.00    +0.031 A 
ATOM     20  C   UNL     1      -8.919  -2.299   3.563  0.00  0.00    +0.140 A 
ATOM     21  C   UNL     1     -10.231  -2.483   3.958  0.00  0.00    +0.153 A 
ATOM     22  C   UNL     1     -10.521  -3.315   5.023  0.00  0.00    +0.035 A 
BRANCH  21  23
ATOM     23  N   UNL     1     -11.324  -1.792   3.238  0.00  0.00    +0.058 N 
ATOM     24  O   UNL     1     -12.478  -1.934   3.603  0.00  0.00    -0.126 OA
ATOM     25  O   UNL     1     -11.071  -1.083   2.281  0.00  0.00    -0.126 OA
ENDBRANCH  21  23
ENDBRANCH  14  20
ENDBRANCH   1  14
BRANCH   7  26
ATOM     26  S   UNL     1      -1.967   3.169   1.212  0.00  0.00    +0.057 S 
ATOM     27  O   UNL     1      -2.454   3.821   2.377  0.00  0.00    -0.153 OA
ATOM     28  O   UNL     1      -1.947   3.800  -0.061  0.00  0.00    -0.153 OA
BRANCH  26  29
ATOM     29  N   UNL     1      -0.409   2.715   1.541  0.00  0.00    -0.203 NA
ATOM     30  H   UNL     1      -0.179   1.774   1.597  0.00  0.00    +0.144 HD
ATOM     31  H   UNL     1       0.275   3.390   1.673  0.00  0.00    +0.144 HD
ENDBRANCH  26  29
ENDBRANCH   7  26
TORSDOF 5
