REMARK  Name = ZINC59303398
REMARK  10 active torsions:
REMARK  status: ('A' for Active; 'I' for Inactive)
REMARK    1  A    between atoms: C_1  and  C_2
REMARK    2  A    between atoms: C_5  and  N_8
REMARK    3  A    between atoms: C_9  and  C_11
REMARK    4  A    between atoms: C_15  and  N_16
REMARK    5  A    between atoms: C_17  and  C_28
REMARK    6  A    between atoms: C_19  and  C_22
REMARK    7  A    between atoms: C_20  and  C_21
REMARK    8  A    between atoms: N_23  and  N_24
REMARK    9  A    between atoms: N_24  and  C_25
REMARK   10  A    between atoms: C_25  and  N_27
REMARK                            x       y       z     vdW  Elec       q    Type
REMARK                         _______ _______ _______ _____ _____    ______ ____
ROOT
ATOM      1  C   UNL     1       0.180  -5.995   0.142  0.00  0.00    +0.072 A 
ATOM      2  C   UNL     1       1.572  -6.404   0.201  0.00  0.00    -0.023 A 
ATOM      3  C   UNL     1       1.786  -7.531   0.914  0.00  0.00    -0.004 A 
ATOM      4  S   UNL     1       0.182  -8.015   1.480  0.00  0.00    -0.075 S 
ATOM      5  C   UNL     1      -0.742  -6.783   0.811  0.00  0.00    +0.097 A 
ATOM      6  C   UNL     1       3.101  -8.205   1.157  0.00  0.00    +0.043 C 
ATOM      7  C   UNL     1       4.125  -7.636   0.163  0.00  0.00    +0.005 C 
ATOM      8  C   UNL     1       4.034  -6.108   0.177  0.00  0.00    +0.005 C 
ATOM      9  C   UNL     1       2.719  -5.659  -0.466  0.00  0.00    +0.037 C 
ENDROOT
BRANCH   5  10
ATOM     10  N   UNL     1      -2.116  -6.598   0.905  0.00  0.00    -0.311 N 
ATOM     11  C   UNL     1      -3.038  -7.107   0.033  0.00  0.00    +0.022 A 
ATOM     12  C   UNL     1      -4.267  -6.730   0.430  0.00  0.00    +0.032 A 
ATOM     13  C   UNL     1      -4.088  -5.925   1.643  0.00  0.00    +0.016 A 
ATOM     14  C   UNL     1      -2.744  -5.888   1.883  0.00  0.00    +0.030 A 
ATOM     15  C   UNL     1      -2.072  -5.179   3.031  0.00  0.00    +0.064 C 
ATOM     16  C   UNL     1      -2.728  -7.951  -1.176  0.00  0.00    +0.064 C 
BRANCH  13  17
ATOM     17  C   UNL     1      -5.148  -5.289   2.446  0.00  0.00    +0.140 C 
ATOM     18  N   UNL     1      -4.837  -4.601   3.502  0.00  0.00    -0.188 NA
BRANCH  18  19
ATOM     19  N   UNL     1      -5.844  -3.997   4.265  0.00  0.00    -0.219 N 
ATOM     20  H   UNL     1      -6.774  -4.092   4.004  0.00  0.00    +0.176 HD
BRANCH  19  21
ATOM     21  C   UNL     1      -5.522  -3.283   5.362  0.00  0.00    +0.147 C 
ATOM     22  S   UNL     1      -6.753  -2.543   6.295  0.00  0.00    -0.017 S 
BRANCH  21  23
ATOM     23  N   UNL     1      -4.231  -3.150   5.725  0.00  0.00    -0.339 N 
ATOM     24  H   UNL     1      -3.533  -3.569   5.196  0.00  0.00    +0.144 HD
ATOM     25  H   UNL     1      -3.999  -2.636   6.514  0.00  0.00    +0.144 HD
ENDBRANCH  21  23
ENDBRANCH  19  21
ENDBRANCH  18  19
ENDBRANCH  13  17
ENDBRANCH   5  10
BRANCH   1  27
ATOM     26  N   UNL     1      -0.561  -4.878  -1.895  0.00  0.00    -0.281 N 
ATOM     27  C   UNL     1      -0.232  -4.792  -0.591  0.00  0.00    +0.251 C 
ATOM     28  O   UNL     1      -0.278  -3.718  -0.021  0.00  0.00    -0.270 OA
ATOM     29  H   UNL     1      -0.561  -5.739  -2.340  0.00  0.00    +0.155 HD
BRANCH  26  34
ATOM     30  C   UNL     1      -1.948  -0.196  -4.783  0.00  0.00    +0.044 C 
ATOM     31  C   UNL     1      -1.579  -1.440  -4.016  0.00  0.00    -0.050 A 
ATOM     32  C   UNL     1      -0.878  -2.454  -4.642  0.00  0.00    +0.005 A 
ATOM     33  C   UNL     1      -0.539  -3.595  -3.941  0.00  0.00    +0.023 A 
ATOM     34  C   UNL     1      -0.903  -3.723  -2.607  0.00  0.00    +0.034 A 
ATOM     35  C   UNL     1      -1.607  -2.703  -1.982  0.00  0.00    +0.023 A 
ATOM     36  C   UNL     1      -1.938  -1.562  -2.686  0.00  0.00    +0.005 A 
ENDBRANCH  26  34
ENDBRANCH   1  27
TORSDOF 7
