REMARK  Name = ZINC20528070
REMARK  8 active torsions:
REMARK  status: ('A' for Active; 'I' for Inactive)
REMARK    1  A    between atoms: C_6  and  C_7
REMARK    2  A    between atoms: N_8  and  N_9
REMARK    3  A    between atoms: C_13  and  S_16
REMARK    4  A    between atoms: N_14  and  N_15
REMARK    5  A    between atoms: S_16  and  C_17
REMARK    6  A    between atoms: C_17  and  C_18
REMARK    7  A    between atoms: N_20  and  C_21
REMARK    8  A    between atoms: C_25  and  C_27
REMARK                            x       y       z     vdW  Elec       q    Type
REMARK                         _______ _______ _______ _____ _____    ______ ____
ROOT
ATOM      1  N   UNL     1       0.060   0.011  -0.532  0.00  0.00    -0.204 N 
ATOM      2  C   UNL     1       0.033   1.394  -0.427  0.00  0.00    +0.254 A 
ATOM      3  N   UNL     1      -1.033   2.132  -0.231  0.00  0.00    -0.109 NA
ATOM      4  N   UNL     1      -0.629   3.472  -0.183  0.00  0.00    -0.119 NA
ATOM      5  C   UNL     1       0.670   3.511  -0.360  0.00  0.00    +0.210 A 
ATOM      6  N   UNL     1       1.113   2.228  -0.515  0.00  0.00    -0.211 N 
ATOM      7  H   UNL     1       1.014  -0.509  -0.702  0.00  0.00    +0.177 HD
ENDROOT
BRANCH   6   8
ATOM      8  N   UNL     1       2.408   1.846  -0.723  0.00  0.00    -0.294 N 
ATOM      9  H   UNL     1       3.203   2.604  -0.777  0.00  0.00    +0.163 HD
ATOM     10  H   UNL     1       2.655   0.780  -0.835  0.00  0.00    +0.163 HD
ENDBRANCH   6   8
BRANCH   1  12
ATOM     11  C   UNL     1      -1.103  -2.018  -0.519  0.00  0.00    +0.138 C 
ATOM     12  N   UNL     1      -1.128  -0.723  -0.421  0.00  0.00    -0.188 NA
BRANCH  11  18
ATOM     13  C   UNL     1      -3.565  -2.133  -0.180  0.00  0.00    +0.012 A 
ATOM     14  C   UNL     1      -4.732  -2.861  -0.077  0.00  0.00    +0.039 A 
ATOM     15  C   UNL     1      -4.702  -4.242  -0.183  0.00  0.00    +0.123 A 
ATOM     16  C   UNL     1      -3.501  -4.901  -0.397  0.00  0.00    +0.039 A 
ATOM     17  C   UNL     1      -2.329  -4.183  -0.507  0.00  0.00    +0.012 A 
ATOM     18  C   UNL     1      -2.353  -2.790  -0.402  0.00  0.00    -0.005 A 
ATOM     19  F   UNL     1      -5.848  -4.950  -0.076  0.00  0.00    -0.205 F 
ENDBRANCH  11  18
ENDBRANCH   1  12
BRANCH   5  20
ATOM     20  S   UNL     1       1.668   4.963  -0.393  0.00  0.00    -0.075 S 
BRANCH  20  21
ATOM     21  C   UNL     1       0.486   6.314  -0.131  0.00  0.00    +0.173 C 
BRANCH  21  22
ATOM     22  C   UNL     1       1.219   7.630  -0.136  0.00  0.00    +0.227 C 
ATOM     23  O   UNL     1       2.421   7.655  -0.301  0.00  0.00    -0.275 OA
ATOM     24  N   UNL     1       0.540   8.781   0.042  0.00  0.00    -0.285 N 
ATOM     25  H   UNL     1      -0.558   8.767   0.104  0.00  0.00    +0.155 HD
BRANCH  24  26
ATOM     26  C   UNL     1       1.232   9.993   0.147  0.00  0.00    +0.034 A 
ATOM     27  C   UNL     1       2.484  10.030   0.747  0.00  0.00    +0.025 A 
ATOM     28  C   UNL     1       3.166  11.226   0.845  0.00  0.00    +0.022 A 
ATOM     29  C   UNL     1       2.599  12.390   0.356  0.00  0.00    +0.053 A 
ATOM     30  C   UNL     1       1.349  12.357  -0.237  0.00  0.00    +0.075 A 
ATOM     31  C   UNL     1       0.665  11.162  -0.343  0.00  0.00    +0.037 A 
ATOM     32 CL   UNL     1       3.457  13.893   0.487  0.00  0.00    -0.083 Cl
BRANCH  30  33
ATOM     33  C   UNL     1       0.735  13.626  -0.769  0.00  0.00    +0.419 C 
ATOM     34  F   UNL     1      -0.520  13.342  -1.318  0.00  0.00    -0.166 F 
ATOM     35  F   UNL     1       0.589  14.547   0.275  0.00  0.00    -0.166 F 
ATOM     36  F   UNL     1       1.564  14.168  -1.756  0.00  0.00    -0.166 F 
ENDBRANCH  30  33
ENDBRANCH  24  26
ENDBRANCH  21  22
ENDBRANCH  20  21
ENDBRANCH   5  20
TORSDOF 8
