REMARK  Name = ZINC10252127
REMARK  5 active torsions:
REMARK  status: ('A' for Active; 'I' for Inactive)
REMARK    1  A    between atoms: C_1  and  O_2
REMARK    2  A    between atoms: O_2  and  C_3
REMARK    3  A    between atoms: C_8  and  C_9
REMARK    4  A    between atoms: C_11  and  C_14
REMARK    5  A    between atoms: C_14  and  N_15
REMARK                            x       y       z     vdW  Elec       q    Type
REMARK                         _______ _______ _______ _____ _____    ______ ____
ROOT
ATOM      1  C   UNL     1      -0.011  -2.830  -0.013  0.00  0.00    +0.112 A 
ATOM      2  N   UNL     1       0.147  -4.147  -0.027  0.00  0.00    -0.242 NA
ATOM      3  C   UNL     1       1.343  -4.689  -0.041  0.00  0.00    +0.067 A 
ATOM      4  C   UNL     1       2.446  -3.895  -0.042  0.00  0.00    +0.072 A 
ATOM      5  S   UNL     1       1.688  -2.276  -0.027  0.00  0.00    -0.075 S 
ENDROOT
BRANCH   1  11
ATOM      6  C   UNL     1      -1.200  -0.637   0.010  0.00  0.00    +0.130 A 
ATOM      7  C   UNL     1      -2.373   0.099   0.019  0.00  0.00    +0.046 A 
ATOM      8  C   UNL     1      -3.595  -0.546   0.028  0.00  0.00    +0.004 A 
ATOM      9  C   UNL     1      -3.656  -1.929   0.027  0.00  0.00    +0.001 A 
ATOM     10  C   UNL     1      -2.497  -2.676   0.018  0.00  0.00    +0.014 A 
ATOM     11  C   UNL     1      -1.257  -2.036   0.003  0.00  0.00    +0.049 A 
BRANCH   6  13
ATOM     12  C   UNL     1      -0.017   1.425   0.010  0.00  0.00    +0.277 C 
ATOM     13  O   UNL     1       0.002  -0.004   0.002  0.00  0.00    -0.494 OA
ENDBRANCH   6  13
ENDBRANCH   1  11
BRANCH   3  14
ATOM     14  C   UNL     1       1.492  -6.188  -0.057  0.00  0.00    +0.173 C 
BRANCH  14  15
ATOM     15  N   UNL     1       1.430  -6.699   1.315  0.00  0.00    -0.228 N 
ATOM     16  C   UNL     1       2.497  -6.851   2.120  0.00  0.00    +0.254 C 
ATOM     17  O   UNL     1       3.647  -6.591   1.828  0.00  0.00    -0.270 OA
ATOM     18  C   UNL     1       2.036  -7.387   3.418  0.00  0.00    +0.049 A 
ATOM     19  C   UNL     1       2.669  -7.736   4.600  0.00  0.00    +0.014 A 
ATOM     20  C   UNL     1       1.922  -8.223   5.661  0.00  0.00    +0.001 A 
ATOM     21  C   UNL     1       0.551  -8.365   5.547  0.00  0.00    +0.001 A 
ATOM     22  C   UNL     1      -0.095  -8.020   4.370  0.00  0.00    +0.014 A 
ATOM     23  C   UNL     1       0.639  -7.531   3.301  0.00  0.00    +0.049 A 
ATOM     24  C   UNL     1       0.298  -7.073   1.938  0.00  0.00    +0.254 C 
ATOM     25  O   UNL     1      -0.818  -7.041   1.460  0.00  0.00    -0.270 OA
ENDBRANCH  14  15
ENDBRANCH   3  14
TORSDOF 4
