REMARK  Name = ZINC59104964
REMARK  8 active torsions:
REMARK  status: ('A' for Active; 'I' for Inactive)
REMARK    1  A    between atoms: C_1  and  N_2
REMARK    2  A    between atoms: N_2  and  C_3
REMARK    3  A    between atoms: N_2  and  C_4
REMARK    4  A    between atoms: C_7  and  C_9
REMARK    5  A    between atoms: N_10  and  N_11
REMARK    6  A    between atoms: N_14  and  C_15
REMARK    7  A    between atoms: C_18  and  O_21
REMARK    8  A    between atoms: O_21  and  C_22
REMARK                            x       y       z     vdW  Elec       q    Type
REMARK                         _______ _______ _______ _____ _____    ______ ____
ROOT
ATOM      1  N   UNL     1      -0.274  -6.236  -2.508  0.00  0.00    -0.190 N 
ATOM      2  C   UNL     1      -0.320  -7.231  -1.600  0.00  0.00    +0.323 C 
ATOM      3  O   UNL     1      -0.493  -8.378  -1.963  0.00  0.00    -0.251 OA
ATOM      4  N   UNL     1      -0.173  -6.954  -0.289  0.00  0.00    -0.268 N 
ATOM      5  H   UNL     1      -0.379  -6.435  -3.452  0.00  0.00    +0.179 HD
ATOM      6  H   UNL     1      -0.110  -6.032   0.008  0.00  0.00    +0.156 HD
ENDROOT
BRANCH   4   7
ATOM      7  C   UNL     1      -0.112  -7.997   0.645  0.00  0.00    +0.035 A 
ATOM      8  C   UNL     1      -0.638  -7.821   1.917  0.00  0.00    +0.027 A 
ATOM      9  C   UNL     1      -0.577  -8.849   2.837  0.00  0.00    +0.047 A 
ATOM     10  C   UNL     1       0.009 -10.058   2.490  0.00  0.00    +0.120 A 
ATOM     11  C   UNL     1       0.534 -10.234   1.218  0.00  0.00    +0.047 A 
ATOM     12  C   UNL     1       0.470  -9.208   0.296  0.00  0.00    +0.027 A 
BRANCH  10  13
ATOM     13  O   UNL     1       0.068 -11.070   3.396  0.00  0.00    -0.495 OA
ATOM     14  C   UNL     1       0.685 -12.286   2.970  0.00  0.00    +0.277 C 
ENDBRANCH  10  13
ENDBRANCH   4   7
BRANCH   1  16
ATOM     15  C   UNL     1      -0.029  -3.953  -2.967  0.00  0.00    +0.176 C 
ATOM     16  N   UNL     1      -0.073  -4.914  -2.090  0.00  0.00    -0.183 NA
BRANCH  15  20
ATOM     17  C   UNL     1       0.509  -0.828  -1.232  0.00  0.00    +0.203 A 
ATOM     18  C   UNL     1       0.457  -0.365  -2.509  0.00  0.00    +0.079 A 
ATOM     19  C   UNL     1       0.247  -1.476  -3.342  0.00  0.00    +0.068 A 
ATOM     20  C   UNL     1       0.180  -2.572  -2.530  0.00  0.00    +0.151 A 
ATOM     21  O   UNL     1       0.347  -2.162  -1.254  0.00  0.00    -0.439 OA
ATOM     22 BR   UNL     1       0.634   1.436  -3.060  0.00  0.00    -0.045 Br
BRANCH  17  24
ATOM     23  C   UNL     1      -0.452   0.440   0.659  0.00  0.00    +0.132 C 
ATOM     24  N   UNL     1       0.702  -0.054  -0.097  0.00  0.00    -0.307 N 
ATOM     25  C   UNL     1       2.061   0.270   0.346  0.00  0.00    +0.132 C 
ENDBRANCH  17  24
ENDBRANCH  15  20
ENDBRANCH   1  16
TORSDOF 5
