REMARK  Name = ZINC14270327
REMARK  5 active torsions:
REMARK  status: ('A' for Active; 'I' for Inactive)
REMARK    1  A    between atoms: C_4  and  C_8
REMARK    2  A    between atoms: N_10  and  C_11
REMARK    3  A    between atoms: C_11  and  N_13
REMARK    4  A    between atoms: N_13  and  C_14
REMARK    5  A    between atoms: C_19  and  O_20
REMARK                            x       y       z     vdW  Elec       q    Type
REMARK                         _______ _______ _______ _____ _____    ______ ____
ROOT
ATOM      1  C   UNL     1       1.109   2.054   0.248  0.00  0.00    +0.141 C 
ATOM      2  S   UNL     1       2.573   1.225   0.563  0.00  0.00    -0.018 S 
ENDROOT
BRANCH   1   5
ATOM      3  C   UNL     1      -0.073   0.055   0.478  0.00  0.00    +0.251 C 
ATOM      4  O   UNL     1       0.966  -0.534   0.702  0.00  0.00    -0.270 OA
ATOM      5  N   UNL     1      -0.059   1.381   0.239  0.00  0.00    -0.264 N 
ATOM      6  H   UNL     1      -0.888   1.850   0.057  0.00  0.00    +0.157 HD
BRANCH   3  10
ATOM      7  C   UNL     1      -3.752  -2.069   0.451  0.00  0.00    +0.017 A 
ATOM      8  C   UNL     1      -2.571  -2.743   0.705  0.00  0.00    +0.022 A 
ATOM      9  C   UNL     1      -1.371  -2.059   0.716  0.00  0.00    +0.053 A 
ATOM     10  C   UNL     1      -1.352  -0.683   0.469  0.00  0.00    +0.056 A 
ATOM     11  C   UNL     1      -2.549  -0.009   0.218  0.00  0.00    +0.029 A 
ATOM     12  C   UNL     1      -3.740  -0.706   0.205  0.00  0.00    +0.019 A 
ATOM     13 BR   UNL     1      -5.361   0.203  -0.142  0.00  0.00    -0.050 Br
ATOM     14 CL   UNL     1       0.110  -2.906   1.036  0.00  0.00    -0.083 Cl
ENDBRANCH   3  10
ENDBRANCH   1   5
BRANCH   1  15
ATOM     15  N   UNL     1       1.123   3.381   0.009  0.00  0.00    -0.294 N 
ATOM     16  H   UNL     1       0.303   3.840  -0.231  0.00  0.00    +0.154 HD
BRANCH  15  17
ATOM     17  C   UNL     1       2.323   4.097   0.108  0.00  0.00    +0.077 A 
ATOM     18  C   UNL     1       3.474   3.612  -0.497  0.00  0.00    +0.047 A 
ATOM     19  C   UNL     1       4.658   4.321  -0.399  0.00  0.00    +0.044 A 
ATOM     20  C   UNL     1       4.697   5.514   0.300  0.00  0.00    +0.043 A 
ATOM     21  C   UNL     1       3.554   6.003   0.905  0.00  0.00    +0.086 A 
ATOM     22  C   UNL     1       2.362   5.301   0.807  0.00  0.00    +0.156 A 
ATOM     23 CL   UNL     1       3.608   7.500   1.782  0.00  0.00    -0.080 Cl
ATOM     24 CL   UNL     1       6.097   3.712  -1.156  0.00  0.00    -0.083 Cl
BRANCH  22  25
ATOM     25  O   UNL     1       1.236   5.783   1.397  0.00  0.00    -0.504 OA
ATOM     26  H   UNL     1       1.110   5.486   2.308  0.00  0.00    +0.292 HD
ENDBRANCH  22  25
ENDBRANCH  15  17
ENDBRANCH   1  15
TORSDOF 5
