REMARK  Name = ZINC02357233
REMARK  10 active torsions:
REMARK  status: ('A' for Active; 'I' for Inactive)
REMARK    1  A    between atoms: C_1  and  C_2
REMARK    2  A    between atoms: C_2  and  N_3
REMARK    3  A    between atoms: C_7  and  C_8
REMARK    4  A    between atoms: C_9  and  N_20
REMARK    5  A    between atoms: C_12  and  C_19
REMARK    6  A    between atoms: C_26  and  C_28
REMARK    7  A    between atoms: C_28  and  C_29
REMARK    8  A    between atoms: C_29  and  O_31
REMARK    9  A    between atoms: O_31  and  C_32
REMARK   10  A    between atoms: C_32  and  C_33
REMARK                            x       y       z     vdW  Elec       q    Type
REMARK                         _______ _______ _______ _____ _____    ______ ____
ROOT
ATOM      1  C   UNL     1       4.396   1.803  -2.259  0.00  0.00    +0.081 A 
ATOM      2  C   UNL     1       3.724   2.282  -1.109  0.00  0.00    +0.137 A 
ATOM      3  N   UNL     1       3.110   1.425  -0.307  0.00  0.00    -0.213 NA
ATOM      4  C   UNL     1       3.098   0.116  -0.559  0.00  0.00    +0.145 A 
ATOM      5  C   UNL     1       2.423  -0.746   0.325  0.00  0.00    -0.007 A 
ATOM      6  C   UNL     1       2.410  -2.086   0.079  0.00  0.00    +0.008 A 
ATOM      7  C   UNL     1       3.068  -2.588  -1.053  0.00  0.00    +0.019 A 
ATOM      8  C   UNL     1       3.710  -1.745  -1.893  0.00  0.00    +0.096 A 
ATOM      9  N   UNL     1       3.730  -0.403  -1.655  0.00  0.00    -0.267 N 
ATOM     10  C   UNL     1       4.381   0.411  -2.514  0.00  0.00    +0.267 A 
ATOM     11  O   UNL     1       4.946  -0.046  -3.492  0.00  0.00    -0.267 OA
ATOM     12  C   UNL     1       1.721  -0.190   1.537  0.00  0.00    +0.047 C 
ENDROOT
BRANCH   1  17
ATOM     13  N   UNL     1       8.593   3.193  -3.982  0.00  0.00    -0.256 N 
ATOM     14  C   UNL     1       7.295   3.438  -4.044  0.00  0.00    +0.258 C 
ATOM     15  O   UNL     1       6.858   4.324  -4.757  0.00  0.00    -0.269 OA
ATOM     16  C   UNL     1       6.423   2.640  -3.249  0.00  0.00    +0.077 C 
ATOM     17  C   UNL     1       5.065   2.692  -3.131  0.00  0.00    +0.037 C 
ATOM     18  S   UNL     1       7.592   1.545  -2.455  0.00  0.00    -0.061 S 
ATOM     19  C   UNL     1       9.077   2.205  -3.197  0.00  0.00    +0.121 C 
ATOM     20  S   UNL     1      10.701   1.712  -2.971  0.00  0.00    -0.027 S 
BRANCH  13  22
ATOM     21  C   UNL     1       9.709   3.347  -6.153  0.00  0.00    +0.025 C 
ATOM     22  C   UNL     1       9.518   3.999  -4.782  0.00  0.00    +0.111 C 
ENDBRANCH  13  22
ENDBRANCH   1  17
BRANCH   2  23
ATOM     23  N   UNL     1       3.713   3.630  -0.824  0.00  0.00    -0.301 N 
ATOM     24  C   UNL     1       4.830   3.989   0.065  0.00  0.00    +0.126 C 
ATOM     25  C   UNL     1       4.958   5.513   0.101  0.00  0.00    +0.123 C 
ATOM     26  N   UNL     1       3.659   6.118   0.380  0.00  0.00    -0.312 N 
ATOM     27  C   UNL     1       2.505   5.464   0.222  0.00  0.00    +0.234 C 
ATOM     28  O   UNL     1       1.470   6.054   0.447  0.00  0.00    -0.274 OA
ATOM     29  C   UNL     1       2.436   4.029  -0.219  0.00  0.00    +0.171 C 
ATOM     30  H   UNL     1       3.633   7.036   0.693  0.00  0.00    +0.149 HD
BRANCH  29  31
ATOM     31  C   UNL     1       1.314   3.869  -1.248  0.00  0.00    +0.152 C 
BRANCH  31  32
ATOM     32  C   UNL     1       1.625   4.702  -2.464  0.00  0.00    +0.309 C 
ATOM     33  O   UNL     1       2.692   5.261  -2.557  0.00  0.00    -0.251 OA
BRANCH  32  34
ATOM     34  O   UNL     1       0.717   4.823  -3.445  0.00  0.00    -0.465 OA
BRANCH  34  35
ATOM     35  C   UNL     1       1.125   5.546  -4.636  0.00  0.00    +0.229 C 
ATOM     36  C   UNL     1       0.011   5.476  -5.682  0.00  0.00    +0.048 C 
ENDBRANCH  34  35
ENDBRANCH  32  34
ENDBRANCH  31  32
ENDBRANCH  29  31
ENDBRANCH   2  23
TORSDOF 7
