REMARK  Name = ZINC12414799
REMARK  5 active torsions:
REMARK  status: ('A' for Active; 'I' for Inactive)
REMARK    1  A    between atoms: C_8  and  C_14
REMARK    2  A    between atoms: C_17  and  C_20
REMARK    3  A    between atoms: N_22  and  C_23
REMARK    4  A    between atoms: C_23  and  C_24
REMARK    5  A    between atoms: C_24  and  C_25
REMARK                            x       y       z     vdW  Elec       q    Type
REMARK                         _______ _______ _______ _____ _____    ______ ____
ROOT
ATOM      1  C   UNL     1       2.340   4.262  -1.903  0.00  0.00    -0.011 A 
ATOM      2  C   UNL     1       3.573   4.441  -2.505  0.00  0.00    +0.007 A 
ATOM      3  C   UNL     1       3.691   4.364  -3.877  0.00  0.00    +0.013 A 
ATOM      4  C   UNL     1       2.561   4.117  -4.659  0.00  0.00    +0.037 A 
ATOM      5  C   UNL     1       1.320   3.943  -4.045  0.00  0.00    +0.013 A 
ATOM      6  C   UNL     1       1.216   4.017  -2.672  0.00  0.00    +0.007 A 
ENDROOT
BRANCH   1  14
ATOM      7  C   UNL     1       0.002  -0.004   0.002  0.00  0.00    +0.002 A 
ATOM      8  C   UNL     1       1.206  -0.685  -0.013  0.00  0.00    +0.002 A 
ATOM      9  C   UNL     1       2.396   0.020  -0.029  0.00  0.00    +0.030 A 
ATOM     10  C   UNL     1       2.381   1.399  -0.028  0.00  0.00    +0.126 A 
ATOM     11  C   UNL     1       1.179   2.093   0.002  0.00  0.00    +0.055 A 
ATOM     12  C   UNL     1      -0.017   1.375   0.010  0.00  0.00    +0.025 A 
ATOM     13  N   UNL     1       1.127   3.483   0.048  0.00  0.00    -0.322 N 
ATOM     14  C   UNL     1       2.220   4.342  -0.403  0.00  0.00    +0.191 C 
ATOM     15  N   UNL     1       3.475   3.879   0.223  0.00  0.00    -0.166 NA
ATOM     16  S   UNL     1       3.903   2.296  -0.084  0.00  0.00    +0.062 S 
ATOM     17  O   UNL     1       4.685   1.855   1.018  0.00  0.00    -0.153 OA
ATOM     18  O   UNL     1       4.365   2.245  -1.426  0.00  0.00    -0.153 OA
ATOM     19  H   UNL     1       0.325   3.903   0.396  0.00  0.00    +0.148 HD
ATOM     20  H   UNL     1       4.017   4.460   0.780  0.00  0.00    +0.150 HD
ENDBRANCH   1  14
BRANCH   4  21
ATOM     21  C   UNL     1       2.679   4.038  -6.131  0.00  0.00    +0.244 C 
ATOM     22  O   UNL     1       1.694   3.823  -6.809  0.00  0.00    -0.270 OA
ATOM     23  N   UNL     1       3.879   4.206  -6.720  0.00  0.00    -0.311 N 
ATOM     24  H   UNL     1       4.666   4.378  -6.179  0.00  0.00    +0.149 HD
BRANCH  23  25
ATOM     25  C   UNL     1       3.996   4.129  -8.179  0.00  0.00    +0.109 C 
BRANCH  25  26
ATOM     26  C   UNL     1       5.454   4.354  -8.586  0.00  0.00    +0.049 C 
BRANCH  26  27
ATOM     27  C   UNL     1       5.574   4.274 -10.086  0.00  0.00    -0.072 C 
ATOM     28  C   UNL     1       5.522   5.379 -10.759  0.00  0.00    -0.028 C 
ATOM     29  C   UNL     1       5.622   5.458 -12.254  0.00  0.00    +0.027 C 
ATOM     30  C   UNL     1       6.196   4.156 -12.815  0.00  0.00    +0.004 C 
ATOM     31  C   UNL     1       5.422   2.981 -12.203  0.00  0.00    +0.005 C 
ATOM     32  C   UNL     1       5.741   2.918 -10.708  0.00  0.00    +0.030 C 
ENDBRANCH  26  27
ENDBRANCH  25  26
ENDBRANCH  23  25
ENDBRANCH   4  21
TORSDOF 5
