REMARK  Name = ZINC13064836
REMARK  13 active torsions:
REMARK  status: ('A' for Active; 'I' for Inactive)
REMARK    1  A    between atoms: C_1  and  C_2
REMARK    2  A    between atoms: C_2  and  C_3
REMARK    3  A    between atoms: C_3  and  C_5
REMARK    4  A    between atoms: C_3  and  N_76
REMARK    5  A    between atoms: N_9  and  C_10
REMARK    6  A    between atoms: C_16  and  C_17
REMARK    7  A    between atoms: C_16  and  N_76
REMARK    8  A    between atoms: C_20  and  O_23
REMARK    9  A    between atoms: O_23  and  C_24
REMARK   10  A    between atoms: C_25  and  C_26
REMARK   11  A    between atoms: C_25  and  N_76
REMARK   12  A    between atoms: C_29  and  C_39
REMARK   13  A    between atoms: C_31  and  C_38
REMARK                            x       y       z     vdW  Elec       q    Type
REMARK                         _______ _______ _______ _____ _____    ______ ____
ROOT
ATOM      1  N   UNL     1       0.056  -0.070   0.630  0.00  0.00    +0.392 N 
ATOM      2  H   UNL     1       0.993   0.345   0.689  0.00  0.00    -0.080 HD
ENDROOT
BRANCH   1   3
ATOM      3  C   UNL     1      -0.862   0.692   1.503  0.00  0.00    +0.003 C 
BRANCH   3   4
ATOM      4  C   UNL     1      -2.074  -0.137   1.843  0.00  0.00    +0.138 A 
ATOM      5  N   UNL     1      -2.084  -1.289   2.468  0.00  0.00    -0.115 NA
ATOM      6  N   UNL     1      -3.309  -1.676   2.568  0.00  0.00    -0.023 NA
ATOM      7  N   UNL     1      -4.080  -0.801   2.024  0.00  0.00    -0.044 NA
ATOM      8  N   UNL     1      -3.357   0.166   1.571  0.00  0.00    -0.228 N 
BRANCH   8   9
ATOM      9  C   UNL     1      -3.840   1.367   0.884  0.00  0.00    +0.111 C 
ATOM     10  C   UNL     1      -4.781   2.140   1.810  0.00  0.00    +0.027 C 
ATOM     11  C   UNL     1      -5.286   3.393   1.093  0.00  0.00    +0.002 C 
ATOM     12  C   UNL     1      -6.039   2.987  -0.176  0.00  0.00    +0.000 C 
ATOM     13  C   UNL     1      -5.098   2.214  -1.102  0.00  0.00    +0.002 C 
ATOM     14  C   UNL     1      -4.593   0.961  -0.385  0.00  0.00    +0.027 C 
ENDBRANCH   8   9
ENDBRANCH   3   4
BRANCH   3  16
ATOM     15  C   UNL     1       1.081   1.946   2.448  0.00  0.00    +0.002 C 
ATOM     16  C   UNL     1      -0.120   1.062   2.789  0.00  0.00    -0.011 C 
ENDBRANCH   3  16
ENDBRANCH   1   3
BRANCH   1  17
ATOM     17  C   UNL     1       0.126  -1.478   1.077  0.00  0.00    -0.042 C 
BRANCH  17  18
ATOM     18  C   UNL     1       0.943  -1.544   2.342  0.00  0.00    -0.064 A 
ATOM     19  C   UNL     1       2.250  -1.092   2.344  0.00  0.00    +0.005 A 
ATOM     20  C   UNL     1       2.998  -1.147   3.504  0.00  0.00    +0.046 A 
ATOM     21  C   UNL     1       2.442  -1.665   4.664  0.00  0.00    +0.120 A 
ATOM     22  C   UNL     1       1.132  -2.123   4.658  0.00  0.00    +0.046 A 
ATOM     23  C   UNL     1       0.386  -2.061   3.497  0.00  0.00    +0.005 A 
BRANCH  21  24
ATOM     24  O   UNL     1       3.178  -1.725   5.805  0.00  0.00    -0.495 OA
ATOM     25  C   UNL     1       4.519  -1.236   5.737  0.00  0.00    +0.277 C 
ENDBRANCH  21  24
ENDBRANCH  17  18
ENDBRANCH   1  17
BRANCH   1  26
ATOM     26  C   UNL     1      -0.410  -0.008  -0.771  0.00  0.00    -0.036 C 
BRANCH  26  27
ATOM     27  C   UNL     1       0.182   1.217  -1.419  0.00  0.00    +0.001 A 
ATOM     28  C   UNL     1       1.369   1.129  -2.069  0.00  0.00    +0.017 A 
ATOM     29  C   UNL     1       1.918   2.337  -2.689  0.00  0.00    +0.002 A 
ATOM     30  C   UNL     1       3.138   2.309  -3.373  0.00  0.00    -0.041 A 
ATOM     31  C   UNL     1       3.622   3.454  -3.940  0.00  0.00    +0.007 A 
ATOM     32  C   UNL     1       2.914   4.644  -3.844  0.00  0.00    -0.048 A 
ATOM     33  C   UNL     1       1.711   4.695  -3.175  0.00  0.00    +0.029 A 
ATOM     34  C   UNL     1       1.198   3.543  -2.589  0.00  0.00    +0.050 A 
ATOM     35  N   UNL     1      -0.005   3.564  -1.914  0.00  0.00    -0.322 N 
ATOM     36  H   UNL     1      -0.500   4.396  -1.847  0.00  0.00    +0.169 HD
ATOM     37  C   UNL     1      -0.503   2.449  -1.353  0.00  0.00    +0.251 A 
ATOM     38  O   UNL     1      -1.571   2.504  -0.768  0.00  0.00    -0.268 OA
ATOM     39  C   UNL     1       3.468   5.894  -4.478  0.00  0.00    +0.044 C 
ATOM     40  C   UNL     1       3.914   1.023  -3.483  0.00  0.00    +0.044 C 
ENDBRANCH  26  27
ENDBRANCH   1  26
TORSDOF 9
