REMARK  Name = ZINC00205731
REMARK  4 active torsions:
REMARK  status: ('A' for Active; 'I' for Inactive)
REMARK    1  A    between atoms: C_1  and  C_2
REMARK    2  A    between atoms: C_4  and  C_17
REMARK    3  A    between atoms: C_9  and  N_13
REMARK    4  A    between atoms: C_10  and  O_12
REMARK                            x       y       z     vdW  Elec       q    Type
REMARK                         _______ _______ _______ _____ _____    ______ ____
ROOT
ATOM      1  C   UNL     1       0.025   1.453  -0.074  0.00  0.00    +0.044 C 
ATOM      2  C   UNL     1       0.029  -0.054  -0.063  0.00  0.00    -0.048 A 
ATOM      3  C   UNL     1       0.016  -0.750  -1.268  0.00  0.00    +0.009 A 
ATOM      4  C   UNL     1       0.019  -2.112  -1.289  0.00  0.00    -0.023 A 
ATOM      5  C   UNL     1       0.036  -2.830  -0.082  0.00  0.00    +0.096 A 
ATOM      6  C   UNL     1       0.050  -2.123   1.143  0.00  0.00    +0.092 A 
ATOM      7  C   UNL     1       0.051  -0.717   1.126  0.00  0.00    +0.033 A 
ATOM      8  N   UNL     1       0.066  -2.786   2.308  0.00  0.00    -0.222 NA
ATOM      9  C   UNL     1       0.070  -4.111   2.311  0.00  0.00    +0.218 A 
ATOM     10  C   UNL     1       0.056  -4.838   1.041  0.00  0.00    +0.259 A 
ATOM     11  N   UNL     1       0.040  -4.172  -0.091  0.00  0.00    -0.208 NA
ATOM     12  C   UNL     1       0.004  -2.847  -2.605  0.00  0.00    +0.046 C 
ENDROOT
BRANCH   9  13
ATOM     13  N   UNL     1       0.087  -4.791   3.489  0.00  0.00    -0.201 NA
ATOM     14  C   UNL     1       1.233  -5.193   4.001  0.00  0.00    +0.165 C 
ATOM     15  N   UNL     1       2.414  -4.828   3.409  0.00  0.00    -0.337 N 
ATOM     16  S   UNL     1       1.246  -6.200   5.447  0.00  0.00    -0.014 SA
ATOM     17  H   UNL     1       2.410  -4.213   2.659  0.00  0.00    +0.144 HD
ATOM     18  H   UNL     1       3.253  -5.186   3.739  0.00  0.00    +0.144 HD
ENDBRANCH   9  13
BRANCH  10  19
ATOM     19  O   UNL     1       0.060  -6.193   1.034  0.00  0.00    -0.490 OA
ATOM     20  H   UNL     1      -0.822  -6.589   1.043  0.00  0.00    +0.294 HD
ENDBRANCH  10  19
TORSDOF 2
