REMARK  Name = ZINC42405904
REMARK  6 active torsions:
REMARK  status: ('A' for Active; 'I' for Inactive)
REMARK    1  A    between atoms: C_1  and  N_2
REMARK    2  A    between atoms: C_4  and  S_7
REMARK    3  A    between atoms: S_7  and  C_8
REMARK    4  A    between atoms: C_10  and  N_18
REMARK    5  A    between atoms: C_12  and  S_14
REMARK    6  A    between atoms: S_14  and  N_17
REMARK                            x       y       z     vdW  Elec       q    Type
REMARK                         _______ _______ _______ _____ _____    ______ ____
ROOT
ATOM      1  C   UNL     1       0.065  -4.954  -0.684  0.00  0.00    +0.016 A 
ATOM      2  C   UNL     1      -0.017  -4.826   0.696  0.00  0.00    +0.038 A 
ATOM      3  C   UNL     1       0.001  -5.959   1.496  0.00  0.00    +0.027 A 
ATOM      4  C   UNL     1       0.101  -7.218   0.915  0.00  0.00    +0.051 A 
ATOM      5  C   UNL     1       0.182  -7.341  -0.459  0.00  0.00    +0.108 A 
ATOM      6  C   UNL     1       0.158  -6.216  -1.260  0.00  0.00    +0.043 A 
ENDROOT
BRANCH   5   7
ATOM      7  S   UNL     1       0.308  -8.939  -1.192  0.00  0.00    +0.056 S 
ATOM      8  O   UNL     1       0.919  -8.756  -2.462  0.00  0.00    -0.153 OA
ATOM      9  O   UNL     1       0.854  -9.798  -0.201  0.00  0.00    -0.153 OA
BRANCH   7  10
ATOM     10  N   UNL     1      -1.234  -9.469  -1.480  0.00  0.00    -0.204 NA
ATOM     11  H   UNL     1      -1.991  -8.910  -1.245  0.00  0.00    +0.144 HD
ATOM     12  H   UNL     1      -1.380 -10.338  -1.885  0.00  0.00    +0.144 HD
ENDBRANCH   7  10
ENDBRANCH   5   7
BRANCH   3  13
ATOM     13  N   UNL     1      -0.080  -5.836   2.885  0.00  0.00    -0.358 N 
ATOM     14  H   UNL     1      -0.149  -4.957   3.291  0.00  0.00    +0.142 HD
ATOM     15  H   UNL     1      -0.067  -6.628   3.444  0.00  0.00    +0.142 HD
ENDBRANCH   3  13
BRANCH   1  16
ATOM     16  S   UNL     1       0.042  -3.518  -1.706  0.00  0.00    -0.086 S 
BRANCH  16  20
ATOM     17  C   UNL     1       4.535  -1.400  -3.456  0.00  0.00    +0.172 C 
ATOM     18  N   UNL     1       3.596  -2.260  -2.732  0.00  0.00    -0.273 N 
ATOM     19  C   UNL     1       2.240  -2.202  -2.802  0.00  0.00    +0.123 A 
ATOM     20  C   UNL     1       1.746  -3.166  -1.983  0.00  0.00    +0.050 A 
ATOM     21  C   UNL     1       2.833  -3.830  -1.397  0.00  0.00    +0.149 A 
ATOM     22  N   UNL     1       3.937  -3.293  -1.849  0.00  0.00    -0.179 NA
ENDBRANCH  16  20
ENDBRANCH   1  16
TORSDOF 5
