REMARK  Name = ZINC11736765
REMARK  7 active torsions:
REMARK  status: ('A' for Active; 'I' for Inactive)
REMARK    1  A    between atoms: C_1  and  C_2
REMARK    2  A    between atoms: C_4  and  N_15
REMARK    3  A    between atoms: C_5  and  C_14
REMARK    4  A    between atoms: C_6  and  S_8
REMARK    5  A    between atoms: S_8  and  N_11
REMARK    6  A    between atoms: N_11  and  C_12
REMARK    7  A    between atoms: N_11  and  C_13
REMARK                            x       y       z     vdW  Elec       q    Type
REMARK                         _______ _______ _______ _____ _____    ______ ____
ROOT
ATOM      1  C   UNL     1       1.109   4.314  -0.615  0.00  0.00    +0.044 C 
ATOM      2  C   UNL     1       0.903   2.823  -0.675  0.00  0.00    -0.047 A 
ATOM      3  C   UNL     1      -0.367   2.308  -0.852  0.00  0.00    +0.026 A 
ATOM      4  C   UNL     1      -0.556   0.934  -0.908  0.00  0.00    +0.030 A 
ATOM      5  C   UNL     1       0.533   0.080  -0.786  0.00  0.00    -0.003 A 
ATOM      6  C   UNL     1       1.800   0.601  -0.609  0.00  0.00    +0.110 A 
ATOM      7  C   UNL     1       1.984   1.970  -0.554  0.00  0.00    +0.032 A 
ATOM      8  C   UNL     1       0.332  -1.412  -0.845  0.00  0.00    +0.047 C 
ENDROOT
BRANCH   6   9
ATOM      9  S   UNL     1       3.182  -0.481  -0.454  0.00  0.00    +0.061 S 
ATOM     10  O   UNL     1       4.334   0.344  -0.356  0.00  0.00    -0.153 OA
ATOM     11  O   UNL     1       2.841  -1.435   0.543  0.00  0.00    -0.153 OA
BRANCH   9  12
ATOM     12  N   UNL     1       3.315  -1.313  -1.879  0.00  0.00    -0.183 NA
ATOM     13  C   UNL     1       4.013  -0.709  -3.017  0.00  0.00    +0.131 C 
ATOM     14  C   UNL     1       2.735  -2.653  -2.003  0.00  0.00    +0.131 C 
ENDBRANCH   9  12
ENDBRANCH   6   9
BRANCH   4  15
ATOM     15  N   UNL     1      -1.839   0.411  -1.087  0.00  0.00    -0.358 N 
ATOM     16  H   UNL     1      -2.599   1.008  -1.172  0.00  0.00    +0.142 HD
ATOM     17  H   UNL     1      -1.970  -0.550  -1.126  0.00  0.00    +0.142 HD
ENDBRANCH   4  15
TORSDOF 3
