REMARK  Name = ZINC04263339
REMARK  8 active torsions:
REMARK  status: ('A' for Active; 'I' for Inactive)
REMARK    1  A    between atoms: C_1  and  O_2
REMARK    2  A    between atoms: O_2  and  C_3
REMARK    3  A    between atoms: C_5  and  C_10
REMARK    4  A    between atoms: C_8  and  O_9
REMARK    5  A    between atoms: C_12  and  C_24
REMARK    6  A    between atoms: C_14  and  C_19
REMARK    7  A    between atoms: C_14  and  O_23
REMARK    8  A    between atoms: C_24  and  C_26
REMARK                            x       y       z     vdW  Elec       q    Type
REMARK                         _______ _______ _______ _____ _____    ______ ____
ROOT
ATOM      1  C   UNL     1       3.553  -0.857   0.064  0.00  0.00    +0.120 C 
ATOM      2  C   UNL     1       3.943  -0.911   1.545  0.00  0.00    +0.144 C 
ATOM      3  C   UNL     1       3.078  -1.969   2.239  0.00  0.00    +0.243 C 
ATOM      4  N   UNL     1       3.232  -3.247   1.542  0.00  0.00    -0.264 N 
ATOM      5  C   UNL     1       3.513  -3.297   0.232  0.00  0.00    +0.302 C 
ATOM      6  O   UNL     1       3.620  -4.385  -0.301  0.00  0.00    -0.253 OA
ATOM      7  N   UNL     1       3.680  -2.196  -0.515  0.00  0.00    -0.292 N 
ATOM      8  H   UNL     1       3.129  -4.074   2.039  0.00  0.00    +0.153 HD
ATOM      9  H   UNL     1       3.891  -2.288  -1.457  0.00  0.00    +0.151 HD
ENDROOT
BRANCH   1  12
ATOM     10  C   UNL     1       0.530   1.400  -0.133  0.00  0.00    +0.162 A 
ATOM     11  C   UNL     1       1.840   0.965  -0.015  0.00  0.00    +0.055 A 
ATOM     12  C   UNL     1       2.127  -0.386  -0.065  0.00  0.00    -0.023 A 
ATOM     13  C   UNL     1       1.110  -1.306  -0.233  0.00  0.00    +0.009 A 
ATOM     14  C   UNL     1      -0.200  -0.879  -0.352  0.00  0.00    +0.049 A 
ATOM     15  C   UNL     1      -0.494   0.474  -0.303  0.00  0.00    +0.158 A 
BRANCH  10  17
ATOM     16  C   UNL     1       1.347   3.622   0.092  0.00  0.00    +0.277 C 
ATOM     17  O   UNL     1       0.246   2.729  -0.085  0.00  0.00    -0.491 OA
ENDBRANCH  10  17
BRANCH  15  18
ATOM     18  O   UNL     1      -1.782   0.896  -0.426  0.00  0.00    -0.503 OA
ATOM     19  H   UNL     1      -2.255   0.964   0.415  0.00  0.00    +0.292 HD
ENDBRANCH  15  18
ENDBRANCH   1  12
BRANCH   3  20
ATOM     20  C   UNL     1       3.528  -2.122   3.694  0.00  0.00    +0.436 C 
ATOM     21  F   UNL     1       4.814  -2.673   3.729  0.00  0.00    -0.166 F 
ATOM     22  F   UNL     1       3.541  -0.867   4.312  0.00  0.00    -0.166 F 
ATOM     23  F   UNL     1       2.640  -2.966   4.370  0.00  0.00    -0.166 F 
ENDBRANCH   3  20
BRANCH   3  24
ATOM     24  O   UNL     1       1.708  -1.566   2.202  0.00  0.00    -0.364 OA
ATOM     25  H   UNL     1       1.102  -2.193   2.620  0.00  0.00    +0.212 HD
ENDBRANCH   3  24
BRANCH   2  26
ATOM     26  C   UNL     1       5.397  -1.283   1.673  0.00  0.00    +0.173 C 
ATOM     27  O   UNL     1       5.755  -2.418   1.440  0.00  0.00    -0.292 OA
BRANCH  26  28
ATOM     28  C   UNL     1       6.383  -0.270   2.080  0.00  0.00    +0.018 A 
ATOM     29  C   UNL     1       5.995   1.064   2.243  0.00  0.00    +0.011 A 
ATOM     30  C   UNL     1       6.923   2.007   2.629  0.00  0.00    +0.001 A 
ATOM     31  C   UNL     1       8.240   1.639   2.847  0.00  0.00    +0.000 A 
ATOM     32  C   UNL     1       8.633   0.322   2.683  0.00  0.00    +0.001 A 
ATOM     33  C   UNL     1       7.715  -0.634   2.302  0.00  0.00    +0.011 A 
ENDBRANCH  26  28
ENDBRANCH   2  26
TORSDOF 7
