REMARK  Name = ZINC05817207
REMARK  6 active torsions:
REMARK  status: ('A' for Active; 'I' for Inactive)
REMARK    1  A    between atoms: C_1  and  C_2
REMARK    2  A    between atoms: C_2  and  C_3
REMARK    3  A    between atoms: C_2  and  C_4
REMARK    4  A    between atoms: C_2  and  C_5
REMARK    5  A    between atoms: C_8  and  C_11
REMARK    6  A    between atoms: CA_20  and  C_22
REMARK                            x       y       z     vdW  Elec       q    Type
REMARK                         _______ _______ _______ _____ _____    ______ ____
ROOT
ATOM      1  C   UNL     1       2.493   1.688  -0.016  0.00  0.00    +0.012 C 
ATOM      2  C   UNL     1       1.099   2.264   0.004  0.00  0.00    +0.052 A 
ATOM      3  C   UNL     1      -0.018   1.503   0.010  0.00  0.00    +0.036 A 
ATOM      4  N   UNL     1      -1.081   2.349   0.031  0.00  0.00    -0.348 N 
ATOM      5  H   UNL     1      -2.047   2.092   0.044  0.00  0.00    +0.166 HD
ATOM      6  C   UNL     1      -0.582   3.608   0.029  0.00  0.00    +0.196 A 
ATOM      7  N   UNL     1       0.725   3.544   0.017  0.00  0.00    -0.242 NA
ATOM      8  C   UNL     1       0.002  -0.004   0.002  0.00  0.00    +0.050 C 
ATOM      9  CA  UNL     1       1.419  -0.457   0.382  0.00  0.00    +0.051 C 
ATOM     10  N   UNL     1       2.412   0.270  -0.435  0.00  0.00    +0.397 N 
ATOM     11  H1  UNL     1       3.332  -0.170  -0.319  0.00  0.00    -0.083 HD
ATOM     12  H2  UNL     1       2.134   0.226  -1.423  0.00  0.00    -0.083 HD
ENDROOT
BRANCH   1  16
ATOM     13  C   UNL     1       4.906   3.844  -2.805  0.00  0.00    -0.042 A 
ATOM     14  C   UNL     1       5.015   4.103  -1.451  0.00  0.00    +0.004 A 
ATOM     15  C   UNL     1       4.234   3.406  -0.549  0.00  0.00    +0.002 A 
ATOM     16  C   UNL     1       3.344   2.449  -1.000  0.00  0.00    -0.056 A 
ATOM     17  C   UNL     1       3.239   2.186  -2.353  0.00  0.00    +0.002 A 
ATOM     18  C   UNL     1       4.017   2.887  -3.256  0.00  0.00    +0.004 A 
BRANCH  13  20
ATOM     19  C   UNL     1       7.236   4.357  -3.482  0.00  0.00    +0.015 C 
ATOM     20  C   UNL     1       5.757   4.605  -3.789  0.00  0.00    -0.013 C 
ATOM     21  C   UNL     1       5.444   4.129  -5.209  0.00  0.00    +0.015 C 
ATOM     22  C   UNL     1       5.456   6.100  -3.674  0.00  0.00    +0.015 C 
ENDBRANCH  13  20
ENDBRANCH   1  16
BRANCH   9  23
ATOM     23  C   UNL     1       1.559  -1.935   0.124  0.00  0.00    +0.343 C 
ATOM     24  O   UNL     1       2.108  -2.324  -0.879  0.00  0.00    -0.248 OA
ATOM     25  OXT UNL     1       1.075  -2.820   1.010  0.00  0.00    -0.248 OA
ENDBRANCH   9  23
TORSDOF 3
