REMARK  Name = ZINC51414369
REMARK  4 active torsions:
REMARK  status: ('A' for Active; 'I' for Inactive)
REMARK    1  A    between atoms: C_2  and  N_7
REMARK    2  A    between atoms: C_8  and  C_10
REMARK    3  A    between atoms: C_10  and  N_11
REMARK    4  A    between atoms: C_12  and  C_14
REMARK                            x       y       z     vdW  Elec       q    Type
REMARK                         _______ _______ _______ _____ _____    ______ ____
ROOT
ATOM      1  N   UNL     1       4.941   4.888  -0.019  0.00  0.00    -0.306 N 
ATOM      2  C   UNL     1       5.580   6.075  -0.020  0.00  0.00    +0.220 C 
ATOM      3  O   UNL     1       4.942   7.106  -0.008  0.00  0.00    -0.275 OA
ATOM      4  H   UNL     1       5.452   4.063  -0.029  0.00  0.00    +0.149 HD
ENDROOT
BRANCH   2   5
ATOM      5  C   UNL     1       7.086   6.120  -0.034  0.00  0.00    +0.049 C 
ATOM      6  C   UNL     1       7.629   5.409   1.207  0.00  0.00    +0.019 C 
ATOM      7  C   UNL     1       9.159   5.455   1.193  0.00  0.00    -0.008 C 
ATOM      8  C   UNL     1       9.625   6.912   1.196  0.00  0.00    +0.007 C 
ATOM      9  C   UNL     1       9.081   7.624  -0.045  0.00  0.00    -0.008 C 
ATOM     10  C   UNL     1       7.552   7.578  -0.031  0.00  0.00    +0.019 C 
ATOM     11  C   UNL     1       9.601   6.925  -1.303  0.00  0.00    +0.021 C 
ATOM     12  C   UNL     1       9.135   5.468  -1.306  0.00  0.00    +0.028 C 
ATOM     13  C   UNL     1       9.678   4.756  -0.065  0.00  0.00    +0.021 C 
ATOM     14  C   UNL     1       7.606   5.421  -1.291  0.00  0.00    +0.034 C 
ATOM     15 BR   UNL     1       9.803   4.569  -2.922  0.00  0.00    -0.084 Br
ENDBRANCH   2   5
BRANCH   1  16
ATOM     16  C   UNL     1       3.477   4.843  -0.006  0.00  0.00    +0.200 C 
BRANCH  16  18
ATOM     17  N   UNL     1       1.701   3.122   0.002  0.00  0.00    -0.282 N 
ATOM     18  C   UNL     1       3.018   3.408  -0.009  0.00  0.00    +0.234 C 
ATOM     19  O   UNL     1       3.834   2.510  -0.021  0.00  0.00    -0.274 OA
ATOM     20  H   UNL     1       1.049   3.840   0.012  0.00  0.00    +0.155 HD
BRANCH  17  22
ATOM     21  C   UNL     1      -0.016   1.354   0.009  0.00  0.00    +0.128 A 
ATOM     22  C   UNL     1       1.272   1.781  -0.001  0.00  0.00    +0.071 A 
ATOM     23  C   UNL     1       2.100   0.649  -0.015  0.00  0.00    +0.157 A 
ATOM     24  N   UNL     1       1.341  -0.416  -0.013  0.00  0.00    -0.180 NA
ATOM     25  N   UNL     1       0.002  -0.004   0.002  0.00  0.00    -0.283 N 
ATOM     26  H   UNL     1      -0.774  -0.586   0.006  0.00  0.00    +0.188 HD
ENDBRANCH  17  22
ENDBRANCH  16  18
ENDBRANCH   1  16
TORSDOF 4
