REMARK  Name = ZINC65534269
REMARK  1 active torsions:
REMARK  status: ('A' for Active; 'I' for Inactive)
REMARK    1  A    between atoms: C_6  and  N_7
REMARK                            x       y       z     vdW  Elec       q    Type
REMARK                         _______ _______ _______ _____ _____    ______ ____
ROOT
ATOM      1  N   UNL     1      -1.200  -0.722   0.010  0.00  0.00    -0.280 N 
ATOM      2  C   UNL     1      -2.394  -0.070   0.122  0.00  0.00    +0.114 A 
ATOM      3  C   UNL     1      -3.557  -0.753   0.131  0.00  0.00    +0.131 A 
ATOM      4  N   UNL     1      -3.590  -2.082   0.031  0.00  0.00    -0.234 NA
ATOM      5  C   UNL     1      -2.478  -2.777  -0.080  0.00  0.00    +0.182 A 
ATOM      6  C   UNL     1      -1.194  -2.069  -0.099  0.00  0.00    +0.295 A 
ATOM      7  O   UNL     1      -0.145  -2.682  -0.206  0.00  0.00    -0.264 OA
ATOM      8  N   UNL     1      -2.520  -4.161  -0.183  0.00  0.00    -0.339 N 
ATOM      9  H   UNL     1      -3.373  -4.622  -0.173  0.00  0.00    +0.144 HD
ATOM     10  H   UNL     1      -1.696  -4.667  -0.265  0.00  0.00    +0.144 HD
ENDROOT
BRANCH   1  16
ATOM     11  C   UNL     1       0.774   0.047  -1.151  0.00  0.00    +0.027 A 
ATOM     12  C   UNL     1       1.959   0.756  -1.157  0.00  0.00    +0.017 A 
ATOM     13  C   UNL     1       2.378   1.415  -0.014  0.00  0.00    +0.018 A 
ATOM     14  C   UNL     1       1.611   1.365   1.137  0.00  0.00    +0.017 A 
ATOM     15  C   UNL     1       0.425   0.658   1.148  0.00  0.00    +0.027 A 
ATOM     16  C   UNL     1       0.002  -0.004   0.002  0.00  0.00    +0.050 A 
ATOM     17 BR   UNL     1       4.001   2.385  -0.025  0.00  0.00    -0.050 Br
ENDBRANCH   1  16
TORSDOF 1
