REMARK  Name = ZINC40911882
REMARK  6 active torsions:
REMARK  status: ('A' for Active; 'I' for Inactive)
REMARK    1  A    between atoms: C_1  and  C_2
REMARK    2  A    between atoms: C_5  and  N_9
REMARK    3  A    between atoms: N_12  and  C_13
REMARK    4  A    between atoms: C_13  and  C_14
REMARK    5  A    between atoms: C_13  and  C_15
REMARK    6  A    between atoms: C_13  and  C_16
REMARK                            x       y       z     vdW  Elec       q    Type
REMARK                         _______ _______ _______ _____ _____    ______ ____
ROOT
ATOM      1  N   UNL     1       0.058  -4.172  -0.021  0.00  0.00    -0.267 N 
ATOM      2  C   UNL     1       0.472  -4.846   1.070  0.00  0.00    +0.305 C 
ATOM      3  O   UNL     1       0.742  -4.244   2.091  0.00  0.00    -0.252 OA
ATOM      4  N   UNL     1       0.586  -6.189   1.030  0.00  0.00    -0.284 N 
ATOM      5  H   UNL     1      -0.226  -4.656  -0.812  0.00  0.00    +0.156 HD
ATOM      6  H   UNL     1       0.370  -6.669   0.215  0.00  0.00    +0.151 HD
ENDROOT
BRANCH   1  11
ATOM      7  C   UNL     1      -0.020   1.503   0.010  0.00  0.00    +0.044 C 
ATOM      8  C   UNL     1       0.001  -0.004   0.002  0.00  0.00    -0.048 A 
ATOM      9  C   UNL     1       1.142  -0.676  -0.396  0.00  0.00    +0.020 A 
ATOM     10  C   UNL     1       1.165  -2.058  -0.404  0.00  0.00    +0.040 A 
ATOM     11  C   UNL     1       0.039  -2.772  -0.013  0.00  0.00    +0.063 A 
ATOM     12  C   UNL     1      -1.106  -2.093   0.386  0.00  0.00    +0.040 A 
ATOM     13  C   UNL     1      -1.119  -0.711   0.397  0.00  0.00    +0.020 A 
ATOM     14 BR   UNL     1      -2.641  -3.060   0.919  0.00  0.00    -0.048 Br
ATOM     15 BR   UNL     1       2.726  -2.976  -0.949  0.00  0.00    -0.048 Br
ENDBRANCH   1  11
BRANCH   4  16
ATOM     16  C   UNL     1       1.035  -6.922   2.216  0.00  0.00    +0.131 C 
ATOM     17  C   UNL     1       2.434  -6.444   2.611  0.00  0.00    +0.043 C 
ATOM     18  C   UNL     1       0.064  -6.668   3.370  0.00  0.00    +0.043 C 
BRANCH  16  19
ATOM     19  C   UNL     1       1.076  -8.397   1.909  0.00  0.00    +0.378 C 
ATOM     20  O   UNL     1       0.759  -8.798   0.802  0.00  0.00    -0.244 OA
ATOM     21  O   UNL     1       1.426  -9.188   2.767  0.00  0.00    -0.244 OA
ENDBRANCH  16  19
ENDBRANCH   4  16
TORSDOF 3
