REMARK  Name = ZINC18127742
REMARK  3 active torsions:
REMARK  status: ('A' for Active; 'I' for Inactive)
REMARK    1  A    between atoms: C_1  and  C_2
REMARK    2  A    between atoms: C_6  and  N_8
REMARK    3  A    between atoms: C_9  and  C_10
REMARK                            x       y       z     vdW  Elec       q    Type
REMARK                         _______ _______ _______ _____ _____    ______ ____
ROOT
ATOM      1  N   UNL     1       0.049  -2.670   2.336  0.00  0.00    -0.218 NA
ATOM      2  C   UNL     1       0.067  -3.979   2.358  0.00  0.00    +0.133 C 
ENDROOT
BRANCH   2   3
ATOM      3  C   UNL     1       0.083  -4.689   3.636  0.00  0.00    +0.124 A 
ATOM      4  C   UNL     1       0.107  -6.089   3.679  0.00  0.00    +0.265 A 
ATOM      5  N   UNL     1       0.121  -6.704   4.893  0.00  0.00    -0.301 N 
ATOM      6  C   UNL     1       0.110  -5.978   6.024  0.00  0.00    +0.184 A 
ATOM      7  N   UNL     1       0.087  -4.647   6.003  0.00  0.00    -0.184 NA
ATOM      8  C   UNL     1       0.079  -3.977   4.863  0.00  0.00    +0.286 A 
ATOM      9  O   UNL     1       0.061  -2.626   4.867  0.00  0.00    -0.265 OA
ATOM     10  S   UNL     1       0.127  -6.787   7.533  0.00  0.00    -0.011 S 
ATOM     11  O   UNL     1       0.117  -6.811   2.542  0.00  0.00    -0.267 OA
ATOM     12  H   UNL     1       0.139  -7.673   4.942  0.00  0.00    +0.171 HD
ENDBRANCH   2   3
BRANCH   1  18
ATOM     13  C   UNL     1      -0.018   1.503   0.010  0.00  0.00    +0.066 C 
ATOM     14  C   UNL     1       0.002  -0.004   0.002  0.00  0.00    +0.047 A 
ATOM     15  C   UNL     1       0.006  -0.696  -1.196  0.00  0.00    +0.095 A 
ATOM     16  C   UNL     1       0.025  -2.091  -1.161  0.00  0.00    +0.275 A 
ATOM     17  N   UNL     1       0.039  -2.707   0.013  0.00  0.00    -0.172 NA
ATOM     18  C   UNL     1       0.035  -2.008   1.145  0.00  0.00    +0.254 A 
ATOM     19  N   UNL     1       0.022  -0.678   1.140  0.00  0.00    -0.216 NA
ATOM     20  O   UNL     1       0.029  -2.806  -2.312  0.00  0.00    -0.266 OA
ENDBRANCH   1  18
TORSDOF 2
