REMARK  Name = ZINC01573791
REMARK  5 active torsions:
REMARK  status: ('A' for Active; 'I' for Inactive)
REMARK    1  A    between atoms: C_3  and  O_23
REMARK    2  A    between atoms: C_6  and  C_7
REMARK    3  A    between atoms: C_9  and  O_22
REMARK    4  A    between atoms: C_14  and  O_21
REMARK    5  A    between atoms: C_16  and  O_20
REMARK                            x       y       z     vdW  Elec       q    Type
REMARK                         _______ _______ _______ _____ _____    ______ ____
ROOT
ATOM      1  C   UNL     1       3.401   2.030   3.544  0.00  0.00    +0.240 C 
ATOM      2  C   UNL     1       1.880   2.120   3.729  0.00  0.00    +0.230 C 
ATOM      3  C   UNL     1       1.240   1.514   2.493  0.00  0.00    +0.202 C 
ATOM      4  O   UNL     1       0.256   0.806   2.566  0.00  0.00    -0.289 OA
ATOM      5  C   UNL     1       1.871   1.826   1.207  0.00  0.00    +0.103 A 
ATOM      6  C   UNL     1       1.220   1.531  -0.001  0.00  0.00    +0.134 A 
ATOM      7  C   UNL     1       1.841   1.830  -1.201  0.00  0.00    +0.091 A 
ATOM      8  C   UNL     1       3.102   2.414  -1.205  0.00  0.00    +0.124 A 
ATOM      9  C   UNL     1       3.751   2.708  -0.013  0.00  0.00    +0.092 A 
ATOM     10  C   UNL     1       3.147   2.420   1.198  0.00  0.00    +0.139 A 
ATOM     11  O   UNL     1       3.779   2.719   2.357  0.00  0.00    -0.480 OA
ENDROOT
BRANCH   1  17
ATOM     12  C   UNL     1       4.222   4.024   4.813  0.00  0.00    +0.011 A 
ATOM     13  C   UNL     1       4.848   4.596   5.903  0.00  0.00    +0.046 A 
ATOM     14  C   UNL     1       5.356   3.790   6.912  0.00  0.00    +0.117 A 
ATOM     15  C   UNL     1       5.228   2.411   6.825  0.00  0.00    +0.046 A 
ATOM     16  C   UNL     1       4.596   1.845   5.735  0.00  0.00    +0.011 A 
ATOM     17  C   UNL     1       4.091   2.650   4.732  0.00  0.00    -0.004 A 
BRANCH  14  18
ATOM     18  O   UNL     1       5.977   4.350   7.983  0.00  0.00    -0.507 OA
ATOM     19  H   UNL     1       6.930   4.467   7.868  0.00  0.00    +0.292 HD
ENDBRANCH  14  18
ENDBRANCH   1  17
BRANCH   8  20
ATOM     20  O   UNL     1       3.705   2.700  -2.386  0.00  0.00    -0.507 OA
ATOM     21  H   UNL     1       3.509   3.585  -2.724  0.00  0.00    +0.292 HD
ENDBRANCH   8  20
BRANCH   6  22
ATOM     22  O   UNL     1      -0.011   0.963   0.007  0.00  0.00    -0.506 OA
ATOM     23  H   UNL     1       0.002  -0.004   0.002  0.00  0.00    +0.292 HD
ENDBRANCH   6  22
BRANCH   2  24
ATOM     24  O   UNL     1       1.486   3.487   3.861  0.00  0.00    -0.380 OA
ATOM     25  H   UNL     1       0.531   3.615   3.946  0.00  0.00    +0.211 HD
ENDBRANCH   2  24
TORSDOF 5
