REMARK  Name = ZINC63133201
REMARK  5 active torsions:
REMARK  status: ('A' for Active; 'I' for Inactive)
REMARK    1  A    between atoms: C_8  and  N_13
REMARK    2  A    between atoms: C_9  and  N_12
REMARK    3  A    between atoms: N_13  and  C_14
REMARK    4  A    between atoms: C_14  and  C_15
REMARK    5  A    between atoms: C_15  and  C_16
REMARK                            x       y       z     vdW  Elec       q    Type
REMARK                         _______ _______ _______ _____ _____    ______ ____
ROOT
ATOM      1  C   UNL     1      -0.231   0.904   1.757  0.00  0.00    +0.017 A 
ATOM      2  C   UNL     1       0.741   1.849   1.642  0.00  0.00    +0.027 A 
ATOM      3  C   UNL     1       2.077   1.456   1.446  0.00  0.00    +0.048 A 
ATOM      4  C   UNL     1       2.384   0.075   1.371  0.00  0.00    +0.022 A 
ATOM      5  C   UNL     1       1.357  -0.872   1.494  0.00  0.00    +0.027 A 
ATOM      6  C   UNL     1       0.073  -0.454   1.683  0.00  0.00    +0.019 A 
ATOM      7 BR   UNL     1      -1.310  -1.732   1.849  0.00  0.00    -0.050 Br
ATOM      8  C   UNL     1       3.726  -0.318   1.173  0.00  0.00    +0.059 A 
ATOM      9  C   UNL     1       4.687   0.680   1.061  0.00  0.00    +0.062 A 
ATOM     10  C   UNL     1       4.303   2.017   1.146  0.00  0.00    +0.107 A 
ATOM     11  N   UNL     1       3.050   2.366   1.330  0.00  0.00    -0.359 N 
ATOM     12  H   UNL     1       2.825   3.308   1.383  0.00  0.00    +0.165 HD
ENDROOT
BRANCH   9  13
ATOM     13  N   UNL     1       6.035   0.345   0.865  0.00  0.00    -0.355 N 
ATOM     14  H   UNL     1       6.268  -0.441   0.345  0.00  0.00    +0.142 HD
ATOM     15  H   UNL     1       6.733   0.898   1.248  0.00  0.00    +0.142 HD
ENDBRANCH   9  13
BRANCH   8  16
ATOM     16  N   UNL     1       4.076  -1.663   1.094  0.00  0.00    -0.341 N 
ATOM     17  H   UNL     1       3.392  -2.333   0.938  0.00  0.00    +0.146 HD
BRANCH  16  18
ATOM     18  C   UNL     1       5.476  -2.066   1.246  0.00  0.00    +0.108 C 
BRANCH  18  19
ATOM     19  C   UNL     1       5.539  -3.507   1.755  0.00  0.00    +0.081 C 
BRANCH  19  20
ATOM     20  C   UNL     1       6.979  -3.922   1.912  0.00  0.00    +0.080 A 
ATOM     21  N   UNL     1       7.749  -3.810   2.966  0.00  0.00    -0.252 NA
ATOM     22  C   UNL     1       9.000  -4.223   2.949  0.00  0.00    +0.119 A 
ATOM     23  C   UNL     1       9.453  -4.768   1.790  0.00  0.00    +0.066 A 
ATOM     24  S   UNL     1       7.988  -4.649   0.776  0.00  0.00    -0.081 S 
ENDBRANCH  19  20
ENDBRANCH  18  19
ENDBRANCH  16  18
ENDBRANCH   8  16
TORSDOF 5
