REMARK  Name = ZINC34811720
REMARK  3 active torsions:
REMARK  status: ('A' for Active; 'I' for Inactive)
REMARK    1  A    between atoms: C_1  and  C_2
REMARK    2  A    between atoms: N_15  and  S_18
REMARK    3  A    between atoms: S_18  and  C_21
REMARK                            x       y       z     vdW  Elec       q    Type
REMARK                         _______ _______ _______ _____ _____    ______ ____
ROOT
ATOM      1  C   UNL     1      -0.018   1.503   0.010  0.00  0.00    +0.044 C 
ATOM      2  C   UNL     1       0.002  -0.004   0.002  0.00  0.00    -0.037 A 
ATOM      3  C   UNL     1      -0.098  -0.694  -1.189  0.00  0.00    +0.004 A 
ATOM      4  C   UNL     1      -0.078  -2.079  -1.203  0.00  0.00    +0.002 A 
ATOM      5  C   UNL     1       0.043  -2.793  -0.026  0.00  0.00    +0.024 A 
ATOM      6  C   UNL     1       0.145  -2.116   1.177  0.00  0.00    +0.041 A 
ATOM      7  C   UNL     1       0.128  -0.710   1.195  0.00  0.00    +0.060 A 
ATOM      8  C   UNL     1       0.235  -0.024   2.495  0.00  0.00    +0.248 C 
ATOM      9  O   UNL     1      -0.022   1.161   2.587  0.00  0.00    -0.270 OA
ATOM     10  N   UNL     1       0.620  -0.724   3.582  0.00  0.00    -0.290 N 
ATOM     11  C   UNL     1       1.012  -2.130   3.481  0.00  0.00    +0.101 C 
ATOM     12  N   UNL     1       0.272  -2.785   2.389  0.00  0.00    -0.323 N 
ATOM     13  C   UNL     1       0.688  -2.843   4.797  0.00  0.00    +0.062 C 
ATOM     14  C   UNL     1       1.427  -2.147   5.944  0.00  0.00    +0.113 C 
ATOM     15  N   UNL     1       2.860  -2.100   5.623  0.00  0.00    -0.176 NA
ATOM     16  C   UNL     1       3.278  -1.521   4.339  0.00  0.00    +0.113 C 
ATOM     17  C   UNL     1       2.516  -2.222   3.210  0.00  0.00    +0.062 C 
ATOM     18  H   UNL     1       0.636  -0.287   4.447  0.00  0.00    +0.151 HD
ATOM     19  H   UNL     1      -0.112  -3.668   2.508  0.00  0.00    +0.148 HD
ENDROOT
BRANCH  15  20
ATOM     20  S   UNL     1       3.983  -2.689   6.689  0.00  0.00    +0.061 S 
ATOM     21  O   UNL     1       5.206  -2.028   6.396  0.00  0.00    -0.153 OA
ATOM     22  O   UNL     1       3.383  -2.645   7.976  0.00  0.00    -0.153 OA
BRANCH  20  23
ATOM     23  C   UNL     1       4.225  -4.391   6.303  0.00  0.00    +0.105 A 
ATOM     24  C   UNL     1       3.439  -5.355   6.907  0.00  0.00    +0.028 A 
ATOM     25  C   UNL     1       3.629  -6.690   6.605  0.00  0.00    +0.002 A 
ATOM     26  C   UNL     1       4.604  -7.062   5.698  0.00  0.00    +0.000 A 
ATOM     27  C   UNL     1       5.389  -6.098   5.093  0.00  0.00    +0.002 A 
ATOM     28  C   UNL     1       5.196  -4.762   5.392  0.00  0.00    +0.028 A 
ENDBRANCH  20  23
ENDBRANCH  15  20
TORSDOF 2
