REMARK  Name = ZINC67266752
REMARK  4 active torsions:
REMARK  status: ('A' for Active; 'I' for Inactive)
REMARK    1  A    between atoms: C_1  and  C_2
REMARK    2  A    between atoms: C_2  and  C_4
REMARK    3  A    between atoms: C_2  and  N_10
REMARK    4  A    between atoms: C_11  and  C_13
REMARK                            x       y       z     vdW  Elec       q    Type
REMARK                         _______ _______ _______ _____ _____    ______ ____
ROOT
ATOM      1  C   UNL     1       0.712  -1.094  -3.598  0.00  0.00    +0.075 C 
ATOM      2  C   UNL     1       1.850  -0.133  -3.947  0.00  0.00    +0.015 C 
ATOM      3  C   UNL     1       2.573  -0.634  -5.200  0.00  0.00    +0.036 C 
ATOM      4  C   UNL     1       1.587  -0.723  -6.359  0.00  0.00    +0.112 C 
ATOM      5  C   UNL     1       0.433  -1.658  -6.016  0.00  0.00    +0.036 C 
ATOM      6  C   UNL     1      -0.282  -1.153  -4.761  0.00  0.00    +0.015 C 
ATOM      7  C   UNL     1       1.065   0.650  -6.715  0.00  0.00    +0.244 C 
ATOM      8  O   UNL     1       0.434   1.403  -6.004  0.00  0.00    -0.273 OA
ATOM      9  N   UNL     1       1.450   0.863  -7.990  0.00  0.00    -0.238 N 
ATOM     10  C   UNL     1       2.135  -0.179  -8.479  0.00  0.00    +0.307 C 
ATOM     11  O   UNL     1       2.586  -0.222  -9.607  0.00  0.00    -0.252 OA
ATOM     12  N   UNL     1       2.268  -1.173  -7.580  0.00  0.00    -0.285 N 
ATOM     13  H   UNL     1       1.255   1.670  -8.492  0.00  0.00    +0.159 HD
ATOM     14  H   UNL     1       2.723  -2.019  -7.713  0.00  0.00    +0.151 HD
ENDROOT
BRANCH   1  16
ATOM     15  N   UNL     1       0.688  -0.476  -1.203  0.00  0.00    -0.308 N 
ATOM     16  C   UNL     1       0.006  -0.608  -2.358  0.00  0.00    +0.217 C 
ATOM     17  O   UNL     1      -1.175  -0.336  -2.400  0.00  0.00    -0.275 OA
ATOM     18  H   UNL     1       1.632  -0.695  -1.170  0.00  0.00    +0.149 HD
BRANCH  15  20
ATOM     19  C   UNL     1      -0.019   1.526   0.010  0.00  0.00    +0.033 C 
ATOM     20  C   UNL     1       0.002  -0.004   0.002  0.00  0.00    +0.107 C 
BRANCH  20  21
ATOM     21  C   UNL     1       0.731  -0.503   1.223  0.00  0.00    +0.011 A 
ATOM     22  C   UNL     1       0.222  -0.979   2.385  0.00  0.00    +0.014 A 
ATOM     23  C   UNL     1       1.091  -1.386   3.381  0.00  0.00    +0.028 A 
ATOM     24  C   UNL     1       2.427  -1.297   3.164  0.00  0.00    +0.078 A 
ATOM     25  S   UNL     1       2.489  -0.629   1.510  0.00  0.00    -0.080 S 
ATOM     26 CL   UNL     1       3.737  -1.728   4.219  0.00  0.00    -0.076 Cl
ENDBRANCH  20  21
ENDBRANCH  15  20
ENDBRANCH   1  16
TORSDOF 3
