REMARK  Name = ZINC33908593
REMARK  14 active torsions:
REMARK  status: ('A' for Active; 'I' for Inactive)
REMARK    1  A    between atoms: C_1  and  C_2
REMARK    2  A    between atoms: C_5  and  N_9
REMARK    3  A    between atoms: C_7  and  C_8
REMARK    4  A    between atoms: N_9  and  C_10
REMARK    5  A    between atoms: N_9  and  N_22
REMARK    6  A    between atoms: C_10  and  C_11
REMARK    7  A    between atoms: C_11  and  C_13
REMARK    8  A    between atoms: C_11  and  O_21
REMARK    9  A    between atoms: C_13  and  C_15
REMARK   10  A    between atoms: C_13  and  O_20
REMARK   11  A    between atoms: C_15  and  C_17
REMARK   12  A    between atoms: C_15  and  O_19
REMARK   13  A    between atoms: C_17  and  O_18
REMARK   14  A    between atoms: N_23  and  C_24
REMARK                            x       y       z     vdW  Elec       q    Type
REMARK                         _______ _______ _______ _____ _____    ______ ____
ROOT
ATOM      1  N   UNL     1       0.058  -4.168  -0.021  0.00  0.00    -0.204 N 
ENDROOT
BRANCH   1   6
ATOM      2  C   UNL     1      -0.899   1.421   0.052  0.00  0.00    +0.044 C 
ATOM      3  C   UNL     1      -0.645  -0.064   0.033  0.00  0.00    -0.047 A 
ATOM      4  C   UNL     1      -1.398  -0.903   0.834  0.00  0.00    +0.005 A 
ATOM      5  C   UNL     1      -1.168  -2.265   0.818  0.00  0.00    +0.025 A 
ATOM      6  C   UNL     1      -0.178  -2.791  -0.003  0.00  0.00    +0.053 A 
ATOM      7  C   UNL     1       0.577  -1.945  -0.806  0.00  0.00    +0.028 A 
ATOM      8  C   UNL     1       0.337  -0.585  -0.790  0.00  0.00    -0.046 A 
ATOM      9  C   UNL     1       1.151   0.334  -1.665  0.00  0.00    +0.044 C 
ENDBRANCH   1   6
BRANCH   1  10
ATOM     10  N   UNL     1       0.179  -4.873   1.183  0.00  0.00    -0.074 NA
ATOM     11  N   UNL     1       0.176  -4.238   2.306  0.00  0.00    -0.134 NA
BRANCH  11  12
ATOM     12  C   UNL     1       0.295  -4.929   3.485  0.00  0.00    +0.088 A 
ATOM     13  C   UNL     1       0.424  -6.318   3.473  0.00  0.00    +0.031 A 
ATOM     14  C   UNL     1       0.543  -7.008   4.662  0.00  0.00    +0.017 A 
ATOM     15  C   UNL     1       0.534  -6.324   5.866  0.00  0.00    +0.018 A 
ATOM     16  C   UNL     1       0.406  -4.945   5.884  0.00  0.00    +0.017 A 
ATOM     17  C   UNL     1       0.292  -4.244   4.701  0.00  0.00    +0.031 A 
ATOM     18 BR   UNL     1       0.697  -7.276   7.491  0.00  0.00    -0.050 Br
ENDBRANCH  11  12
ENDBRANCH   1  10
BRANCH   1  19
ATOM     19  C   UNL     1       0.179  -4.874  -1.299  0.00  0.00    +0.167 C 
BRANCH  19  20
ATOM     20  C   UNL     1      -1.214  -5.254  -1.805  0.00  0.00    +0.165 C 
BRANCH  20  21
ATOM     21  O   UNL     1      -1.955  -4.068  -2.097  0.00  0.00    -0.388 OA
ATOM     22  H   UNL     1      -1.549  -3.507  -2.773  0.00  0.00    +0.210 HD
ENDBRANCH  20  21
BRANCH  20  23
ATOM     23  C   UNL     1      -1.082  -6.099  -3.074  0.00  0.00    +0.175 C 
BRANCH  23  24
ATOM     24  O   UNL     1      -0.341  -7.285  -2.782  0.00  0.00    -0.387 OA
ATOM     25  H   UNL     1      -0.746  -7.846  -2.107  0.00  0.00    +0.210 HD
ENDBRANCH  23  24
BRANCH  23  26
ATOM     26  C   UNL     1      -2.474  -6.479  -3.580  0.00  0.00    +0.171 C 
BRANCH  26  27
ATOM     27  O   UNL     1      -3.200  -7.130  -2.535  0.00  0.00    -0.387 OA
ATOM     28  H   UNL     1      -2.782  -7.941  -2.213  0.00  0.00    +0.210 HD
ENDBRANCH  26  27
BRANCH  26  29
ATOM     29  C   UNL     1      -2.342  -7.426  -4.776  0.00  0.00    +0.189 C 
BRANCH  29  30
ATOM     30  O   UNL     1      -3.636  -7.689  -5.321  0.00  0.00    -0.392 OA
ATOM     31  H   UNL     1      -3.628  -8.283  -6.083  0.00  0.00    +0.210 HD
ENDBRANCH  29  30
ENDBRANCH  26  29
ENDBRANCH  23  26
ENDBRANCH  20  23
ENDBRANCH  19  20
ENDBRANCH   1  19
TORSDOF 12
