REMARK  Name = ZINC01434170
REMARK  7 active torsions:
REMARK  status: ('A' for Active; 'I' for Inactive)
REMARK    1  A    between atoms: C_5  and  C_7
REMARK    2  A    between atoms: N_9  and  C_10
REMARK    3  A    between atoms: C_14  and  C_16
REMARK    4  A    between atoms: N_18  and  N_19
REMARK    5  A    between atoms: C_20  and  C_21
REMARK    6  A    between atoms: C_24  and  O_28
REMARK    7  A    between atoms: C_26  and  O_27
REMARK                            x       y       z     vdW  Elec       q    Type
REMARK                         _______ _______ _______ _____ _____    ______ ____
ROOT
ATOM      1  C   UNL     1      -4.908   1.281   0.124  0.00  0.00    +0.034 A 
ATOM      2  C   UNL     1      -4.942  -0.105   0.216  0.00  0.00    +0.023 A 
ATOM      3  C   UNL     1      -6.152  -0.767   0.309  0.00  0.00    +0.003 A 
ATOM      4  C   UNL     1      -7.335  -0.055   0.311  0.00  0.00    +0.013 A 
ATOM      5  C   UNL     1      -7.311   1.337   0.220  0.00  0.00    +0.040 A 
ATOM      6  C   UNL     1      -6.090   2.006   0.131  0.00  0.00    +0.036 A 
ENDROOT
BRANCH   1   9
ATOM      7  C   UNL     1      -3.583   3.081  -0.691  0.00  0.00    +0.251 C 
ATOM      8  O   UNL     1      -4.534   3.475  -1.337  0.00  0.00    -0.270 OA
ATOM      9  N   UNL     1      -3.681   1.946   0.029  0.00  0.00    -0.281 N 
ATOM     10  H   UNL     1      -2.900   1.590   0.482  0.00  0.00    +0.155 HD
BRANCH   7  15
ATOM     11  C   UNL     1      -0.048   4.115   0.037  0.00  0.00    +0.001 A 
ATOM     12  C   UNL     1       0.050   5.283  -0.700  0.00  0.00    +0.003 A 
ATOM     13  C   UNL     1      -1.028   5.736  -1.436  0.00  0.00    +0.039 A 
ATOM     14  C   UNL     1      -2.213   5.023  -1.442  0.00  0.00    +0.135 A 
ATOM     15  C   UNL     1      -2.319   3.845  -0.696  0.00  0.00    +0.072 A 
ATOM     16  C   UNL     1      -1.222   3.393   0.041  0.00  0.00    +0.016 A 
ATOM     17  F   UNL     1      -3.267   5.466  -2.162  0.00  0.00    -0.205 F 
ENDBRANCH   7  15
ENDBRANCH   1   9
BRANCH   5  18
ATOM     18  C   UNL     1      -8.576   2.102   0.223  0.00  0.00    +0.263 C 
ATOM     19  O   UNL     1      -8.553   3.315   0.142  0.00  0.00    -0.268 OA
ATOM     20  N   UNL     1      -9.755   1.455   0.314  0.00  0.00    -0.203 N 
ATOM     21  H   UNL     1      -9.773   0.487   0.378  0.00  0.00    +0.178 HD
BRANCH  20  22
ATOM     22  N   UNL     1     -10.954   2.180   0.317  0.00  0.00    -0.187 NA
ATOM     23  C   UNL     1     -12.089   1.556   0.405  0.00  0.00    +0.142 C 
BRANCH  23  24
ATOM     24  C   UNL     1     -13.350   2.318   0.408  0.00  0.00    +0.036 A 
ATOM     25  C   UNL     1     -14.573   1.649   0.503  0.00  0.00    +0.016 A 
ATOM     26  C   UNL     1     -15.750   2.366   0.506  0.00  0.00    +0.046 A 
ATOM     27  C   UNL     1     -15.725   3.753   0.415  0.00  0.00    +0.120 A 
ATOM     28  C   UNL     1     -14.515   4.426   0.321  0.00  0.00    +0.091 A 
ATOM     29  C   UNL     1     -13.326   3.717   0.322  0.00  0.00    +0.129 A 
BRANCH  29  30
ATOM     30  O   UNL     1     -12.142   4.375   0.234  0.00  0.00    -0.506 OA
ATOM     31  H   UNL     1     -11.833   4.512  -0.672  0.00  0.00    +0.292 HD
ENDBRANCH  29  30
BRANCH  27  32
ATOM     32  O   UNL     1     -16.889   4.452   0.419  0.00  0.00    -0.507 OA
ATOM     33  H   UNL     1     -17.189   4.711   1.301  0.00  0.00    +0.292 HD
ENDBRANCH  27  32
ENDBRANCH  23  24
ENDBRANCH  20  22
ENDBRANCH   5  18
TORSDOF 7
