REMARK  Name = ZINC41262059
REMARK  4 active torsions:
REMARK  status: ('A' for Active; 'I' for Inactive)
REMARK    1  A    between atoms: C_5  and  C_7
REMARK    2  A    between atoms: C_7  and  S_8
REMARK    3  A    between atoms: S_8  and  N_11
REMARK    4  A    between atoms: N_11  and  C_12
REMARK                            x       y       z     vdW  Elec       q    Type
REMARK                         _______ _______ _______ _____ _____    ______ ____
ROOT
ATOM      1  N   UNL     1       1.275  -4.450   1.543  0.00  0.00    -0.217 N 
ATOM      2  H   UNL     1       0.526  -4.972   1.870  0.00  0.00    +0.173 HD
ENDROOT
BRANCH   1   3
ATOM      3  C   UNL     1       2.326  -5.081   0.869  0.00  0.00    +0.092 A 
ATOM      4  C   UNL     1       3.627  -4.628   1.031  0.00  0.00    +0.028 A 
ATOM      5  C   UNL     1       4.669  -5.250   0.366  0.00  0.00    +0.004 A 
ATOM      6  C   UNL     1       4.420  -6.326  -0.465  0.00  0.00    +0.029 A 
ATOM      7  C   UNL     1       3.122  -6.786  -0.633  0.00  0.00    +0.089 A 
ATOM      8  C   UNL     1       2.070  -6.168   0.039  0.00  0.00    +0.179 A 
ATOM      9  O   UNL     1       0.932  -6.823  -0.304  0.00  0.00    -0.406 OA
ATOM     10  C   UNL     1       1.236  -7.819  -1.151  0.00  0.00    +0.419 A 
ATOM     11  O   UNL     1       0.435  -8.591  -1.642  0.00  0.00    -0.223 OA
ATOM     12  N   UNL     1       2.564  -7.822  -1.382  0.00  0.00    -0.288 N 
ATOM     13  H   UNL     1       3.045  -8.438  -1.956  0.00  0.00    +0.172 HD
ENDBRANCH   1   3
BRANCH   1  14
ATOM     14  S   UNL     1       1.310  -2.812   1.783  0.00  0.00    +0.047 S 
ATOM     15  O   UNL     1       2.535  -2.570   2.459  0.00  0.00    -0.155 OA
ATOM     16  O   UNL     1       0.068  -2.510   2.403  0.00  0.00    -0.155 OA
BRANCH  14  17
ATOM     17  C   UNL     1       1.365  -2.098   0.116  0.00  0.00    +0.225 C 
BRANCH  17  22
ATOM     18  C   UNL     1       0.251   1.503   0.321  0.00  0.00    +0.000 A 
ATOM     19  C   UNL     1       1.464   2.164   0.393  0.00  0.00    +0.001 A 
ATOM     20  C   UNL     1       2.644   1.446   0.376  0.00  0.00    +0.020 A 
ATOM     21  C   UNL     1       2.613   0.066   0.286  0.00  0.00    +0.046 A 
ATOM     22  C   UNL     1       1.400  -0.595   0.214  0.00  0.00    -0.006 A 
ATOM     23  C   UNL     1       0.220   0.124   0.231  0.00  0.00    +0.007 A 
ATOM     24 CL   UNL     1       4.096  -0.836   0.264  0.00  0.00    -0.083 Cl
ENDBRANCH  17  22
ENDBRANCH  14  17
ENDBRANCH   1  14
TORSDOF 4
