REMARK  Name = ZINC19927166
REMARK  5 active torsions:
REMARK  status: ('A' for Active; 'I' for Inactive)
REMARK    1  A    between atoms: C_3  and  C_8
REMARK    2  A    between atoms: N_9  and  N_10
REMARK    3  A    between atoms: C_11  and  C_13
REMARK    4  A    between atoms: C_14  and  C_24
REMARK    5  A    between atoms: C_24  and  N_25
REMARK                            x       y       z     vdW  Elec       q    Type
REMARK                         _______ _______ _______ _____ _____    ______ ____
ROOT
ATOM      1  C   UNL     1       4.888   7.963   0.016  0.00  0.00    +0.154 A 
ATOM      2  C   UNL     1       5.139   9.309   0.071  0.00  0.00    +0.079 A 
ATOM      3  N   UNL     1       6.465   9.446   0.039  0.00  0.00    -0.135 NA
ATOM      4  N   UNL     1       7.014   8.286  -0.032  0.00  0.00    -0.058 NA
ATOM      5  N   UNL     1       6.120   7.360  -0.043  0.00  0.00    -0.183 N 
ATOM      6  C   UNL     1       6.362   5.984  -0.106  0.00  0.00    +0.241 A 
ATOM      7  C   UNL     1       7.678   5.340  -0.056  0.00  0.00    +0.206 A 
ATOM      8  N   UNL     1       7.507   4.050  -0.141  0.00  0.00    -0.032 NA
ATOM      9  O   UNL     1       6.116   3.803  -0.248  0.00  0.00    -0.239 OA
ATOM     10  N   UNL     1       5.454   5.055  -0.214  0.00  0.00    -0.027 NA
ATOM     11  N   UNL     1       8.899   5.994   0.062  0.00  0.00    -0.337 N 
ATOM     12  H   UNL     1       9.833   5.413   0.091  0.00  0.00    +0.144 HD
ATOM     13  H   UNL     1       8.932   7.091   0.127  0.00  0.00    +0.144 HD
ENDROOT
BRANCH   1  15
ATOM     14  N   UNL     1       3.015   6.899  -1.135  0.00  0.00    -0.202 N 
ATOM     15  C   UNL     1       3.574   7.302   0.023  0.00  0.00    +0.284 C 
ATOM     16  O   UNL     1       2.991   7.118   1.076  0.00  0.00    -0.267 OA
ATOM     17  H   UNL     1       3.500   7.140  -2.093  0.00  0.00    +0.178 HD
BRANCH  14  19
ATOM     18  C   UNL     1       1.278   5.787  -2.236  0.00  0.00    +0.138 C 
ATOM     19  N   UNL     1       1.816   6.174  -1.120  0.00  0.00    -0.187 NA
BRANCH  18  22
ATOM     20  C   UNL     1      -1.746   3.892  -3.397  0.00  0.00    +0.002 A 
ATOM     21  C   UNL     1      -0.566   4.605  -3.419  0.00  0.00    +0.009 A 
ATOM     22  C   UNL     1       0.016   5.024  -2.220  0.00  0.00    -0.004 A 
ATOM     23  C   UNL     1      -0.603   4.716  -1.006  0.00  0.00    +0.024 A 
ATOM     24  C   UNL     1      -1.784   4.002  -0.999  0.00  0.00    +0.018 A 
ATOM     25  C   UNL     1      -2.357   3.595  -2.192  0.00  0.00    +0.015 A 
ATOM     26 BR   UNL     1      -2.624   3.585   0.643  0.00  0.00    -0.050 Br
ENDBRANCH  18  22
ENDBRANCH  14  19
ENDBRANCH   1  15
BRANCH   2  27
ATOM     27  C   UNL     1       4.119  10.415   0.154  0.00  0.00    -0.018 C 
BRANCH  27  28
ATOM     28  N   UNL     1       3.829  10.710   1.563  0.00  0.00    +0.383 N 
ATOM     29  C   UNL     1       5.080  10.967   2.322  0.00  0.00    -0.078 C 
ATOM     30  C   UNL     1       4.587  11.747   3.566  0.00  0.00    -0.020 C 
ATOM     31  C   UNL     1       3.462  12.639   2.991  0.00  0.00    -0.020 C 
ATOM     32  C   UNL     1       3.019  11.941   1.692  0.00  0.00    -0.078 C 
ATOM     33  H   UNL     1       3.291   9.831   1.948  0.00  0.00    -0.081 HD
ENDBRANCH  27  28
ENDBRANCH   2  27
TORSDOF 5
