REMARK  Name = ZINC00401829
REMARK  4 active torsions:
REMARK  status: ('A' for Active; 'I' for Inactive)
REMARK    1  A    between atoms: C_15  and  C_23
REMARK    2  A    between atoms: C_17  and  C_19
REMARK    3  A    between atoms: N_21  and  N_22
REMARK    4  A    between atoms: N_25  and  N_26
REMARK                            x       y       z     vdW  Elec       q    Type
REMARK                         _______ _______ _______ _____ _____    ______ ____
ROOT
ATOM      1  C   UNL     1      -0.538  -2.178   0.779  0.00  0.00    +0.000 A 
ATOM      2  C   UNL     1       0.206  -2.733  -0.245  0.00  0.00    +0.000 A 
ATOM      3  C   UNL     1       0.860  -1.919  -1.161  0.00  0.00    +0.004 A 
ATOM      4  C   UNL     1       0.753  -0.563  -1.030  0.00  0.00    -0.035 A 
ATOM      5  C   UNL     1       0.002  -0.004   0.002  0.00  0.00    -0.035 A 
ATOM      6  C   UNL     1      -0.643  -0.799   0.906  0.00  0.00    +0.004 A 
ATOM      7  C   UNL     1      -0.018   1.516   0.010  0.00  0.00    +0.062 C 
ATOM      8  C   UNL     1       1.442   1.937  -0.001  0.00  0.00    -0.035 A 
ATOM      9  C   UNL     1       2.018   2.786   0.900  0.00  0.00    +0.004 A 
ATOM     10  C   UNL     1       3.368   3.085   0.771  0.00  0.00    +0.000 A 
ATOM     11  C   UNL     1       4.113   2.529  -0.253  0.00  0.00    +0.000 A 
ATOM     12  C   UNL     1       3.522   1.666  -1.166  0.00  0.00    +0.004 A 
ATOM     13  C   UNL     1       2.194   1.377  -1.033  0.00  0.00    -0.035 A 
ATOM     14  C   UNL     1       1.409   0.453  -1.951  0.00  0.00    +0.062 C 
ATOM     15  C   UNL     1       0.250   1.312  -2.503  0.00  0.00    +0.101 C 
ATOM     16  C   UNL     1      -0.574   1.925  -1.373  0.00  0.00    +0.101 C 
ENDROOT
BRANCH  16  17
ATOM     17  C   UNL     1      -2.001   1.455  -1.490  0.00  0.00    +0.231 C 
ATOM     18  O   UNL     1      -2.520   0.858  -0.571  0.00  0.00    -0.274 OA
ATOM     19  N   UNL     1      -2.699   1.698  -2.617  0.00  0.00    -0.253 N 
ATOM     20  H   UNL     1      -2.284   2.175  -3.352  0.00  0.00    +0.169 HD
BRANCH  19  21
ATOM     21  N   UNL     1      -3.993   1.272  -2.723  0.00  0.00    -0.254 NA
ATOM     22  H   UNL     1      -4.384   1.524  -3.618  0.00  0.00    +0.140 HD
ATOM     23  H   UNL     1      -4.060   0.277  -2.567  0.00  0.00    +0.140 HD
ENDBRANCH  19  21
ENDBRANCH  16  17
BRANCH  15  24
ATOM     24  C   UNL     1       0.817   2.418  -3.356  0.00  0.00    +0.231 C 
ATOM     25  O   UNL     1       2.017   2.512  -3.507  0.00  0.00    -0.274 OA
ATOM     26  N   UNL     1      -0.009   3.302  -3.950  0.00  0.00    -0.253 N 
ATOM     27  H   UNL     1      -0.968   3.227  -3.828  0.00  0.00    +0.169 HD
BRANCH  26  28
ATOM     28  N   UNL     1       0.506   4.305  -4.722  0.00  0.00    -0.254 NA
ATOM     29  H   UNL     1      -0.229   4.885  -5.098  0.00  0.00    +0.140 HD
ATOM     30  H   UNL     1       1.171   4.856  -4.203  0.00  0.00    +0.140 HD
ENDBRANCH  26  28
ENDBRANCH  15  24
TORSDOF 4
