REMARK  Name = ZINC59311725
REMARK  9 active torsions:
REMARK  status: ('A' for Active; 'I' for Inactive)
REMARK    1  A    between atoms: C_1  and  C_2
REMARK    2  A    between atoms: C_2  and  C_3
REMARK    3  A    between atoms: C_3  and  C_4
REMARK    4  A    between atoms: N_5  and  N_6
REMARK    5  A    between atoms: C_9  and  S_12
REMARK    6  A    between atoms: S_12  and  C_13
REMARK    7  A    between atoms: C_13  and  C_14
REMARK    8  A    between atoms: N_16  and  C_17
REMARK    9  A    between atoms: C_18  and  C_26
REMARK                            x       y       z     vdW  Elec       q    Type
REMARK                         _______ _______ _______ _____ _____    ______ ____
ROOT
ATOM      1  C   UNL     1      -2.154  -6.606  -7.481  0.00  0.00    +0.173 C 
ENDROOT
BRANCH   1   2
ATOM      2  C   UNL     1      -2.801  -6.538  -8.841  0.00  0.00    +0.228 C 
ATOM      3  O   UNL     1      -3.050  -5.461  -9.340  0.00  0.00    -0.275 OA
ATOM      4  N   UNL     1      -3.102  -7.673  -9.502  0.00  0.00    -0.278 N 
ATOM      5  H   UNL     1      -2.902  -8.535  -9.102  0.00  0.00    +0.155 HD
BRANCH   4   6
ATOM      6  C   UNL     1      -3.697  -7.610 -10.754  0.00  0.00    +0.090 A 
ATOM      7  C   UNL     1      -4.079  -8.663 -11.569  0.00  0.00    +0.084 A 
ATOM      8  C   UNL     1      -4.688  -8.329 -12.845  0.00  0.00    -0.018 A 
ATOM      9  C   UNL     1      -4.803  -7.002 -13.071  0.00  0.00    -0.004 A 
ATOM     10  S   UNL     1      -4.127  -6.240 -11.625  0.00  0.00    -0.077 S 
ATOM     11  C   UNL     1      -5.382  -6.344 -14.285  0.00  0.00    +0.043 C 
ATOM     12  C   UNL     1      -5.484  -7.394 -15.401  0.00  0.00    +0.005 C 
ATOM     13  C   UNL     1      -6.133  -8.660 -14.832  0.00  0.00    +0.005 C 
ATOM     14  C   UNL     1      -5.168  -9.350 -13.865  0.00  0.00    +0.037 C 
BRANCH   7  15
ATOM     15  C   UNL     1      -3.881 -10.024 -11.171  0.00  0.00    +0.102 C 
ATOM     16  N   UNL     1      -3.724 -11.104 -10.855  0.00  0.00    -0.191 NA
ENDBRANCH   7  15
ENDBRANCH   4   6
ENDBRANCH   1   2
BRANCH   1  17
ATOM     17  S   UNL     1      -1.877  -4.926  -6.858  0.00  0.00    -0.075 S 
BRANCH  17  21
ATOM     18  N   UNL     1       0.288  -4.046  -2.277  0.00  0.00    -0.206 N 
ATOM     19  C   UNL     1      -0.219  -4.739  -3.361  0.00  0.00    +0.232 A 
ATOM     20  N   UNL     1      -0.740  -4.205  -4.446  0.00  0.00    -0.186 NA
ATOM     21  C   UNL     1      -1.127  -5.173  -5.283  0.00  0.00    +0.211 A 
ATOM     22  N   UNL     1      -0.857  -6.337  -4.742  0.00  0.00    -0.144 NA
ATOM     23  N   UNL     1      -0.262  -6.081  -3.496  0.00  0.00    -0.245 N 
ATOM     24  H   UNL     1       0.657  -4.530  -1.521  0.00  0.00    +0.177 HD
ATOM     25  H   UNL     1       0.054  -6.739  -2.857  0.00  0.00    +0.192 HD
BRANCH  18  27
ATOM     26  C   UNL     1       0.739  -2.004  -1.265  0.00  0.00    +0.103 C 
ATOM     27  N   UNL     1       0.269  -2.645  -2.269  0.00  0.00    -0.192 NA
BRANCH  26  28
ATOM     28  C   UNL     1       0.718  -0.497  -1.257  0.00  0.00    +0.048 C 
BRANCH  28  30
ATOM     29  C   UNL     1      -0.019   1.526   0.010  0.00  0.00    +0.004 C 
ATOM     30  C   UNL     1       0.002  -0.004   0.002  0.00  0.00    +0.002 C 
ENDBRANCH  28  30
ENDBRANCH  26  28
ENDBRANCH  18  27
ENDBRANCH  17  21
ENDBRANCH   1  17
TORSDOF 8
