REMARK  Name = ZINC36491569
REMARK  18 active torsions:
REMARK  status: ('A' for Active; 'I' for Inactive)
REMARK    1  A    between atoms: C_1  and  C_2
REMARK    2  A    between atoms: C_2  and  C_3
REMARK    3  A    between atoms: C_2  and  C_4
REMARK    4  A    between atoms: C_2  and  C_5
REMARK    5  A    between atoms: C_5  and  C_6
REMARK    6  A    between atoms: C_6  and  C_7
REMARK    7  A    between atoms: C_6  and  C_8
REMARK    8  A    between atoms: C_6  and  N_9
REMARK    9  A    between atoms: C_10  and  C_12
REMARK   10  A    between atoms: C_12  and  C_14
REMARK   11  A    between atoms: C_12  and  N_23
REMARK   12  A    between atoms: C_15  and  O_22
REMARK   13  A    between atoms: C_17  and  O_21
REMARK   14  A    between atoms: C_19  and  O_20
REMARK   15  A    between atoms: N_23  and  C_24
REMARK   16  A    between atoms: C_30  and  C_32
REMARK   17  A    between atoms: C_32  and  O_33
REMARK   18  A    between atoms: O_33  and  C_34
REMARK                            x       y       z     vdW  Elec       q    Type
REMARK                         _______ _______ _______ _____ _____    ______ ____
ROOT
ATOM      1  C   UNL     1       5.743   0.078  -3.928  0.00  0.00    +0.199 C 
ENDROOT
BRANCH   1   2
ATOM      2  C   UNL     1       5.417  -1.150  -4.738  0.00  0.00    +0.065 A 
ATOM      3  C   UNL     1       6.220  -1.506  -5.811  0.00  0.00    +0.129 A 
ATOM      4  C   UNL     1       5.920  -2.636  -6.556  0.00  0.00    +0.091 A 
ATOM      5  C   UNL     1       4.818  -3.411  -6.228  0.00  0.00    +0.124 A 
ATOM      6  C   UNL     1       4.015  -3.056  -5.155  0.00  0.00    +0.091 A 
ATOM      7  C   UNL     1       4.317  -1.928  -4.407  0.00  0.00    +0.129 A 
BRANCH   7   8
ATOM      8  O   UNL     1       3.534  -1.582  -3.352  0.00  0.00    -0.506 OA
ATOM      9  H   UNL     1       2.715  -1.133  -3.601  0.00  0.00    +0.292 HD
ENDBRANCH   7   8
BRANCH   5  10
ATOM     10  O   UNL     1       4.524  -4.518  -6.959  0.00  0.00    -0.507 OA
ATOM     11  H   UNL     1       4.942  -5.327  -6.633  0.00  0.00    +0.292 HD
ENDBRANCH   5  10
BRANCH   3  12
ATOM     12  O   UNL     1       7.300  -0.747  -6.132  0.00  0.00    -0.506 OA
ATOM     13  H   UNL     1       8.098  -0.967  -5.632  0.00  0.00    +0.292 HD
ENDBRANCH   3  12
ENDBRANCH   1   2
BRANCH   1  15
ATOM     14  N   UNL     1       3.605   0.546  -2.774  0.00  0.00    -0.308 N 
ATOM     15  C   UNL     1       4.878   0.110  -2.694  0.00  0.00    +0.239 C 
ATOM     16  O   UNL     1       5.327  -0.257  -1.629  0.00  0.00    -0.273 OA
ATOM     17  H   UNL     1       3.213   0.741  -3.640  0.00  0.00    +0.149 HD
BRANCH  14  18
ATOM     18  C   UNL     1       2.814   0.726  -1.554  0.00  0.00    +0.030 C 
ATOM     19  C   UNL     1       3.622   1.535  -0.537  0.00  0.00    +0.031 C 
ATOM     20  C   UNL     1       2.473  -0.643  -0.961  0.00  0.00    +0.031 C 
BRANCH  18  21
ATOM     21  C   UNL     1       1.522   1.472  -1.890  0.00  0.00    +0.031 C 
BRANCH  21  23
ATOM     22  C   UNL     1       1.905   2.070  -4.285  0.00  0.00    +0.010 C 
ATOM     23  C   UNL     1       1.830   2.616  -2.858  0.00  0.00    -0.036 C 
ATOM     24  C   UNL     1       3.170   3.253  -2.485  0.00  0.00    +0.010 C 
ATOM     25  C   UNL     1       0.724   3.669  -2.772  0.00  0.00    +0.010 C 
ENDBRANCH  21  23
ENDBRANCH  18  21
ENDBRANCH  14  18
ENDBRANCH   1  15
BRANCH   1  26
ATOM     26  N   UNL     1       7.153   0.044  -3.535  0.00  0.00    -0.281 N 
ATOM     27  C   UNL     1       7.974   1.056  -3.881  0.00  0.00    +0.242 C 
ATOM     28  O   UNL     1       7.568   1.950  -4.593  0.00  0.00    -0.273 OA
BRANCH  26  29
ATOM     29  C   UNL     1       7.672  -1.089  -2.765  0.00  0.00    +0.077 C 
ATOM     30  C   UNL     1       6.647  -2.225  -2.776  0.00  0.00    +0.022 C 
ATOM     31  C   UNL     1       7.189  -3.409  -1.972  0.00  0.00    +0.002 C 
ATOM     32  C   UNL     1       7.449  -2.970  -0.530  0.00  0.00    +0.000 C 
ATOM     33  C   UNL     1       8.474  -1.834  -0.519  0.00  0.00    +0.002 C 
ATOM     34  C   UNL     1       7.932  -0.650  -1.323  0.00  0.00    +0.022 C 
ENDBRANCH  26  29
BRANCH  27  35
ATOM     35  C   UNL     1       9.396   1.076  -3.384  0.00  0.00    +0.255 C 
BRANCH  35  36
ATOM     36  O   UNL     1      10.113   2.129  -4.031  0.00  0.00    -0.374 OA
ATOM     37  C   UNL     1      11.480   2.236  -3.629  0.00  0.00    +0.194 C 
ENDBRANCH  35  36
ENDBRANCH  27  35
ENDBRANCH   1  26
TORSDOF 12
