REMARK  Name = ZINC13564329
REMARK  3 active torsions:
REMARK  status: ('A' for Active; 'I' for Inactive)
REMARK    1  A    between atoms: C_4  and  C_7
REMARK    2  A    between atoms: N_15  and  C_18
REMARK    3  A    between atoms: N_25  and  C_26
REMARK                            x       y       z     vdW  Elec       q    Type
REMARK                         _______ _______ _______ _____ _____    ______ ____
ROOT
ATOM      1  C   UNL     1       3.671  -0.742  -0.066  0.00  0.00    +0.157 C 
ATOM      2  C   UNL     1       4.034  -1.250   1.348  0.00  0.00    +0.145 C 
ATOM      3  C   UNL     1       3.567  -2.731   1.332  0.00  0.00    +0.249 C 
ATOM      4  C   UNL     1       2.466  -2.759   2.369  0.00  0.00    +0.259 C 
ATOM      5  O   UNL     1       1.837  -3.743   2.696  0.00  0.00    -0.272 OA
ATOM      6  N   UNL     1       2.295  -1.530   2.870  0.00  0.00    -0.208 N 
ATOM      7  C   UNL     1       3.130  -0.590   2.364  0.00  0.00    +0.235 C 
ATOM      8  O   UNL     1       3.153   0.584   2.665  0.00  0.00    -0.274 OA
ATOM      9  O   UNL     1       3.002  -2.944   0.025  0.00  0.00    -0.257 OA
ATOM     10  N   UNL     1       3.598  -1.994  -0.858  0.00  0.00    -0.244 N 
ENDROOT
BRANCH   1  14
ATOM     11  C   UNL     1      -0.104   1.256  -0.040  0.00  0.00    +0.000 A 
ATOM     12  C   UNL     1       1.066   1.990  -0.072  0.00  0.00    +0.000 A 
ATOM     13  C   UNL     1       2.288   1.344  -0.081  0.00  0.00    +0.006 A 
ATOM     14  C   UNL     1       2.339  -0.037  -0.056  0.00  0.00    -0.022 A 
ATOM     15  C   UNL     1       1.169  -0.772  -0.022  0.00  0.00    +0.006 A 
ATOM     16  C   UNL     1      -0.053  -0.126  -0.016  0.00  0.00    +0.000 A 
ENDBRANCH   1  14
BRANCH   6  17
ATOM     17  C   UNL     1       1.334  -1.237   3.847  0.00  0.00    +0.044 A 
ATOM     18  C   UNL     1       1.731  -0.855   5.121  0.00  0.00    +0.024 A 
ATOM     19  C   UNL     1       0.781  -0.567   6.082  0.00  0.00    +0.002 A 
ATOM     20  C   UNL     1      -0.564  -0.657   5.775  0.00  0.00    +0.000 A 
ATOM     21  C   UNL     1      -0.963  -1.037   4.506  0.00  0.00    +0.002 A 
ATOM     22  C   UNL     1      -0.018  -1.321   3.540  0.00  0.00    +0.024 A 
ENDBRANCH   6  17
BRANCH  10  23
ATOM     23  C   UNL     1       4.028  -2.202  -2.171  0.00  0.00    +0.065 A 
ATOM     24  C   UNL     1       4.610  -1.162  -2.885  0.00  0.00    +0.028 A 
ATOM     25  C   UNL     1       5.034  -1.371  -4.183  0.00  0.00    +0.002 A 
ATOM     26  C   UNL     1       4.881  -2.613  -4.771  0.00  0.00    +0.000 A 
ATOM     27  C   UNL     1       4.303  -3.650  -4.062  0.00  0.00    +0.002 A 
ATOM     28  C   UNL     1       3.881  -3.450  -2.762  0.00  0.00    +0.028 A 
ENDBRANCH  10  23
TORSDOF 3
