REMARK  Name = ZINC38706771
REMARK  5 active torsions:
REMARK  status: ('A' for Active; 'I' for Inactive)
REMARK    1  A    between atoms: C_1  and  C_2
REMARK    2  A    between atoms: C_4  and  C_24
REMARK    3  A    between atoms: C_6  and  N_8
REMARK    4  A    between atoms: N_11  and  C_12
REMARK    5  A    between atoms: N_22  and  C_23
REMARK                            x       y       z     vdW  Elec       q    Type
REMARK                         _______ _______ _______ _____ _____    ______ ____
ROOT
ATOM      1  N   UNL     1       0.213  -2.780   2.384  0.00  0.00    -0.269 N 
ATOM      2  C   UNL     1       0.315  -2.130   3.560  0.00  0.00    +0.308 C 
ATOM      3  O   UNL     1       0.453  -0.922   3.578  0.00  0.00    -0.252 OA
ATOM      4  N   UNL     1       0.264  -2.819   4.717  0.00  0.00    -0.269 N 
ATOM      5  H   UNL     1       0.028  -3.732   2.370  0.00  0.00    +0.156 HD
ATOM      6  H   UNL     1       0.230  -3.788   4.703  0.00  0.00    +0.156 HD
ENDROOT
BRANCH   4   7
ATOM      7  C   UNL     1       0.261  -2.136   5.940  0.00  0.00    +0.035 A 
ATOM      8  C   UNL     1       0.880  -2.696   7.051  0.00  0.00    +0.025 A 
ATOM      9  C   UNL     1       0.877  -2.022   8.255  0.00  0.00    +0.025 A 
ATOM     10  C   UNL     1       0.255  -0.785   8.358  0.00  0.00    +0.039 A 
ATOM     11  C   UNL     1      -0.363  -0.225   7.247  0.00  0.00    -0.024 A 
ATOM     12  C   UNL     1      -0.356  -0.896   6.041  0.00  0.00    +0.028 A 
ATOM     13  C   UNL     1      -1.035   1.119   7.362  0.00  0.00    +0.046 C 
ATOM     14  C   UNL     1      -1.646   1.268   8.755  0.00  0.00    +0.101 C 
ATOM     15  C   UNL     1      -0.633   0.890   9.802  0.00  0.00    +0.220 C 
ATOM     16  O   UNL     1      -0.614   1.483  10.860  0.00  0.00    -0.275 OA
ATOM     17  N   UNL     1       0.251  -0.099   9.579  0.00  0.00    -0.274 N 
ATOM     18  C   UNL     1       1.216  -0.462  10.620  0.00  0.00    +0.138 C 
ENDBRANCH   4   7
BRANCH   1  24
ATOM     19  C   UNL     1       2.353   0.852  -0.146  0.00  0.00    +0.044 C 
ATOM     20  C   UNL     1       1.405  -0.316  -0.072  0.00  0.00    -0.048 A 
ATOM     21  C   UNL     1       0.691  -0.698  -1.194  0.00  0.00    +0.006 A 
ATOM     22  C   UNL     1      -0.181  -1.770  -1.130  0.00  0.00    -0.048 A 
ATOM     23  C   UNL     1      -0.342  -2.462   0.055  0.00  0.00    +0.026 A 
ATOM     24  C   UNL     1       0.374  -2.081   1.182  0.00  0.00    +0.035 A 
ATOM     25  C   UNL     1       1.253  -1.008   1.113  0.00  0.00    +0.026 A 
ATOM     26  C   UNL     1      -0.957  -2.183  -2.354  0.00  0.00    +0.044 C 
ENDBRANCH   1  24
TORSDOF 2
