REMARK  Name = ZINC49060467
REMARK  8 active torsions:
REMARK  status: ('A' for Active; 'I' for Inactive)
REMARK    1  A    between atoms: C_1  and  C_2
REMARK    2  A    between atoms: C_5  and  N_8
REMARK    3  A    between atoms: C_10  and  C_15
REMARK    4  A    between atoms: C_17  and  C_20
REMARK    5  A    between atoms: C_23  and  C_26
REMARK    6  A    between atoms: C_26  and  C_27
REMARK    7  A    between atoms: C_26  and  C_28
REMARK    8  A    between atoms: C_26  and  C_29
REMARK                            x       y       z     vdW  Elec       q    Type
REMARK                         _______ _______ _______ _____ _____    ______ ____
ROOT
ATOM      1  C   UNL     1       0.533  -7.479   1.442  0.00  0.00    +0.177 A 
ATOM      2  N   UNL     1       0.045  -8.428   2.242  0.00  0.00    -0.191 NA
ATOM      3  C   UNL     1       1.021  -9.193   2.679  0.00  0.00    +0.258 A 
ATOM      4  O   UNL     1       2.172  -8.737   2.156  0.00  0.00    -0.333 OA
ATOM      5  N   UNL     1       1.825  -7.621   1.349  0.00  0.00    -0.061 NA
ENDROOT
BRANCH   1   8
ATOM      6  N   UNL     1       0.059  -4.170  -0.021  0.00  0.00    -0.271 N 
ATOM      7  C   UNL     1       0.176  -5.003   1.182  0.00  0.00    +0.125 C 
ATOM      8  C   UNL     1      -0.280  -6.415   0.751  0.00  0.00    +0.087 C 
ATOM      9  C   UNL     1       0.013  -6.391  -0.767  0.00  0.00    +0.109 C 
ATOM     10  C   UNL     1      -0.034  -4.923  -1.130  0.00  0.00    +0.221 C 
ATOM     11  O   UNL     1      -0.139  -4.490  -2.258  0.00  0.00    -0.275 OA
BRANCH   6  16
ATOM     12  C   UNL     1      -0.018   1.503   0.010  0.00  0.00    +0.044 C 
ATOM     13  C   UNL     1       0.002  -0.004   0.002  0.00  0.00    -0.050 A 
ATOM     14  C   UNL     1       0.020  -0.687  -1.200  0.00  0.00    +0.005 A 
ATOM     15  C   UNL     1       0.039  -2.068  -1.211  0.00  0.00    +0.024 A 
ATOM     16  C   UNL     1       0.040  -2.771  -0.013  0.00  0.00    +0.036 A 
ATOM     17  C   UNL     1       0.022  -2.082   1.192  0.00  0.00    +0.024 A 
ATOM     18  C   UNL     1       0.009  -0.701   1.197  0.00  0.00    +0.005 A 
ENDBRANCH   6  16
ENDBRANCH   1   8
BRANCH   3  19
ATOM     19  C   UNL     1       0.878 -10.350   3.587  0.00  0.00    +0.039 A 
ATOM     20  C   UNL     1      -0.384 -10.722   4.056  0.00  0.00    +0.013 A 
ATOM     21  C   UNL     1      -0.510 -11.804   4.902  0.00  0.00    +0.005 A 
ATOM     22  C   UNL     1       0.609 -12.519   5.288  0.00  0.00    -0.042 A 
ATOM     23  C   UNL     1       1.862 -12.156   4.827  0.00  0.00    +0.005 A 
ATOM     24  C   UNL     1       2.002 -11.080   3.975  0.00  0.00    +0.013 A 
BRANCH  22  25
ATOM     25  C   UNL     1       0.463 -13.700   6.213  0.00  0.00    -0.013 C 
ATOM     26  C   UNL     1      -0.443 -14.748   5.564  0.00  0.00    +0.015 C 
ATOM     27  C   UNL     1       1.840 -14.311   6.481  0.00  0.00    +0.015 C 
ATOM     28  C   UNL     1      -0.156 -13.238   7.534  0.00  0.00    +0.015 C 
ENDBRANCH  22  25
ENDBRANCH   3  19
TORSDOF 4
