REMARK  Name = ZINC13063718
REMARK  12 active torsions:
REMARK  status: ('A' for Active; 'I' for Inactive)
REMARK    1  A    between atoms: C_1  and  C_2
REMARK    2  A    between atoms: C_2  and  C_3
REMARK    3  A    between atoms: C_10  and  C_15
REMARK    4  A    between atoms: C_15  and  N_72
REMARK    5  A    between atoms: C_16  and  C_17
REMARK    6  A    between atoms: C_16  and  N_72
REMARK    7  A    between atoms: C_20  and  C_23
REMARK    8  A    between atoms: C_24  and  C_26
REMARK    9  A    between atoms: C_24  and  C_28
REMARK   10  A    between atoms: C_24  and  N_72
REMARK   11  A    between atoms: C_26  and  C_27
REMARK   12  A    between atoms: N_32  and  C_33
REMARK                            x       y       z     vdW  Elec       q    Type
REMARK                         _______ _______ _______ _____ _____    ______ ____
ROOT
ATOM      1  N   UNL     1       2.800  -2.030   1.407  0.00  0.00    +0.392 N 
ATOM      2  H   UNL     1       2.596  -1.792   2.385  0.00  0.00    -0.080 HD
ENDROOT
BRANCH   1   3
ATOM      3  C   UNL     1       3.542  -3.308   1.369  0.00  0.00    -0.036 C 
BRANCH   3  11
ATOM      4  C   UNL     1       6.218  -4.181   6.878  0.00  0.00    -0.047 A 
ATOM      5  C   UNL     1       7.447  -3.628   6.544  0.00  0.00    +0.005 A 
ATOM      6  C   UNL     1       7.673  -3.129   5.279  0.00  0.00    +0.026 A 
ATOM      7  C   UNL     1       6.659  -3.176   4.328  0.00  0.00    +0.049 A 
ATOM      8  C   UNL     1       5.415  -3.736   4.671  0.00  0.00    -0.001 A 
ATOM      9  C   UNL     1       5.209  -4.238   5.960  0.00  0.00    +0.013 A 
ATOM     10  C   UNL     1       4.353  -3.776   3.664  0.00  0.00    +0.017 A 
ATOM     11  C   UNL     1       4.611  -3.278   2.429  0.00  0.00    +0.001 A 
ATOM     12  C   UNL     1       5.877  -2.726   2.136  0.00  0.00    +0.251 A 
ATOM     13  O   UNL     1       6.087  -2.280   1.022  0.00  0.00    -0.268 OA
ATOM     14  N   UNL     1       6.857  -2.681   3.056  0.00  0.00    -0.322 N 
ATOM     15  H   UNL     1       7.715  -2.296   2.821  0.00  0.00    +0.169 HD
BRANCH   4  17
ATOM     16  C   UNL     1       6.386  -6.201   8.307  0.00  0.00    +0.009 C 
ATOM     17  C   UNL     1       5.996  -4.722   8.267  0.00  0.00    +0.032 C 
ENDBRANCH   4  17
ENDBRANCH   3  11
ENDBRANCH   1   3
BRANCH   1  18
ATOM     18  C   UNL     1       3.618  -0.953   0.811  0.00  0.00    -0.042 C 
BRANCH  18  19
ATOM     19  C   UNL     1       3.042   0.377   1.225  0.00  0.00    -0.064 A 
ATOM     20  C   UNL     1       2.187   1.055   0.376  0.00  0.00    +0.002 A 
ATOM     21  C   UNL     1       1.655   2.272   0.758  0.00  0.00    +0.003 A 
ATOM     22  C   UNL     1       1.986   2.817   1.985  0.00  0.00    -0.050 A 
ATOM     23  C   UNL     1       2.846   2.142   2.831  0.00  0.00    +0.003 A 
ATOM     24  C   UNL     1       3.374   0.922   2.451  0.00  0.00    +0.002 A 
ATOM     25  C   UNL     1       1.411   4.147   2.399  0.00  0.00    +0.044 C 
ENDBRANCH  18  19
ENDBRANCH   1  18
BRANCH   1  26
ATOM     26  C   UNL     1       1.525  -2.163   0.670  0.00  0.00    +0.003 C 
BRANCH  26  27
ATOM     27  C   UNL     1       1.766  -2.744  -0.700  0.00  0.00    +0.138 A 
ATOM     28  N   UNL     1       2.495  -3.795  -0.987  0.00  0.00    -0.115 NA
ATOM     29  N   UNL     1       2.452  -3.973  -2.262  0.00  0.00    -0.023 NA
ATOM     30  N   UNL     1       1.715  -3.062  -2.796  0.00  0.00    -0.044 NA
ATOM     31  N   UNL     1       1.273  -2.285  -1.865  0.00  0.00    -0.228 N 
BRANCH  31  32
ATOM     32  C   UNL     1       0.400  -1.123  -2.043  0.00  0.00    +0.111 C 
ATOM     33  C   UNL     1      -0.912  -1.548  -2.735  0.00  0.00    +0.027 C 
ATOM     34  C   UNL     1      -1.247  -0.362  -3.674  0.00  0.00    +0.002 C 
ATOM     35  C   UNL     1       0.148   0.069  -4.193  0.00  0.00    +0.002 C 
ATOM     36  C   UNL     1       1.073  -0.095  -2.970  0.00  0.00    +0.027 C 
ENDBRANCH  31  32
ENDBRANCH  26  27
BRANCH  26  37
ATOM     37  C   UNL     1       0.594  -3.085   1.459  0.00  0.00    -0.011 C 
ATOM     38  C   UNL     1       0.288  -2.457   2.821  0.00  0.00    +0.002 C 
ENDBRANCH  26  37
ENDBRANCH   1  26
TORSDOF 9
