REMARK  Name = ZINC24274981
REMARK  10 active torsions:
REMARK  status: ('A' for Active; 'I' for Inactive)
REMARK    1  A    between atoms: C_1  and  C_2
REMARK    2  A    between atoms: C_2  and  C_3
REMARK    3  A    between atoms: C_2  and  C_4
REMARK    4  A    between atoms: C_2  and  C_5
REMARK    5  A    between atoms: C_12  and  C_14
REMARK    6  A    between atoms: N_16  and  N_17
REMARK    7  A    between atoms: C_18  and  C_20
REMARK    8  A    between atoms: C_23  and  O_26
REMARK    9  A    between atoms: O_26  and  C_27
REMARK   10  A    between atoms: C_27  and  C_28
REMARK                            x       y       z     vdW  Elec       q    Type
REMARK                         _______ _______ _______ _____ _____    ______ ____
ROOT
ATOM      1  C   UNL     1      -1.123  -0.944   0.007  0.00  0.00    +0.267 C 
ATOM      2  O   UNL     1      -0.914  -2.143  -0.002  0.00  0.00    -0.268 OA
ATOM      3  N   UNL     1      -2.388  -0.480   0.021  0.00  0.00    -0.230 N 
ATOM      4  H   UNL     1      -2.577   0.603   0.029  0.00  0.00    +0.173 HD
ENDROOT
BRANCH   1  11
ATOM      5  C   UNL     1       4.399   1.939   0.434  0.00  0.00    -0.001 C 
ATOM      6  C   UNL     1       3.865   3.109  -0.395  0.00  0.00    +0.009 C 
ATOM      7  C   UNL     1       2.402   3.364  -0.004  0.00  0.00    +0.043 C 
ATOM      8  C   UNL     1       1.679   2.053  -0.003  0.00  0.00    -0.006 A 
ATOM      9  C   UNL     1       2.235   0.805  -0.014  0.00  0.00    -0.036 A 
ATOM     10  C   UNL     1       1.359  -0.268  -0.012  0.00  0.00    +0.024 A 
ATOM     11  C   UNL     1       0.002  -0.004   0.002  0.00  0.00    +0.076 A 
ATOM     12  S   UNL     1      -0.022   1.781   0.012  0.00  0.00    -0.088 S 
ATOM     13  C   UNL     1       3.752   0.633  -0.028  0.00  0.00    +0.040 C 
BRANCH   5  15
ATOM     14  C   UNL     1       6.568   3.144   0.732  0.00  0.00    +0.011 C 
ATOM     15  C   UNL     1       5.916   1.843   0.259  0.00  0.00    -0.035 C 
ATOM     16  C   UNL     1       6.453   0.674   1.088  0.00  0.00    +0.011 C 
ATOM     17  C   UNL     1       6.246   1.615  -1.217  0.00  0.00    +0.011 C 
ENDBRANCH   5  15
ENDBRANCH   1  11
BRANCH   3  18
ATOM     18  N   UNL     1      -3.463  -1.379   0.025  0.00  0.00    -0.230 N 
ATOM     19  C   UNL     1      -4.729  -0.915   0.039  0.00  0.00    +0.260 C 
ATOM     20  O   UNL     1      -4.937   0.283   0.048  0.00  0.00    -0.269 OA
ATOM     21  H   UNL     1      -3.275  -2.462   0.017  0.00  0.00    +0.173 HD
BRANCH  19  22
ATOM     22  C   UNL     1      -5.862  -1.861   0.044  0.00  0.00    +0.038 A 
ATOM     23  C   UNL     1      -5.624  -3.238   0.028  0.00  0.00    +0.016 A 
ATOM     24  C   UNL     1      -6.683  -4.118   0.038  0.00  0.00    +0.046 A 
ATOM     25  C   UNL     1      -7.988  -3.638   0.053  0.00  0.00    +0.121 A 
ATOM     26  C   UNL     1      -8.228  -2.269   0.063  0.00  0.00    +0.046 A 
ATOM     27  C   UNL     1      -7.174  -1.383   0.058  0.00  0.00    +0.016 A 
BRANCH  25  28
ATOM     28  O   UNL     1      -9.029  -4.508   0.057  0.00  0.00    -0.483 OA
BRANCH  28  29
ATOM     29  C   UNL     1      -8.711  -5.901   0.046  0.00  0.00    +0.324 C 
BRANCH  29  30
ATOM     30  C   UNL     1      -9.984  -6.707   0.053  0.00  0.00    +0.248 C 
ATOM     31  O   UNL     1     -11.058  -6.145   0.066  0.00  0.00    -0.272 OA
ATOM     32  N   UNL     1      -9.928  -8.054   0.045  0.00  0.00    -0.327 N 
ATOM     33  H   UNL     1     -10.858  -8.643   0.050  0.00  0.00    +0.145 HD
ATOM     34  H   UNL     1      -8.954  -8.565   0.034  0.00  0.00    +0.145 HD
ENDBRANCH  29  30
ENDBRANCH  28  29
ENDBRANCH  25  28
ENDBRANCH  19  22
ENDBRANCH   3  18
TORSDOF 7
