REMARK  Name = ZINC12498066
REMARK  9 active torsions:
REMARK  status: ('A' for Active; 'I' for Inactive)
REMARK    1  A    between atoms: C_3  and  O_9
REMARK    2  A    between atoms: O_9  and  C_10
REMARK    3  A    between atoms: C_10  and  C_11
REMARK    4  A    between atoms: C_11  and  C_12
REMARK    5  A    between atoms: C_12  and  C_13
REMARK    6  A    between atoms: N_15  and  C_16
REMARK    7  A    between atoms: C_16  and  N_18
REMARK    8  A    between atoms: N_18  and  C_19
REMARK    9  A    between atoms: C_20  and  C_28
REMARK                            x       y       z     vdW  Elec       q    Type
REMARK                         _______ _______ _______ _____ _____    ______ ____
ROOT
ATOM      1  C   UNL     1       6.526  -4.783  -0.089  0.00  0.00    +0.141 C 
ATOM      2  S   UNL     1       7.868  -3.720  -0.097  0.00  0.00    -0.018 S 
ENDROOT
BRANCH   1   5
ATOM      3  C   UNL     1       5.077  -2.953  -0.065  0.00  0.00    +0.219 C 
ATOM      4  O   UNL     1       6.027  -2.200  -0.070  0.00  0.00    -0.275 OA
ATOM      5  N   UNL     1       5.273  -4.286  -0.074  0.00  0.00    -0.268 N 
ATOM      6  H   UNL     1       4.513  -4.888  -0.070  0.00  0.00    +0.156 HD
BRANCH   3   7
ATOM      7  C   UNL     1       3.676  -2.397  -0.048  0.00  0.00    +0.099 C 
BRANCH   7   8
ATOM      8  C   UNL     1       3.734  -0.869  -0.040  0.00  0.00    +0.050 C 
BRANCH   8   9
ATOM      9  C   UNL     1       2.312  -0.305  -0.023  0.00  0.00    +0.229 C 
BRANCH   9  10
ATOM     10  O   UNL     1       2.366   1.123  -0.015  0.00  0.00    -0.490 OA
BRANCH  10  13
ATOM     11  C   UNL     1      -1.218   1.751   0.017  0.00  0.00    +0.023 A 
ATOM     12  C   UNL     1      -0.013   1.076   0.008  0.00  0.00    +0.048 A 
ATOM     13  C   UNL     1       1.179   1.786   0.000  0.00  0.00    +0.139 A 
ATOM     14  C   UNL     1       1.157   3.174   0.008  0.00  0.00    +0.084 A 
ATOM     15  C   UNL     1      -0.051   3.845   0.023  0.00  0.00    +0.043 A 
ATOM     16  C   UNL     1      -1.238   3.134   0.030  0.00  0.00    +0.043 A 
ATOM     17 CL   UNL     1      -2.755   3.979   0.048  0.00  0.00    -0.083 Cl
ATOM     18 CL   UNL     1       2.646   4.066  -0.002  0.00  0.00    -0.080 Cl
ENDBRANCH  10  13
ENDBRANCH   9  10
ENDBRANCH   8   9
ENDBRANCH   7   8
ENDBRANCH   3   7
ENDBRANCH   1   5
BRANCH   1  19
ATOM     19  N   UNL     1       6.722  -6.117  -0.099  0.00  0.00    -0.291 N 
ATOM     20  H   UNL     1       5.961  -6.719  -0.095  0.00  0.00    +0.154 HD
BRANCH  19  21
ATOM     21  C   UNL     1       8.010  -6.627  -0.115  0.00  0.00    +0.084 A 
ATOM     22  C   UNL     1       8.411  -7.956  -0.120  0.00  0.00    +0.068 A 
ATOM     23  C   UNL     1       9.838  -8.227  -0.141  0.00  0.00    -0.023 A 
ATOM     24  C   UNL     1      10.631  -7.133  -0.142  0.00  0.00    -0.004 A 
ATOM     25  S   UNL     1       9.511  -5.762  -0.124  0.00  0.00    -0.077 S 
ATOM     26  C   UNL     1      12.128  -7.103  -0.155  0.00  0.00    +0.043 C 
ATOM     27  C   UNL     1      12.644  -8.503   0.211  0.00  0.00    +0.005 C 
ATOM     28  C   UNL     1      11.888  -9.540  -0.625  0.00  0.00    +0.005 C 
ATOM     29  C   UNL     1      10.435  -9.629  -0.155  0.00  0.00    +0.037 C 
BRANCH  22  30
ATOM     30  C   UNL     1       7.431  -9.046  -0.111  0.00  0.00    +0.244 C 
ATOM     31  O   UNL     1       7.012  -9.498  -1.161  0.00  0.00    -0.270 OA
ATOM     32  N   UNL     1       6.992  -9.548   1.061  0.00  0.00    -0.325 N 
ATOM     33  H   UNL     1       7.326  -9.188   1.898  0.00  0.00    +0.145 HD
ATOM     34  H   UNL     1       6.344 -10.269   1.067  0.00  0.00    +0.145 HD
ENDBRANCH  22  30
ENDBRANCH  19  21
ENDBRANCH   1  19
TORSDOF 9
