REMARK  Name = ZINC30825128
REMARK  7 active torsions:
REMARK  status: ('A' for Active; 'I' for Inactive)
REMARK    1  A    between atoms: C_1  and  C_2
REMARK    2  A    between atoms: C_2  and  C_3
REMARK    3  A    between atoms: C_2  and  C_4
REMARK    4  A    between atoms: C_2  and  C_5
REMARK    5  A    between atoms: C_8  and  C_11
REMARK    6  A    between atoms: N_17  and  C_20
REMARK    7  A    between atoms: C_20  and  C_21
REMARK                            x       y       z     vdW  Elec       q    Type
REMARK                         _______ _______ _______ _____ _____    ______ ____
ROOT
ATOM      1  C   UNL     1       0.646  -1.780   1.711  0.00  0.00    +0.166 A 
ATOM      2  N   UNL     1       1.566  -1.831   2.650  0.00  0.00    -0.128 NA
ATOM      3  N   UNL     1       2.099  -0.669   2.810  0.00  0.00    -0.122 NA
ATOM      4  C   UNL     1       1.551   0.184   1.989  0.00  0.00    +0.194 A 
ATOM      5  N   UNL     1       0.611  -0.487   1.256  0.00  0.00    -0.288 N 
ATOM      6  C   UNL     1      -0.233   0.083   0.212  0.00  0.00    +0.214 C 
ATOM      7  N   UNL     1      -0.308   1.541   0.333  0.00  0.00    -0.271 NA
ATOM      8  C   UNL     1       1.016   2.175   0.235  0.00  0.00    +0.164 C 
ATOM      9  S   UNL     1       1.897   1.904   1.800  0.00  0.00    -0.070 S 
ENDROOT
BRANCH   1  13
ATOM     10  C   UNL     1      -1.756  -5.006   0.345  0.00  0.00    -0.042 A 
ATOM     11  C   UNL     1      -1.634  -3.864  -0.426  0.00  0.00    +0.005 A 
ATOM     12  C   UNL     1      -0.855  -2.812   0.012  0.00  0.00    +0.012 A 
ATOM     13  C   UNL     1      -0.190  -2.902   1.236  0.00  0.00    +0.019 A 
ATOM     14  C   UNL     1      -0.314  -4.059   2.006  0.00  0.00    +0.012 A 
ATOM     15  C   UNL     1      -1.099  -5.101   1.560  0.00  0.00    +0.005 A 
BRANCH  10  17
ATOM     16  C   UNL     1      -2.063  -6.661  -1.476  0.00  0.00    +0.015 C 
ATOM     17  C   UNL     1      -2.607  -6.151  -0.140  0.00  0.00    -0.013 C 
ATOM     18  C   UNL     1      -2.574  -7.282   0.890  0.00  0.00    +0.015 C 
ATOM     19  C   UNL     1      -4.048  -5.672  -0.325  0.00  0.00    +0.015 C 
ENDBRANCH  10  17
ENDBRANCH   1  13
BRANCH   7  20
ATOM     20  C   UNL     1      -1.236   2.104  -0.657  0.00  0.00    +0.122 C 
BRANCH  20  21
ATOM     21  C   UNL     1      -1.476   3.560  -0.349  0.00  0.00    -0.030 A 
ATOM     22  C   UNL     1      -2.514   3.947   0.485  0.00  0.00    +0.024 A 
ATOM     23  C   UNL     1      -2.701   5.291   0.748  0.00  0.00    +0.111 A 
ATOM     24  N   UNL     1      -1.913   6.200   0.209  0.00  0.00    -0.263 NA
ATOM     25  C   UNL     1      -0.919   5.868  -0.593  0.00  0.00    +0.111 A 
ATOM     26  C   UNL     1      -0.669   4.544  -0.898  0.00  0.00    +0.024 A 
ENDBRANCH  20  21
ENDBRANCH   7  20
TORSDOF 4
