REMARK  Name = ZINC67574308
REMARK  4 active torsions:
REMARK  status: ('A' for Active; 'I' for Inactive)
REMARK    1  A    between atoms: C_5  and  N_8
REMARK    2  A    between atoms: C_9  and  C_11
REMARK    3  A    between atoms: C_16  and  C_19
REMARK    4  A    between atoms: N_21  and  C_22
REMARK                            x       y       z     vdW  Elec       q    Type
REMARK                         _______ _______ _______ _____ _____    ______ ____
ROOT
ATOM      1  C   UNL     1      -0.142  -4.292  -0.285  0.00  0.00    +0.076 C 
ATOM      2  C   UNL     1      -0.809  -4.867   0.966  0.00  0.00    +0.013 C 
ATOM      3  C   UNL     1      -0.846  -6.394   0.869  0.00  0.00    +0.001 C 
ATOM      4  C   UNL     1       0.582  -6.932   0.759  0.00  0.00    +0.013 C 
ATOM      5  C   UNL     1       1.250  -6.357  -0.491  0.00  0.00    +0.076 C 
ATOM      6  C   UNL     1       1.286  -4.830  -0.394  0.00  0.00    +0.025 C 
ENDROOT
BRANCH   1   8
ATOM      7  N   UNL     1      -1.255  -2.092  -0.085  0.00  0.00    -0.281 N 
ATOM      8  C   UNL     1      -0.106  -2.789  -0.190  0.00  0.00    +0.220 C 
ATOM      9  O   UNL     1       0.957  -2.205  -0.207  0.00  0.00    -0.275 OA
ATOM     10  H   UNL     1      -2.100  -2.561   0.001  0.00  0.00    +0.155 HD
BRANCH   7  15
ATOM     11  C   UNL     1      -0.662   1.420  -1.176  0.00  0.00    +0.070 A 
ATOM     12  C   UNL     1      -1.188   2.066  -0.112  0.00  0.00    +0.086 A 
ATOM     13  N   UNL     1      -1.718   1.376   0.927  0.00  0.00    -0.365 N 
ATOM     14  C   UNL     1      -1.742   0.018   0.938  0.00  0.00    +0.110 A 
ATOM     15  C   UNL     1      -1.230  -0.689  -0.100  0.00  0.00    +0.097 A 
ATOM     16  C   UNL     1      -0.668   0.008  -1.201  0.00  0.00    +0.203 A 
ATOM     17  O   UNL     1      -0.203  -0.602  -2.154  0.00  0.00    -0.286 OA
ATOM     18  H   UNL     1      -2.090   1.863   1.679  0.00  0.00    +0.165 HD
ENDBRANCH   7  15
ENDBRANCH   1   8
BRANCH   5  19
ATOM     19  C   UNL     1       2.656  -6.887  -0.599  0.00  0.00    +0.220 C 
ATOM     20  O   UNL     1       3.596  -6.119  -0.598  0.00  0.00    -0.275 OA
ATOM     21  N   UNL     1       2.871  -8.214  -0.696  0.00  0.00    -0.281 N 
ATOM     22  H   UNL     1       2.119  -8.823  -0.768  0.00  0.00    +0.155 HD
BRANCH  21  23
ATOM     23  C   UNL     1       4.182  -8.715  -0.692  0.00  0.00    +0.097 A 
ATOM     24  C   UNL     1       4.576  -9.600   0.257  0.00  0.00    +0.110 A 
ATOM     25  N   UNL     1       5.844 -10.088   0.263  0.00  0.00    -0.365 N 
ATOM     26  C   UNL     1       6.751  -9.711  -0.669  0.00  0.00    +0.086 A 
ATOM     27  C   UNL     1       6.421  -8.832  -1.642  0.00  0.00    +0.070 A 
ATOM     28  C   UNL     1       5.110  -8.307  -1.685  0.00  0.00    +0.203 A 
ATOM     29  O   UNL     1       4.783  -7.514  -2.557  0.00  0.00    -0.286 OA
ATOM     30  H   UNL     1       6.105 -10.720   0.951  0.00  0.00    +0.165 HD
ENDBRANCH  21  23
ENDBRANCH   5  19
TORSDOF 4
