REMARK  Name = ZINC21977172
REMARK  8 active torsions:
REMARK  status: ('A' for Active; 'I' for Inactive)
REMARK    1  A    between atoms: C_1  and  C_2
REMARK    2  A    between atoms: N_4  and  C_5
REMARK    3  A    between atoms: C_7  and  C_15
REMARK    4  A    between atoms: C_9  and  N_11
REMARK    5  A    between atoms: C_12  and  C_14
REMARK    6  A    between atoms: C_15  and  O_17
REMARK    7  A    between atoms: O_17  and  C_18
REMARK    8  A    between atoms: C_18  and  C_19
REMARK                            x       y       z     vdW  Elec       q    Type
REMARK                         _______ _______ _______ _____ _____    ______ ____
ROOT
ATOM      1  O   UNL     1      -2.246  -0.427  -1.338  0.00  0.00    -0.453 OA
ENDROOT
BRANCH   1   2
ATOM      2  C   UNL     1      -3.463  -0.948  -1.585  0.00  0.00    +0.340 C 
ATOM      3  O   UNL     1      -4.178  -1.287  -0.663  0.00  0.00    -0.245 OA
BRANCH   2   6
ATOM      4  C   UNL     1      -5.625  -1.793  -4.545  0.00  0.00    +0.036 A 
ATOM      5  C   UNL     1      -5.191  -1.645  -3.237  0.00  0.00    +0.038 A 
ATOM      6  C   UNL     1      -3.930  -1.106  -2.978  0.00  0.00    +0.063 A 
ATOM      7  C   UNL     1      -3.112  -0.712  -4.039  0.00  0.00    +0.038 A 
ATOM      8  C   UNL     1      -3.551  -0.868  -5.345  0.00  0.00    +0.036 A 
ATOM      9  C   UNL     1      -4.806  -1.405  -5.598  0.00  0.00    +0.046 A 
BRANCH   4  13
ATOM     10  C   UNL     1      -9.242  -2.764  -4.178  0.00  0.00    +0.109 C 
ATOM     11  C   UNL     1      -7.915  -2.082  -3.969  0.00  0.00    +0.214 C 
ATOM     12  O   UNL     1      -7.770  -1.306  -3.048  0.00  0.00    -0.276 OA
ATOM     13  N   UNL     1      -6.889  -2.333  -4.806  0.00  0.00    -0.286 N 
ATOM     14  H   UNL     1      -7.045  -2.964  -5.694  0.00  0.00    +0.155 HD
ENDBRANCH   4  13
BRANCH   8  15
ATOM     15  N   UNL     1      -2.730  -0.478  -6.409  0.00  0.00    -0.286 N 
ATOM     16  C   UNL     1      -1.394  -0.634  -6.321  0.00  0.00    +0.214 C 
ATOM     17  O   UNL     1      -0.896  -1.036  -5.290  0.00  0.00    -0.276 OA
ATOM     18  C   UNL     1      -0.518  -0.308  -7.503  0.00  0.00    +0.109 C 
ATOM     19  H   UNL     1      -3.175  -0.045  -7.317  0.00  0.00    +0.155 HD
ENDBRANCH   8  15
ENDBRANCH   2   6
ENDBRANCH   1   2
BRANCH   1  20
ATOM     20  C   UNL     1      -1.854  -0.300   0.055  0.00  0.00    +0.308 C 
BRANCH  20  21
ATOM     21  C   UNL     1      -0.473   0.297   0.136  0.00  0.00    +0.170 A 
ATOM     22  N   UNL     1      -0.340   1.609   0.203  0.00  0.00    -0.214 NA
ATOM     23  C   UNL     1       0.845   2.195   0.277  0.00  0.00    +0.128 A 
ATOM     24  C   UNL     1       2.016   1.387   0.284  0.00  0.00    +0.051 A 
ATOM     25  C   UNL     1       3.418   1.812   0.361  0.00  0.00    -0.025 A 
ATOM     26  C   UNL     1       4.348   0.836   0.344  0.00  0.00    -0.004 A 
ATOM     27  S   UNL     1       3.432  -0.680   0.235  0.00  0.00    -0.073 S 
ATOM     28  C   UNL     1       1.794  -0.001   0.208  0.00  0.00    +0.114 A 
ATOM     29  N   UNL     1       0.576  -0.503   0.137  0.00  0.00    -0.221 NA
ATOM     30  C   UNL     1       5.837   0.988   0.392  0.00  0.00    +0.043 C 
ATOM     31  C   UNL     1       6.215   1.938   1.536  0.00  0.00    +0.005 C 
ATOM     32  C   UNL     1       6.238   3.362   0.988  0.00  0.00    +0.001 C 
ATOM     33  C   UNL     1       5.184   3.518  -0.106  0.00  0.00    +0.005 C 
ATOM     34  C   UNL     1       3.789   3.289   0.462  0.00  0.00    +0.037 C 
ATOM     35  N   UNL     1       0.943   3.573   0.346  0.00  0.00    -0.343 N 
ATOM     36  H   UNL     1       1.932   4.051   0.407  0.00  0.00    +0.144 HD
ATOM     37  H   UNL     1       0.033   4.190   0.341  0.00  0.00    +0.144 HD
ENDBRANCH  20  21
ENDBRANCH   1  20
TORSDOF 6
