REMARK  Name = ZINC06536825
REMARK  6 active torsions:
REMARK  status: ('A' for Active; 'I' for Inactive)
REMARK    1  A    between atoms: C_6  and  O_25
REMARK    2  A    between atoms: C_7  and  C_11
REMARK    3  A    between atoms: N_13  and  N_14
REMARK    4  A    between atoms: N_14  and  C_15
REMARK    5  A    between atoms: C_15  and  N_17
REMARK    6  A    between atoms: C_18  and  C_20
REMARK                            x       y       z     vdW  Elec       q    Type
REMARK                         _______ _______ _______ _____ _____    ______ ____
ROOT
ATOM      1  C   UNL     1      -6.188   0.641   0.039  0.00  0.00    +0.264 C 
ATOM      2  O   UNL     1      -7.142   1.395   0.048  0.00  0.00    -0.269 OA
ATOM      3  N   UNL     1      -4.936   1.140   0.035  0.00  0.00    -0.231 N 
ATOM      4  H   UNL     1      -4.175   0.538   0.028  0.00  0.00    +0.173 HD
ENDROOT
BRANCH   1  11
ATOM      5  C   UNL     1      -4.670  -5.297  -0.001  0.00  0.00    +0.001 A 
ATOM      6  C   UNL     1      -5.971  -5.798   0.004  0.00  0.00    +0.001 A 
ATOM      7  C   UNL     1      -7.044  -4.961   0.014  0.00  0.00    +0.008 A 
ATOM      8  C   UNL     1      -6.844  -3.570   0.021  0.00  0.00    -0.014 A 
ATOM      9  C   UNL     1      -7.932  -2.682   0.031  0.00  0.00    +0.054 A 
ATOM     10  C   UNL     1      -7.714  -1.336   0.037  0.00  0.00    +0.130 A 
ATOM     11  C   UNL     1      -6.401  -0.819   0.032  0.00  0.00    +0.080 A 
ATOM     12  C   UNL     1      -5.311  -1.673   0.017  0.00  0.00    +0.025 A 
ATOM     13  C   UNL     1      -5.520  -3.060   0.016  0.00  0.00    -0.017 A 
ATOM     14  C   UNL     1      -4.436  -3.957   0.005  0.00  0.00    +0.008 A 
BRANCH  10  15
ATOM     15  O   UNL     1      -8.771  -0.484   0.046  0.00  0.00    -0.506 OA
ATOM     16  H   UNL     1      -9.082  -0.234  -0.835  0.00  0.00    +0.292 HD
ENDBRANCH  10  15
ENDBRANCH   1  11
BRANCH   3  17
ATOM     17  N   UNL     1      -4.734   2.526   0.041  0.00  0.00    -0.245 N 
ATOM     18  H   UNL     1      -5.495   3.127   0.048  0.00  0.00    +0.172 HD
BRANCH  17  19
ATOM     19  C   UNL     1      -3.482   3.024   0.036  0.00  0.00    +0.153 C 
ATOM     20  S   UNL     1      -3.234   4.718   0.044  0.00  0.00    -0.017 S 
BRANCH  19  21
ATOM     21  N   UNL     1      -2.424   2.189   0.027  0.00  0.00    -0.262 N 
ATOM     22  C   UNL     1      -1.172   2.688   0.022  0.00  0.00    +0.256 C 
ATOM     23  O   UNL     1      -0.996   3.892   0.028  0.00  0.00    -0.269 OA
ATOM     24  H   UNL     1      -2.564   1.229   0.022  0.00  0.00    +0.157 HD
BRANCH  22  25
ATOM     25  C   UNL     1      -0.022   1.780   0.012  0.00  0.00    +0.074 A 
ATOM     26  C   UNL     1       1.331   2.083   0.001  0.00  0.00    +0.021 A 
ATOM     27  C   UNL     1       2.208   1.027  -0.013  0.00  0.00    +0.008 A 
ATOM     28  C   UNL     1       1.719  -0.241  -0.016  0.00  0.00    +0.046 A 
ATOM     29  S   UNL     1       0.002  -0.004   0.002  0.00  0.00    -0.092 S 
ENDBRANCH  22  25
ENDBRANCH  19  21
ENDBRANCH  17  19
ENDBRANCH   3  17
TORSDOF 6
