REMARK  Name = ZINC66740621
REMARK  1 active torsions:
REMARK  status: ('A' for Active; 'I' for Inactive)
REMARK    1  A    between atoms: C_1  and  C_2
REMARK                            x       y       z     vdW  Elec       q    Type
REMARK                         _______ _______ _______ _____ _____    ______ ____
ROOT
ATOM      1  C   UNL     1      -0.018   1.503   0.010  0.00  0.00    +0.067 C 
ATOM      2  C   UNL     1       0.002  -0.004   0.002  0.00  0.00    +0.055 A 
ATOM      3  C   UNL     1       0.008  -0.795  -1.075  0.00  0.00    +0.082 A 
ATOM      4  C   UNL     1       0.040  -2.138  -0.574  0.00  0.00    +0.168 A 
ATOM      5  N   UNL     1       0.039  -2.062   0.723  0.00  0.00    -0.167 NA
ATOM      6  N   UNL     1       0.024  -0.825   1.094  0.00  0.00    -0.279 N 
ATOM      7  H   UNL     1       0.026  -0.522   2.015  0.00  0.00    +0.189 HD
ATOM      8  C   UNL     1       0.072  -3.269  -1.522  0.00  0.00    +0.268 C 
ATOM      9  O   UNL     1       0.287  -4.407  -1.151  0.00  0.00    -0.268 OA
ATOM     10  N   UNL     1      -0.149  -2.977  -2.828  0.00  0.00    -0.278 N 
ATOM     11  C   UNL     1      -0.575  -1.659  -3.279  0.00  0.00    +0.206 C 
ATOM     12  N   UNL     1      -0.017  -0.573  -2.459  0.00  0.00    -0.309 N 
ATOM     13  C   UNL     1      -2.083  -1.567  -3.263  0.00  0.00    +0.028 A 
ATOM     14  C   UNL     1      -3.014  -1.674  -2.252  0.00  0.00    +0.059 A 
ATOM     15  C   UNL     1      -4.361  -1.538  -2.545  0.00  0.00    +0.162 A 
ATOM     16  C   UNL     1      -4.765  -1.298  -3.851  0.00  0.00    +0.164 A 
ATOM     17  C   UNL     1      -3.830  -1.192  -4.864  0.00  0.00    +0.073 A 
ATOM     18  C   UNL     1      -2.473  -1.327  -4.574  0.00  0.00    +0.045 A 
ATOM     19  N   UNL     1      -1.351  -1.264  -5.406  0.00  0.00    -0.282 N 
ATOM     20  C   UNL     1      -0.204  -1.448  -4.728  0.00  0.00    +0.264 C 
ATOM     21  O   UNL     1       0.916  -1.444  -5.192  0.00  0.00    -0.271 OA
ATOM     22  O   UNL     1      -6.096  -1.168  -4.129  0.00  0.00    -0.488 OA
ATOM     23  C   UNL     1      -6.882  -2.353  -3.988  0.00  0.00    +0.232 C 
ATOM     24  C   UNL     1      -7.319  -2.543  -2.544  0.00  0.00    +0.082 C 
ATOM     25  C   UNL     1      -6.143  -2.787  -1.611  0.00  0.00    +0.232 C 
ATOM     26  O   UNL     1      -5.295  -1.638  -1.555  0.00  0.00    -0.488 OA
ATOM     27  H   UNL     1      -0.017  -3.675  -3.489  0.00  0.00    +0.152 HD
ATOM     28  H   UNL     1       0.315   0.249  -2.854  0.00  0.00    +0.149 HD
ATOM     29  H   UNL     1      -1.395  -1.105  -6.362  0.00  0.00    +0.155 HD
ENDROOT
TORSDOF 0
