REMARK  Name = ZINC58834897
REMARK  7 active torsions:
REMARK  status: ('A' for Active; 'I' for Inactive)
REMARK    1  A    between atoms: C_9  and  S_11
REMARK    2  A    between atoms: S_11  and  C_12
REMARK    3  A    between atoms: C_12  and  C_13
REMARK    4  A    between atoms: C_16  and  C_19
REMARK    5  A    between atoms: N_17  and  N_18
REMARK    6  A    between atoms: C_19  and  S_20
REMARK    7  A    between atoms: S_20  and  C_21
REMARK                            x       y       z     vdW  Elec       q    Type
REMARK                         _______ _______ _______ _____ _____    ______ ____
ROOT
ATOM      1  C   UNL     1       6.532  -4.164  -0.082  0.00  0.00    +0.161 A 
ATOM      2  N   UNL     1       7.016  -4.781   0.962  0.00  0.00    -0.132 NA
ATOM      3  N   UNL     1       7.774  -5.747   0.581  0.00  0.00    -0.132 NA
ATOM      4  C   UNL     1       7.808  -5.791  -0.723  0.00  0.00    +0.161 A 
ATOM      5  N   UNL     1       7.017  -4.791  -1.181  0.00  0.00    -0.235 N 
ENDROOT
BRANCH   5   6
ATOM      6  N   UNL     1       6.763  -4.476  -2.486  0.00  0.00    -0.295 N 
ATOM      7  H   UNL     1       7.437  -3.811  -2.835  0.00  0.00    +0.163 HD
ATOM      8  H   UNL     1       6.741  -5.305  -3.060  0.00  0.00    +0.163 HD
ENDBRANCH   5   6
BRANCH   1   9
ATOM      9  C   UNL     1       5.602  -2.978  -0.067  0.00  0.00    +0.155 C 
BRANCH   9  10
ATOM     10  S   UNL     1       3.883  -3.559  -0.053  0.00  0.00    -0.080 S 
BRANCH  10  19
ATOM     11  C   UNL     1      -0.017   1.375   0.010  0.00  0.00    +0.002 A 
ATOM     12  C   UNL     1       1.170   2.094   0.002  0.00  0.00    +0.002 A 
ATOM     13  C   UNL     1       2.382   1.442  -0.013  0.00  0.00    +0.030 A 
ATOM     14  C   UNL     1       2.418   0.045  -0.021  0.00  0.00    +0.090 A 
ATOM     15  C   UNL     1       1.214  -0.678  -0.013  0.00  0.00    +0.067 A 
ATOM     16  C   UNL     1       0.002  -0.004   0.002  0.00  0.00    +0.028 A 
ATOM     17  N   UNL     1       1.568  -2.017  -0.023  0.00  0.00    -0.333 N 
ATOM     18  H   UNL     1       0.960  -2.773  -0.021  0.00  0.00    +0.168 HD
ATOM     19  C   UNL     1       2.933  -2.075  -0.037  0.00  0.00    +0.168 A 
ATOM     20  N   UNL     1       3.429  -0.862  -0.036  0.00  0.00    -0.222 NA
ENDBRANCH  10  19
ENDBRANCH   9  10
ENDBRANCH   1   9
BRANCH   4  21
ATOM     21  C   UNL     1       8.581  -6.775  -1.563  0.00  0.00    +0.155 C 
BRANCH  21  22
ATOM     22  S   UNL     1       7.545  -8.225  -1.902  0.00  0.00    -0.080 S 
BRANCH  22  23
ATOM     23  C   UNL     1       8.576  -9.266  -2.880  0.00  0.00    +0.168 A 
ATOM     24  N   UNL     1       8.213 -10.484  -3.381  0.00  0.00    -0.333 N 
ATOM     25  H   UNL     1       7.355 -10.922  -3.264  0.00  0.00    +0.168 HD
ATOM     26  C   UNL     1       9.297 -10.977  -4.088  0.00  0.00    +0.067 A 
ATOM     27  C   UNL     1       9.529 -12.142  -4.804  0.00  0.00    +0.028 A 
ATOM     28  C   UNL     1      10.751 -12.344  -5.412  0.00  0.00    +0.002 A 
ATOM     29  C   UNL     1      11.751 -11.388  -5.312  0.00  0.00    +0.002 A 
ATOM     30  C   UNL     1      11.539 -10.225  -4.606  0.00  0.00    +0.030 A 
ATOM     31  C   UNL     1      10.306 -10.006  -3.984  0.00  0.00    +0.090 A 
ATOM     32  N   UNL     1       9.805  -8.985  -3.241  0.00  0.00    -0.222 NA
ENDBRANCH  22  23
ENDBRANCH  21  22
ENDBRANCH   4  21
TORSDOF 7
