REMARK  Name = ZINC14558895
REMARK  9 active torsions:
REMARK  status: ('A' for Active; 'I' for Inactive)
REMARK    1  A    between atoms: C_1  and  C_2
REMARK    2  A    between atoms: C_2  and  C_3
REMARK    3  A    between atoms: C_2  and  O_4
REMARK    4  A    between atoms: O_4  and  C_5
REMARK    5  A    between atoms: C_10  and  C_11
REMARK    6  A    between atoms: N_13  and  C_14
REMARK    7  A    between atoms: C_14  and  N_16
REMARK    8  A    between atoms: N_16  and  C_17
REMARK    9  A    between atoms: C_21  and  C_23
REMARK                            x       y       z     vdW  Elec       q    Type
REMARK                         _______ _______ _______ _____ _____    ______ ____
ROOT
ATOM      1  C   UNL     1       0.154   0.595  -0.593  0.00  0.00    +0.253 C 
ATOM      2  O   UNL     1      -0.813  -0.055  -0.938  0.00  0.00    -0.270 OA
ATOM      3  N   UNL     1      -0.011   1.836  -0.094  0.00  0.00    -0.263 N 
ATOM      4  H   UNL     1       0.761   2.355   0.181  0.00  0.00    +0.157 HD
ENDROOT
BRANCH   1  10
ATOM      5  C   UNL     1       1.685  -1.264  -1.241  0.00  0.00    +0.133 A 
ATOM      6  C   UNL     1       2.963  -1.789  -1.357  0.00  0.00    +0.047 A 
ATOM      7  C   UNL     1       4.057  -1.043  -0.964  0.00  0.00    +0.019 A 
ATOM      8  C   UNL     1       3.887   0.233  -0.450  0.00  0.00    +0.019 A 
ATOM      9  C   UNL     1       2.624   0.773  -0.332  0.00  0.00    +0.032 A 
ATOM     10  C   UNL     1       1.509   0.027  -0.722  0.00  0.00    +0.080 A 
ATOM     11 BR   UNL     1       5.395   1.241   0.085  0.00  0.00    -0.050 Br
BRANCH   5  12
ATOM     12  O   UNL     1       0.610  -1.995  -1.628  0.00  0.00    -0.489 OA
BRANCH  12  14
ATOM     13  C   UNL     1      -0.377  -4.164  -2.030  0.00  0.00    +0.051 C 
ATOM     14  C   UNL     1       0.869  -3.289  -2.177  0.00  0.00    +0.167 C 
ATOM     15  C   UNL     1       1.226  -3.152  -3.658  0.00  0.00    +0.051 C 
ENDBRANCH  12  14
ENDBRANCH   5  12
ENDBRANCH   1  10
BRANCH   3  16
ATOM     16  C   UNL     1      -1.248   2.358   0.018  0.00  0.00    +0.141 C 
ATOM     17  S   UNL     1      -2.610   1.445  -0.474  0.00  0.00    -0.018 S 
BRANCH  16  18
ATOM     18  N   UNL     1      -1.414   3.599   0.518  0.00  0.00    -0.297 N 
ATOM     19  H   UNL     1      -0.639   4.138   0.744  0.00  0.00    +0.154 HD
BRANCH  18  20
ATOM     20  C   UNL     1      -2.702   4.110   0.711  0.00  0.00    +0.033 A 
ATOM     21  C   UNL     1      -3.670   3.942  -0.272  0.00  0.00    +0.023 A 
ATOM     22  C   UNL     1      -4.946   4.439  -0.084  0.00  0.00    +0.003 A 
ATOM     23  C   UNL     1      -5.263   5.116   1.076  0.00  0.00    +0.013 A 
ATOM     24  C   UNL     1      -4.297   5.295   2.066  0.00  0.00    +0.038 A 
ATOM     25  C   UNL     1      -3.011   4.788   1.879  0.00  0.00    +0.036 A 
BRANCH  24  26
ATOM     26  C   UNL     1      -4.634   6.021   3.310  0.00  0.00    +0.242 C 
ATOM     27  O   UNL     1      -3.790   6.176   4.171  0.00  0.00    -0.270 OA
ATOM     28  N   UNL     1      -5.877   6.510   3.489  0.00  0.00    -0.325 N 
ATOM     29  H   UNL     1      -6.550   6.386   2.801  0.00  0.00    +0.145 HD
ATOM     30  H   UNL     1      -6.098   6.986   4.304  0.00  0.00    +0.145 HD
ENDBRANCH  24  26
ENDBRANCH  18  20
ENDBRANCH  16  18
ENDBRANCH   3  16
TORSDOF 7
