REMARK  Name = ZINC39097314
REMARK  4 active torsions:
REMARK  status: ('A' for Active; 'I' for Inactive)
REMARK    1  A    between atoms: C_2  and  O_16
REMARK    2  A    between atoms: C_4  and  O_15
REMARK    3  A    between atoms: C_8  and  C_9
REMARK    4  A    between atoms: C_8  and  O_12
REMARK                            x       y       z     vdW  Elec       q    Type
REMARK                         _______ _______ _______ _____ _____    ______ ____
ROOT
ATOM      1  C   UNL     1      -0.019   1.526   0.010  0.00  0.00    +0.080 C 
ATOM      2  C   UNL     1       1.417   2.055  -0.000  0.00  0.00    +0.152 C 
ATOM      3  C   UNL     1       2.157   1.548   1.239  0.00  0.00    +0.212 C 
ATOM      4  C   UNL     1       2.178   0.019   1.231  0.00  0.00    +0.280 C 
ATOM      5  C   UNL     1       0.742  -0.511   1.242  0.00  0.00    +0.124 C 
ATOM      6  C   UNL     1       0.002  -0.004   0.002  0.00  0.00    +0.174 C 
ATOM      7  F   UNL     1       2.854  -0.445   2.364  0.00  0.00    -0.203 F 
ATOM      8  F   UNL     1       2.832  -0.432   0.080  0.00  0.00    -0.203 F 
ENDROOT
BRANCH   6   9
ATOM      9  C   UNL     1      -1.412  -0.526   0.013  0.00  0.00    +0.387 C 
ATOM     10  O   UNL     1      -1.810  -1.227  -0.902  0.00  0.00    -0.243 OA
ATOM     11  O   UNL     1      -2.158  -0.246   0.936  0.00  0.00    -0.243 OA
ENDBRANCH   6   9
BRANCH   6  12
ATOM     12  O   UNL     1       0.671  -0.465  -1.174  0.00  0.00    -0.377 OA
ATOM     13  H   UNL     1       0.722  -1.428  -1.246  0.00  0.00    +0.211 HD
ENDBRANCH   6  12
BRANCH   3  14
ATOM     14  O   UNL     1       3.497   2.043   1.229  0.00  0.00    -0.383 OA
ATOM     15  H   UNL     1       4.027   1.761   1.988  0.00  0.00    +0.210 HD
ENDBRANCH   3  14
BRANCH   2  16
ATOM     16  O   UNL     1       1.397   3.484   0.007  0.00  0.00    -0.389 OA
ATOM     17  H   UNL     1       2.275   3.889   0.001  0.00  0.00    +0.210 HD
ENDBRANCH   2  16
TORSDOF 4
