REMARK  Name = ZINC20553114
REMARK  5 active torsions:
REMARK  status: ('A' for Active; 'I' for Inactive)
REMARK    1  A    between atoms: C_1  and  C_2
REMARK    2  A    between atoms: N_11  and  S_12
REMARK    3  A    between atoms: S_12  and  C_15
REMARK    4  A    between atoms: C_18  and  O_22
REMARK    5  A    between atoms: C_19  and  N_21
REMARK                            x       y       z     vdW  Elec       q    Type
REMARK                         _______ _______ _______ _____ _____    ______ ____
ROOT
ATOM      1  S   UNL     1      -3.060   3.141   1.589  0.00  0.00    +0.075 S 
ATOM      2  O   UNL     1      -2.471   3.408   2.854  0.00  0.00    -0.150 OA
ATOM      3  O   UNL     1      -3.597   4.168   0.767  0.00  0.00    -0.150 OA
ENDROOT
BRANCH   1  13
ATOM      4  C   UNL     1       0.117   2.517   2.075  0.00  0.00    +0.030 C 
ATOM      5  C   UNL     1      -0.780   1.605   1.235  0.00  0.00    +0.099 C 
ATOM      6  C   UNL     1      -0.013   1.086   0.008  0.00  0.00    +0.061 C 
ATOM      7  C   UNL     1      -0.790   1.609  -1.179  0.00  0.00    -0.023 A 
ATOM      8  C   UNL     1      -0.577   1.466  -2.536  0.00  0.00    +0.005 A 
ATOM      9  C   UNL     1      -1.445   2.050  -3.441  0.00  0.00    +0.000 A 
ATOM     10  C   UNL     1      -2.527   2.779  -2.983  0.00  0.00    +0.002 A 
ATOM     11  C   UNL     1      -2.743   2.926  -1.630  0.00  0.00    +0.025 A 
ATOM     12  C   UNL     1      -1.871   2.339  -0.710  0.00  0.00    +0.055 A 
ATOM     13  N   UNL     1      -1.909   2.365   0.685  0.00  0.00    -0.200 N 
ENDBRANCH   1  13
BRANCH   1  14
ATOM     14  C   UNL     1      -4.363   1.989   1.873  0.00  0.00    +0.111 A 
ATOM     15  C   UNL     1      -5.418   1.909   0.983  0.00  0.00    +0.032 A 
ATOM     16  C   UNL     1      -6.441   1.004   1.198  0.00  0.00    +0.049 A 
ATOM     17  C   UNL     1      -6.417   0.182   2.313  0.00  0.00    +0.137 A 
ATOM     18  C   UNL     1      -5.357   0.267   3.213  0.00  0.00    +0.068 A 
ATOM     19  C   UNL     1      -4.331   1.173   2.988  0.00  0.00    +0.055 A 
BRANCH  18  20
ATOM     20  N   UNL     1      -5.327  -0.561   4.341  0.00  0.00    -0.355 N 
ATOM     21  H   UNL     1      -4.489  -0.493   5.051  0.00  0.00    +0.142 HD
ATOM     22  H   UNL     1      -6.140  -1.280   4.518  0.00  0.00    +0.142 HD
ENDBRANCH  18  20
BRANCH  17  23
ATOM     23  O   UNL     1      -7.425  -0.705   2.529  0.00  0.00    -0.505 OA
ATOM     24  H   UNL     1      -7.405  -1.356   3.414  0.00  0.00    +0.292 HD
ENDBRANCH  17  23
ENDBRANCH   1  14
TORSDOF 4
