REMARK  Name = ZINC44215546
REMARK  8 active torsions:
REMARK  status: ('A' for Active; 'I' for Inactive)
REMARK    1  A    between atoms: C_1  and  C_2
REMARK    2  A    between atoms: C_2  and  O_3
REMARK    3  A    between atoms: O_3  and  C_4
REMARK    4  A    between atoms: C_6  and  C_12
REMARK    5  A    between atoms: C_9  and  O_10
REMARK    6  A    between atoms: C_12  and  C_14
REMARK    7  A    between atoms: C_12  and  N_18
REMARK    8  A    between atoms: C_14  and  C_15
REMARK                            x       y       z     vdW  Elec       q    Type
REMARK                         _______ _______ _______ _____ _____    ______ ____
ROOT
ATOM      1  C   UNL     1       0.802  -1.825   1.306  0.00  0.00    +0.163 A 
ATOM      2  C   UNL     1       0.260  -2.673   0.352  0.00  0.00    +0.051 A 
ATOM      3  C   UNL     1       0.371  -4.043   0.502  0.00  0.00    -0.057 A 
ATOM      4  C   UNL     1       1.022  -4.571   1.602  0.00  0.00    +0.021 A 
ATOM      5  C   UNL     1       1.565  -3.730   2.557  0.00  0.00    +0.063 A 
ATOM      6  C   UNL     1       1.462  -2.356   2.409  0.00  0.00    +0.173 A 
ATOM      7 BR   UNL     1       2.453  -4.456   4.061  0.00  0.00    -0.046 Br
ENDROOT
BRANCH   6   8
ATOM      8  O   UNL     1       2.000  -1.528   3.345  0.00  0.00    -0.503 OA
ATOM      9  H   UNL     1       1.395  -1.301   4.064  0.00  0.00    +0.292 HD
ENDBRANCH   6   8
BRANCH   1  10
ATOM     10  O   UNL     1       0.693  -0.477   1.160  0.00  0.00    -0.489 OA
BRANCH  10  12
ATOM     11  C   UNL     1      -0.019   1.526   0.010  0.00  0.00    +0.048 C 
ATOM     12  C   UNL     1       0.002  -0.004   0.002  0.00  0.00    +0.226 C 
ENDBRANCH  10  12
ENDBRANCH   1  10
BRANCH   3  13
ATOM     13  C   UNL     1      -0.219  -4.963  -0.535  0.00  0.00    -0.033 C 
BRANCH  13  14
ATOM     14  N   UNL     1      -0.842  -6.115   0.130  0.00  0.00    +0.383 N 
ATOM     15  H   UNL     1      -1.237  -6.731  -0.565  0.00  0.00    -0.089 HD
ATOM     16  H   UNL     1      -0.145  -6.613   0.663  0.00  0.00    -0.089 HD
ATOM     17  H   UNL     1      -1.572  -5.792   0.747  0.00  0.00    -0.089 HD
ENDBRANCH  13  14
BRANCH  13  18
ATOM     18  C   UNL     1       0.888  -5.451  -1.472  0.00  0.00    +0.113 C 
BRANCH  18  19
ATOM     19  C   UNL     1       0.281  -6.271  -2.581  0.00  0.00    +0.355 C 
ATOM     20  O   UNL     1      -0.925  -6.449  -2.619  0.00  0.00    -0.246 OA
ATOM     21  O   UNL     1       0.996  -6.758  -3.441  0.00  0.00    -0.246 OA
ENDBRANCH  18  19
ENDBRANCH  13  18
ENDBRANCH   3  13
TORSDOF 7
