REMARK  Name = ZINC58900792
REMARK  7 active torsions:
REMARK  status: ('A' for Active; 'I' for Inactive)
REMARK    1  A    between atoms: C_1  and  C_2
REMARK    2  A    between atoms: C_5  and  C_8
REMARK    3  A    between atoms: N_10  and  C_11
REMARK    4  A    between atoms: C_14  and  C_17
REMARK    5  A    between atoms: N_19  and  N_20
REMARK    6  A    between atoms: C_21  and  C_22
REMARK    7  A    between atoms: C_27  and  O_28
REMARK                            x       y       z     vdW  Elec       q    Type
REMARK                         _______ _______ _______ _____ _____    ______ ____
ROOT
ATOM      1  C   UNL     1       0.001  -6.322   1.190  0.00  0.00    +0.034 A 
ATOM      2  C   UNL     1       0.017  -7.059   0.009  0.00  0.00    +0.024 A 
ATOM      3  C   UNL     1      -0.054  -8.433   0.052  0.00  0.00    +0.015 A 
ATOM      4  C   UNL     1      -0.141  -9.088   1.284  0.00  0.00    +0.038 A 
ATOM      5  C   UNL     1      -0.156  -8.345   2.468  0.00  0.00    +0.015 A 
ATOM      6  C   UNL     1      -0.080  -6.972   2.417  0.00  0.00    +0.024 A 
ENDROOT
BRANCH   1   9
ATOM      7  C   UNL     1      -0.527  -4.259   0.139  0.00  0.00    +0.248 C 
ATOM      8  O   UNL     1      -1.058  -4.869  -0.768  0.00  0.00    -0.270 OA
ATOM      9  N   UNL     1       0.073  -4.931   1.142  0.00  0.00    -0.282 N 
ATOM     10  H   UNL     1       0.554  -4.447   1.831  0.00  0.00    +0.155 HD
BRANCH   7  15
ATOM     11  C   UNL     1      -0.574   1.495   0.156  0.00  0.00    +0.044 C 
ATOM     12  C   UNL     1      -0.561  -0.012   0.151  0.00  0.00    -0.050 A 
ATOM     13  C   UNL     1      -1.166  -0.703  -0.884  0.00  0.00    +0.004 A 
ATOM     14  C   UNL     1      -1.158  -2.082  -0.894  0.00  0.00    +0.013 A 
ATOM     15  C   UNL     1      -0.538  -2.781   0.143  0.00  0.00    +0.037 A 
ATOM     16  C   UNL     1       0.071  -2.078   1.184  0.00  0.00    +0.013 A 
ATOM     17  C   UNL     1       0.060  -0.699   1.179  0.00  0.00    +0.004 A 
ENDBRANCH   7  15
ENDBRANCH   1   9
BRANCH   4  18
ATOM     18  C   UNL     1      -0.217 -10.561   1.334  0.00  0.00    +0.263 C 
ATOM     19  O   UNL     1      -0.205 -11.206   0.303  0.00  0.00    -0.268 OA
ATOM     20  N   UNL     1      -0.301 -11.191   2.522  0.00  0.00    -0.203 N 
ATOM     21  H   UNL     1      -0.311 -10.677   3.345  0.00  0.00    +0.178 HD
BRANCH  20  22
ATOM     22  N   UNL     1      -0.374 -12.589   2.570  0.00  0.00    -0.187 NA
ATOM     23  C   UNL     1      -0.454 -13.197   3.715  0.00  0.00    +0.142 C 
BRANCH  23  24
ATOM     24  C   UNL     1      -0.531 -14.667   3.765  0.00  0.00    +0.037 A 
ATOM     25  C   UNL     1      -0.623 -15.324   4.994  0.00  0.00    +0.028 A 
ATOM     26  C   UNL     1      -0.695 -16.702   5.034  0.00  0.00    +0.019 A 
ATOM     27  C   UNL     1      -0.675 -17.436   3.859  0.00  0.00    +0.019 A 
ATOM     28  C   UNL     1      -0.583 -16.797   2.637  0.00  0.00    +0.047 A 
ATOM     29  C   UNL     1      -0.516 -15.414   2.579  0.00  0.00    +0.126 A 
ATOM     30 BR   UNL     1      -0.821 -17.590   6.698  0.00  0.00    -0.050 Br
BRANCH  29  31
ATOM     31  O   UNL     1      -0.432 -14.786   1.378  0.00  0.00    -0.506 OA
ATOM     32  H   UNL     1       0.474 -14.648   1.069  0.00  0.00    +0.292 HD
ENDBRANCH  29  31
ENDBRANCH  23  24
ENDBRANCH  20  22
ENDBRANCH   4  18
TORSDOF 6
