REMARK  Name = ZINC49741460
REMARK  6 active torsions:
REMARK  status: ('A' for Active; 'I' for Inactive)
REMARK    1  A    between atoms: C_1  and  C_2
REMARK    2  A    between atoms: C_5  and  C_24
REMARK    3  A    between atoms: C_6  and  S_8
REMARK    4  A    between atoms: S_8  and  N_11
REMARK    5  A    between atoms: N_11  and  C_12
REMARK    6  A    between atoms: C_18  and  C_23
REMARK                            x       y       z     vdW  Elec       q    Type
REMARK                         _______ _______ _______ _____ _____    ______ ____
ROOT
ATOM      1  N   UNL     1      -1.458  -3.782   3.324  0.00  0.00    -0.216 N 
ATOM      2  H   UNL     1      -1.957  -3.451   4.087  0.00  0.00    +0.174 HD
ENDROOT
BRANCH   1   3
ATOM      3  C   UNL     1      -1.906  -4.911   2.630  0.00  0.00    +0.048 A 
ATOM      4  C   UNL     1      -1.945  -4.907   1.242  0.00  0.00    +0.026 A 
ATOM      5  C   UNL     1      -2.387  -6.019   0.555  0.00  0.00    +0.025 A 
ATOM      6  C   UNL     1      -2.798  -7.155   1.250  0.00  0.00    +0.037 A 
ATOM      7  C   UNL     1      -2.755  -7.149   2.638  0.00  0.00    -0.013 A 
ATOM      8  C   UNL     1      -2.310  -6.044   3.327  0.00  0.00    +0.030 A 
ATOM      9  C   UNL     1      -3.255  -8.504   3.085  0.00  0.00    +0.104 C 
ATOM     10  C   UNL     1      -3.567  -9.227   1.792  0.00  0.00    +0.224 C 
ATOM     11  O   UNL     1      -3.998 -10.356   1.684  0.00  0.00    -0.275 OA
ATOM     12  N   UNL     1      -3.277  -8.384   0.787  0.00  0.00    -0.285 N 
ATOM     13  C   UNL     1      -4.517  -8.355   3.937  0.00  0.00    +0.022 C 
ATOM     14  H   UNL     1      -3.388  -8.602  -0.151  0.00  0.00    +0.155 HD
ENDBRANCH   1   3
BRANCH   1  15
ATOM     15  S   UNL     1      -0.075  -3.009   2.841  0.00  0.00    +0.073 S 
ATOM     16  O   UNL     1       0.173  -1.986   3.797  0.00  0.00    -0.150 OA
ATOM     17  O   UNL     1      -0.225  -2.736   1.455  0.00  0.00    -0.150 OA
BRANCH  15  23
ATOM     18  C   UNL     1       3.691  -5.962   0.740  0.00  0.00    +0.044 C 
ATOM     19  C   UNL     1       2.956  -5.499   1.971  0.00  0.00    -0.049 A 
ATOM     20  C   UNL     1       3.318  -5.981   3.215  0.00  0.00    +0.004 A 
ATOM     21  C   UNL     1       2.644  -5.557   4.344  0.00  0.00    +0.005 A 
ATOM     22  C   UNL     1       1.608  -4.649   4.230  0.00  0.00    -0.024 A 
ATOM     23  C   UNL     1       1.246  -4.165   2.987  0.00  0.00    +0.112 A 
ATOM     24  C   UNL     1       1.923  -4.587   1.858  0.00  0.00    +0.032 A 
ATOM     25  C   UNL     1       0.872  -4.186   5.461  0.00  0.00    +0.046 C 
ENDBRANCH  15  23
ENDBRANCH   1  15
TORSDOF 3
