REMARK  Name = ZINC06263176
REMARK  9 active torsions:
REMARK  status: ('A' for Active; 'I' for Inactive)
REMARK    1  A    between atoms: C_1  and  C_2
REMARK    2  A    between atoms: C_2  and  C_3
REMARK    3  A    between atoms: C_2  and  C_4
REMARK    4  A    between atoms: C_7  and  C_10
REMARK    5  A    between atoms: C_11  and  C_12
REMARK    6  A    between atoms: N_14  and  C_15
REMARK    7  A    between atoms: C_15  and  N_17
REMARK    8  A    between atoms: N_17  and  C_18
REMARK    9  A    between atoms: C_19  and  C_26
REMARK                            x       y       z     vdW  Elec       q    Type
REMARK                         _______ _______ _______ _____ _____    ______ ____
ROOT
ATOM      1  C   UNL     1      -8.905  -4.527  -1.954  0.00  0.00    +0.141 C 
ATOM      2  S   UNL     1      -9.954  -4.130  -0.661  0.00  0.00    -0.018 S 
ENDROOT
BRANCH   1   5
ATOM      3  C   UNL     1      -7.202  -3.281  -0.956  0.00  0.00    +0.242 C 
ATOM      4  O   UNL     1      -7.948  -2.999  -0.036  0.00  0.00    -0.270 OA
ATOM      5  N   UNL     1      -7.641  -4.061  -1.964  0.00  0.00    -0.264 N 
ATOM      6  H   UNL     1      -7.046  -4.285  -2.697  0.00  0.00    +0.157 HD
BRANCH   3   8
ATOM      7  C   UNL     1      -5.391  -1.994   0.043  0.00  0.00    +0.013 C 
ATOM      8  C   UNL     1      -5.830  -2.774  -0.966  0.00  0.00    +0.068 C 
BRANCH   7  12
ATOM      9  C   UNL     1      -1.412  -0.526   0.013  0.00  0.00    -0.045 A 
ATOM     10  C   UNL     1      -2.257  -0.202   1.060  0.00  0.00    +0.004 A 
ATOM     11  C   UNL     1      -3.552  -0.675   1.077  0.00  0.00    +0.008 A 
ATOM     12  C   UNL     1      -4.011  -1.484   0.032  0.00  0.00    -0.025 A 
ATOM     13  C   UNL     1      -3.150  -1.807  -1.022  0.00  0.00    +0.008 A 
ATOM     14  C   UNL     1      -1.860  -1.322  -1.027  0.00  0.00    +0.004 A 
BRANCH   9  16
ATOM     15  C   UNL     1      -0.019   1.526   0.010  0.00  0.00    +0.012 C 
ATOM     16  C   UNL     1       0.002  -0.004   0.002  0.00  0.00    +0.013 C 
ATOM     17  C   UNL     1       0.742  -0.511   1.242  0.00  0.00    +0.012 C 
ENDBRANCH   9  16
ENDBRANCH   7  12
ENDBRANCH   3   8
ENDBRANCH   1   5
BRANCH   1  18
ATOM     18  N   UNL     1      -9.343  -5.307  -2.962  0.00  0.00    -0.291 N 
ATOM     19  H   UNL     1      -8.749  -5.532  -3.695  0.00  0.00    +0.154 HD
BRANCH  18  20
ATOM     20  C   UNL     1     -10.643  -5.787  -2.952  0.00  0.00    +0.084 A 
ATOM     21  C   UNL     1     -11.258  -6.596  -3.890  0.00  0.00    +0.068 A 
ATOM     22  C   UNL     1     -12.651  -6.966  -3.644  0.00  0.00    -0.023 A 
ATOM     23  C   UNL     1     -13.163  -6.455  -2.510  0.00  0.00    -0.004 A 
ATOM     24  S   UNL     1     -11.830  -5.526  -1.797  0.00  0.00    -0.077 S 
ATOM     25  C   UNL     1     -14.597  -6.863  -2.309  0.00  0.00    +0.043 C 
ATOM     26  C   UNL     1     -15.061  -7.358  -3.697  0.00  0.00    +0.010 C 
ATOM     27  C   UNL     1     -13.729  -7.801  -4.335  0.00  0.00    +0.037 C 
BRANCH  21  28
ATOM     28  C   UNL     1     -10.543  -7.064  -5.081  0.00  0.00    +0.244 C 
ATOM     29  O   UNL     1      -9.926  -8.112  -5.048  0.00  0.00    -0.270 OA
ATOM     30  N   UNL     1     -10.569  -6.332  -6.213  0.00  0.00    -0.325 N 
ATOM     31  H   UNL     1     -11.060  -5.496  -6.239  0.00  0.00    +0.145 HD
ATOM     32  H   UNL     1     -10.095  -6.641  -7.001  0.00  0.00    +0.145 HD
ENDBRANCH  21  28
ENDBRANCH  18  20
ENDBRANCH   1  18
TORSDOF 7
