REMARK  Name = ZINC62794551
REMARK  6 active torsions:
REMARK  status: ('A' for Active; 'I' for Inactive)
REMARK    1  A    between atoms: C_1  and  C_2
REMARK    2  A    between atoms: C_2  and  C_3
REMARK    3  A    between atoms: C_7  and  C_22
REMARK    4  A    between atoms: N_10  and  C_11
REMARK    5  A    between atoms: C_14  and  C_18
REMARK    6  A    between atoms: N_19  and  O_20
REMARK                            x       y       z     vdW  Elec       q    Type
REMARK                         _______ _______ _______ _____ _____    ______ ____
ROOT
ATOM      1  C   UNL     1      -1.462   0.526  -2.234  0.00  0.00    +0.049 A 
ATOM      2  C   UNL     1      -0.632   0.063  -3.249  0.00  0.00    +0.025 A 
ATOM      3  C   UNL     1      -0.073   0.950  -4.143  0.00  0.00    +0.013 A 
ATOM      4  C   UNL     1      -0.341   2.315  -4.030  0.00  0.00    +0.019 A 
ATOM      5  C   UNL     1      -1.174   2.779  -3.011  0.00  0.00    +0.033 A 
ATOM      6  C   UNL     1      -1.735   1.886  -2.122  0.00  0.00    +0.063 A 
ATOM      7 CL   UNL     1      -2.777   2.460  -0.858  0.00  0.00    -0.082 Cl
ENDROOT
BRANCH   1  13
ATOM      8  C   UNL     1      -1.327  -0.736  -0.087  0.00  0.00    +0.099 C 
ATOM      9  C   UNL     1      -1.292  -2.265   0.020  0.00  0.00    +0.182 C 
ATOM     10  O   UNL     1      -2.616  -2.779  -0.137  0.00  0.00    -0.373 OA
ATOM     11  C   UNL     1      -3.203  -2.506  -1.412  0.00  0.00    +0.132 C 
ATOM     12  C   UNL     1      -3.336  -0.990  -1.593  0.00  0.00    +0.136 C 
ATOM     13  N   UNL     1      -2.025  -0.374  -1.331  0.00  0.00    -0.321 N 
ATOM     14  C   UNL     1      -4.586  -3.155  -1.487  0.00  0.00    +0.039 C 
BRANCH   8  16
ATOM     15  C   UNL     1       0.780  -0.455   1.225  0.00  0.00    +0.006 C 
ATOM     16  C   UNL     1       0.102  -0.189  -0.120  0.00  0.00    +0.021 C 
ENDBRANCH   8  16
ENDBRANCH   1  13
BRANCH   4  17
ATOM     17  C   UNL     1       0.259   3.269  -4.988  0.00  0.00    +0.162 C 
ATOM     18  N   UNL     1       1.036   2.836  -5.938  0.00  0.00    -0.072 NA
ATOM     19  N   UNL     1      -0.008   4.624  -4.875  0.00  0.00    -0.340 N 
ATOM     20  H   UNL     1      -0.587   4.947  -4.167  0.00  0.00    +0.144 HD
ATOM     21  H   UNL     1       0.385   5.250  -5.503  0.00  0.00    +0.144 HD
BRANCH  18  22
ATOM     22  O   UNL     1       1.609   3.750  -6.856  0.00  0.00    -0.408 OA
ATOM     23  H   UNL     1       2.171   3.335  -7.524  0.00  0.00    +0.328 HD
ENDBRANCH  18  22
ENDBRANCH   4  17
TORSDOF 4
