REMARK  Name = ZINC20745563
REMARK  3 active torsions:
REMARK  status: ('A' for Active; 'I' for Inactive)
REMARK    1  A    between atoms: N_16  and  C_17
REMARK    2  A    between atoms: N_26  and  C_27
REMARK    3  A    between atoms: C_27  and  C_28
REMARK                            x       y       z     vdW  Elec       q    Type
REMARK                         _______ _______ _______ _____ _____    ______ ____
ROOT
ATOM      1  C   UNL     1      -0.017   1.387   0.010  0.00  0.00    +0.000 A 
ATOM      2  C   UNL     1       1.151   2.121   0.003  0.00  0.00    +0.002 A 
ATOM      3  C   UNL     1       2.398   1.516  -0.014  0.00  0.00    +0.024 A 
ATOM      4  C   UNL     1       2.431   0.121  -0.022  0.00  0.00    +0.041 A 
ATOM      5  C   UNL     1       1.238  -0.613  -0.014  0.00  0.00    -0.006 A 
ATOM      6  C   UNL     1       0.002  -0.004   0.002  0.00  0.00    +0.007 A 
ATOM      7  C   UNL     1       1.635  -2.054  -0.026  0.00  0.00    +0.112 C 
ATOM      8  C   UNL     1       1.109  -2.763  -1.272  0.00  0.00    +0.122 C 
ATOM      9  C   UNL     1      -0.336  -3.147  -1.110  0.00  0.00    +0.220 C 
ATOM     10  O   UNL     1      -1.075  -3.068  -2.069  0.00  0.00    -0.275 OA
ATOM     11  N   UNL     1      -0.836  -3.576   0.067  0.00  0.00    -0.270 N 
ATOM     12  C   UNL     1      -0.036  -3.477   1.204  0.00  0.00    +0.133 A 
ATOM     13  C   UNL     1       1.139  -2.769   1.200  0.00  0.00    +0.032 A 
ATOM     14  C   UNL     1       1.698  -2.862   2.466  0.00  0.00    +0.141 A 
ATOM     15  N   UNL     1       0.898  -3.582   3.219  0.00  0.00    -0.173 NA
ATOM     16  N   UNL     1      -0.207  -3.974   2.446  0.00  0.00    -0.218 N 
ATOM     17  C   UNL     1       3.148  -2.029  -0.041  0.00  0.00    +0.236 C 
ATOM     18  O   UNL     1       3.886  -2.992  -0.053  0.00  0.00    -0.274 OA
ATOM     19  N   UNL     1       3.521  -0.732  -0.039  0.00  0.00    -0.261 N 
ATOM     20  H   UNL     1      -1.732  -3.945   0.121  0.00  0.00    +0.156 HD
ENDROOT
BRANCH  16  21
ATOM     21  C   UNL     1      -1.293  -4.743   2.886  0.00  0.00    +0.068 A 
ATOM     22  C   UNL     1      -2.566  -4.498   2.388  0.00  0.00    +0.029 A 
ATOM     23  C   UNL     1      -3.634  -5.257   2.824  0.00  0.00    +0.022 A 
ATOM     24  C   UNL     1      -3.437  -6.261   3.756  0.00  0.00    +0.041 A 
ATOM     25  C   UNL     1      -2.170  -6.507   4.254  0.00  0.00    +0.022 A 
ATOM     26  C   UNL     1      -1.097  -5.755   3.817  0.00  0.00    +0.029 A 
ATOM     27 CL   UNL     1      -4.782  -7.213   4.302  0.00  0.00    -0.084 Cl
ENDBRANCH  16  21
BRANCH  19  28
ATOM     28  C   UNL     1       4.914  -0.280  -0.052  0.00  0.00    +0.209 C 
BRANCH  28  29
ATOM     29  C   UNL     1       5.408  -0.132   1.364  0.00  0.00    +0.228 C 
ATOM     30  O   UNL     1       4.669  -0.379   2.293  0.00  0.00    -0.274 OA
ATOM     31  N   UNL     1       6.671   0.276   1.598  0.00  0.00    -0.328 N 
ATOM     32  H   UNL     1       7.263   0.474   0.855  0.00  0.00    +0.145 HD
ATOM     33  H   UNL     1       6.989   0.371   2.509  0.00  0.00    +0.145 HD
ENDBRANCH  28  29
ENDBRANCH  19  28
TORSDOF 3
