REMARK  Name = ZINC16477935
REMARK  7 active torsions:
REMARK  status: ('A' for Active; 'I' for Inactive)
REMARK    1  A    between atoms: C_4  and  C_7
REMARK    2  A    between atoms: C_8  and  C_26
REMARK    3  A    between atoms: C_9  and  C_15
REMARK    4  A    between atoms: C_20  and  O_21
REMARK    5  A    between atoms: O_21  and  C_22
REMARK    6  A    between atoms: C_22  and  C_23
REMARK    7  A    between atoms: C_26  and  C_28
REMARK                            x       y       z     vdW  Elec       q    Type
REMARK                         _______ _______ _______ _____ _____    ______ ____
ROOT
ATOM      1  C   UNL     1       0.017   1.515   0.537  0.00  0.00    +0.049 C 
ATOM      2  C   UNL     1       1.155   2.165   0.144  0.00  0.00    +0.046 C 
ATOM      3  C   UNL     1       2.373   1.320  -0.168  0.00  0.00    +0.142 C 
ATOM      4  N   UNL     1       2.232  -0.138  -0.021  0.00  0.00    -0.315 N 
ATOM      5  C   UNL     1       1.045  -0.636   0.375  0.00  0.00    +0.135 C 
ATOM      6  S   UNL     1       0.878  -2.332   0.546  0.00  0.00    -0.019 S 
ATOM      7  N   UNL     1      -0.009   0.146   0.642  0.00  0.00    -0.296 N 
ATOM      8  H   UNL     1       2.978  -0.729  -0.208  0.00  0.00    +0.149 HD
ATOM      9  H   UNL     1      -0.834  -0.278   0.924  0.00  0.00    +0.154 HD
ENDROOT
BRANCH   1  13
ATOM     10  C   UNL     1      -3.479   3.754   1.428  0.00  0.00    +0.000 A 
ATOM     11  C   UNL     1      -3.559   2.657   0.587  0.00  0.00    +0.001 A 
ATOM     12  C   UNL     1      -2.428   1.925   0.294  0.00  0.00    +0.010 A 
ATOM     13  C   UNL     1      -1.198   2.293   0.847  0.00  0.00    -0.003 A 
ATOM     14  C   UNL     1      -1.126   3.398   1.699  0.00  0.00    +0.010 A 
ATOM     15  C   UNL     1      -2.265   4.124   1.979  0.00  0.00    +0.001 A 
ENDBRANCH   1  13
BRANCH   3  16
ATOM     16  C   UNL     1       2.785   1.606  -1.589  0.00  0.00    +0.019 A 
ATOM     17  C   UNL     1       2.410   0.747  -2.604  0.00  0.00    +0.009 A 
ATOM     18  C   UNL     1       2.788   1.009  -3.908  0.00  0.00    +0.001 A 
ATOM     19  C   UNL     1       3.541   2.131  -4.200  0.00  0.00    +0.004 A 
ATOM     20  C   UNL     1       3.919   2.993  -3.189  0.00  0.00    +0.046 A 
ATOM     21  C   UNL     1       3.537   2.735  -1.880  0.00  0.00    +0.126 A 
BRANCH  21  22
ATOM     22  O   UNL     1       3.902   3.584  -0.884  0.00  0.00    -0.482 OA
BRANCH  22  23
ATOM     23  C   UNL     1       4.587   4.778  -1.269  0.00  0.00    +0.324 C 
BRANCH  23  24
ATOM     24  C   UNL     1       5.008   5.535  -0.035  0.00  0.00    +0.248 C 
ATOM     25  O   UNL     1       4.831   5.052   1.063  0.00  0.00    -0.272 OA
ATOM     26  N   UNL     1       5.581   6.750  -0.153  0.00  0.00    -0.327 N 
ATOM     27  H   UNL     1       5.657   7.168  -1.025  0.00  0.00    +0.145 HD
ATOM     28  H   UNL     1       5.917   7.206   0.635  0.00  0.00    +0.145 HD
ENDBRANCH  23  24
ENDBRANCH  22  23
ENDBRANCH  21  22
ENDBRANCH   3  16
BRANCH   2  29
ATOM     29  C   UNL     1       1.192   3.568   0.034  0.00  0.00    +0.193 C 
ATOM     30  O   UNL     1       1.759   4.232   0.884  0.00  0.00    -0.287 OA
BRANCH  29  31
ATOM     31  C   UNL     1       0.543   4.237  -1.116  0.00  0.00    +0.022 A 
ATOM     32  C   UNL     1      -0.008   3.478  -2.149  0.00  0.00    +0.012 A 
ATOM     33  C   UNL     1      -0.616   4.108  -3.216  0.00  0.00    +0.001 A 
ATOM     34  C   UNL     1      -0.671   5.489  -3.267  0.00  0.00    +0.000 A 
ATOM     35  C   UNL     1      -0.122   6.248  -2.249  0.00  0.00    +0.001 A 
ATOM     36  C   UNL     1       0.484   5.630  -1.174  0.00  0.00    +0.012 A 
ENDBRANCH  29  31
ENDBRANCH   2  29
TORSDOF 7
