REMARK  Name = ZINC36604406
REMARK  14 active torsions:
REMARK  status: ('A' for Active; 'I' for Inactive)
REMARK    1  A    between atoms: C_1  and  C_2
REMARK    2  A    between atoms: C_2  and  C_3
REMARK    3  A    between atoms: C_2  and  C_4
REMARK    4  A    between atoms: C_2  and  N_5
REMARK    5  A    between atoms: C_6  and  C_8
REMARK    6  A    between atoms: C_8  and  C_10
REMARK    7  A    between atoms: C_8  and  N_19
REMARK    8  A    between atoms: C_11  and  O_18
REMARK    9  A    between atoms: C_13  and  O_17
REMARK   10  A    between atoms: C_15  and  O_16
REMARK   11  A    between atoms: N_19  and  C_20
REMARK   12  A    between atoms: C_26  and  C_28
REMARK   13  A    between atoms: C_33  and  O_34
REMARK   14  A    between atoms: O_34  and  C_35
REMARK                            x       y       z     vdW  Elec       q    Type
REMARK                         _______ _______ _______ _____ _____    ______ ____
ROOT
ATOM      1  C   UNL     1       2.251   1.171  -3.312  0.00  0.00    +0.204 C 
ENDROOT
BRANCH   1   2
ATOM      2  C   UNL     1       2.586   1.160  -4.781  0.00  0.00    +0.065 A 
ATOM      3  C   UNL     1       3.874   1.455  -5.201  0.00  0.00    +0.129 A 
ATOM      4  C   UNL     1       4.182   1.446  -6.553  0.00  0.00    +0.091 A 
ATOM      5  C   UNL     1       3.202   1.141  -7.486  0.00  0.00    +0.124 A 
ATOM      6  C   UNL     1       1.914   0.845  -7.066  0.00  0.00    +0.091 A 
ATOM      7  C   UNL     1       1.607   0.850  -5.713  0.00  0.00    +0.129 A 
BRANCH   7   8
ATOM      8  O   UNL     1       0.346   0.556  -5.302  0.00  0.00    -0.506 OA
ATOM      9  H   UNL     1      -0.237   1.325  -5.238  0.00  0.00    +0.292 HD
ENDBRANCH   7   8
BRANCH   5  10
ATOM     10  O   UNL     1       3.504   1.133  -8.810  0.00  0.00    -0.507 OA
ATOM     11  H   UNL     1       3.805   0.275  -9.140  0.00  0.00    +0.292 HD
ENDBRANCH   5  10
BRANCH   3  12
ATOM     12  O   UNL     1       4.835   1.754  -4.287  0.00  0.00    -0.506 OA
ATOM     13  H   UNL     1       5.396   1.004  -4.047  0.00  0.00    +0.292 HD
ENDBRANCH   3  12
ENDBRANCH   1   2
BRANCH   1  15
ATOM     14  N   UNL     1       0.481   2.867  -2.981  0.00  0.00    -0.309 N 
ATOM     15  C   UNL     1       1.789   2.548  -2.912  0.00  0.00    +0.239 C 
ATOM     16  O   UNL     1       2.594   3.369  -2.527  0.00  0.00    -0.273 OA
ATOM     17  H   UNL     1      -0.162   2.210  -3.289  0.00  0.00    +0.149 HD
BRANCH  14  19
ATOM     18  C   UNL     1       0.715   5.250  -3.478  0.00  0.00    +0.031 C 
ATOM     19  C   UNL     1       0.032   4.206  -2.592  0.00  0.00    +0.026 C 
ATOM     20  C   UNL     1       0.397   4.461  -1.128  0.00  0.00    +0.031 C 
ATOM     21  C   UNL     1      -1.485   4.305  -2.764  0.00  0.00    +0.031 C 
ENDBRANCH  14  19
ENDBRANCH   1  15
BRANCH   1  22
ATOM     22  N   UNL     1       3.442   0.810  -2.538  0.00  0.00    -0.251 N 
ATOM     23  C   UNL     1       4.146  -0.293  -2.859  0.00  0.00    +0.255 C 
ATOM     24  O   UNL     1       5.033  -0.683  -2.124  0.00  0.00    -0.269 OA
BRANCH  22  25
ATOM     25  C   UNL     1       3.846   1.611  -1.465  0.00  0.00    +0.038 A 
ATOM     26  C   UNL     1       3.298   1.415  -0.204  0.00  0.00    +0.023 A 
ATOM     27  C   UNL     1       3.701   2.207   0.853  0.00  0.00    +0.002 A 
ATOM     28  C   UNL     1       4.648   3.195   0.657  0.00  0.00    +0.000 A 
ATOM     29  C   UNL     1       5.196   3.393  -0.597  0.00  0.00    +0.002 A 
ATOM     30  C   UNL     1       4.802   2.601  -1.657  0.00  0.00    +0.023 A 
ENDBRANCH  22  25
BRANCH  23  31
ATOM     31  C   UNL     1       3.842  -1.026  -4.102  0.00  0.00    +0.079 A 
ATOM     32  C   UNL     1       2.558  -0.977  -4.651  0.00  0.00    +0.017 A 
ATOM     33  C   UNL     1       2.281  -1.664  -5.812  0.00  0.00    +0.001 A 
ATOM     34  C   UNL     1       3.269  -2.405  -6.439  0.00  0.00    +0.004 A 
ATOM     35  C   UNL     1       4.542  -2.462  -5.908  0.00  0.00    +0.046 A 
ATOM     36  C   UNL     1       4.841  -1.772  -4.742  0.00  0.00    +0.132 A 
BRANCH  36  37
ATOM     37  O   UNL     1       6.093  -1.823  -4.222  0.00  0.00    -0.494 OA
ATOM     38  C   UNL     1       7.058  -2.603  -4.930  0.00  0.00    +0.277 C 
ENDBRANCH  36  37
ENDBRANCH  23  31
ENDBRANCH   1  22
TORSDOF 10
