REMARK  Name = ZINC24014437
REMARK  10 active torsions:
REMARK  status: ('A' for Active; 'I' for Inactive)
REMARK    1  A    between atoms: C_1  and  C_2
REMARK    2  A    between atoms: C_2  and  O_3
REMARK    3  A    between atoms: O_3  and  C_4
REMARK    4  A    between atoms: C_4  and  C_6
REMARK    5  A    between atoms: C_7  and  C_19
REMARK    6  A    between atoms: C_12  and  C_14
REMARK    7  A    between atoms: C_19  and  S_20
REMARK    8  A    between atoms: S_20  and  C_21
REMARK    9  A    between atoms: C_24  and  C_27
REMARK   10  A    between atoms: N_25  and  N_26
REMARK                            x       y       z     vdW  Elec       q    Type
REMARK                         _______ _______ _______ _____ _____    ______ ____
ROOT
ATOM      1  C   UNL     1       0.171  -5.078   1.277  0.00  0.00    +0.082 C 
ATOM      2  C   UNL     1       0.273  -4.403   0.111  0.00  0.00    +0.034 C 
ATOM      3  N   UNL     1       0.718  -5.019  -1.023  0.00  0.00    -0.272 N 
ATOM      4  C   UNL     1       1.075  -6.308  -1.077  0.00  0.00    +0.304 C 
ATOM      5  O   UNL     1       1.460  -6.769  -2.134  0.00  0.00    -0.252 OA
ATOM      6  N   UNL     1       1.023  -7.112   0.004  0.00  0.00    -0.285 N 
ATOM      7  C   UNL     1       0.556  -6.543   1.279  0.00  0.00    +0.179 C 
ATOM      8  H   UNL     1       0.798  -4.452  -1.962  0.00  0.00    +0.156 HD
ATOM      9  H   UNL     1       1.319  -8.170  -0.051  0.00  0.00    +0.151 HD
ENDROOT
BRANCH   7  10
ATOM     10  C   UNL     1      -0.639  -7.342   1.734  0.00  0.00    +0.130 A 
ATOM     11  C   UNL     1      -0.903  -7.711   3.000  0.00  0.00    +0.047 A 
ATOM     12  C   UNL     1      -2.114  -8.439   2.970  0.00  0.00    +0.041 A 
ATOM     13  C   UNL     1      -2.518  -8.472   1.688  0.00  0.00    +0.195 A 
ATOM     14  O   UNL     1      -1.624  -7.800   0.944  0.00  0.00    -0.466 OA
ENDBRANCH   7  10
BRANCH   1  15
ATOM     15  C   UNL     1      -0.284  -4.439   2.454  0.00  0.00    +0.339 C 
ATOM     16  O   UNL     1       0.515  -4.072   3.295  0.00  0.00    -0.245 OA
BRANCH  15  17
ATOM     17  O   UNL     1      -1.605  -4.237   2.645  0.00  0.00    -0.462 OA
BRANCH  17  19
ATOM     18  C   UNL     1      -3.517  -3.447   3.894  0.00  0.00    +0.048 C 
ATOM     19  C   UNL     1      -1.993  -3.587   3.856  0.00  0.00    +0.229 C 
ENDBRANCH  17  19
ENDBRANCH  15  17
ENDBRANCH   1  15
BRANCH   2  20
ATOM     20  C   UNL     1      -0.105  -2.945   0.064  0.00  0.00    +0.128 C 
BRANCH  20  21
ATOM     21  S   UNL     1       1.395  -1.936  -0.021  0.00  0.00    -0.079 S 
BRANCH  21  22
ATOM     22  C   UNL     1       0.679  -0.326  -0.065  0.00  0.00    +0.209 A 
ATOM     23  N   UNL     1      -0.603  -0.043  -0.039  0.00  0.00    -0.121 NA
ATOM     24  N   UNL     1      -0.775   1.230  -0.085  0.00  0.00    -0.127 NA
ATOM     25  C   UNL     1       0.387   1.837  -0.144  0.00  0.00    +0.183 A 
ATOM     26  N   UNL     1       1.355   0.859  -0.133  0.00  0.00    -0.224 N 
BRANCH  25  27
ATOM     27  C   UNL     1       0.614   3.296  -0.210  0.00  0.00    +0.039 A 
ATOM     28  C   UNL     1       1.510   3.825  -1.140  0.00  0.00    +0.014 A 
ATOM     29  C   UNL     1       1.717   5.188  -1.197  0.00  0.00    +0.021 A 
ATOM     30  C   UNL     1       1.038   6.031  -0.334  0.00  0.00    +0.042 A 
ATOM     31  C   UNL     1       0.147   5.514   0.592  0.00  0.00    +0.040 A 
ATOM     32  C   UNL     1      -0.073   4.152   0.655  0.00  0.00    +0.053 A 
ATOM     33 CL   UNL     1      -1.195   3.505   1.810  0.00  0.00    -0.083 Cl
ATOM     34 CL   UNL     1       1.304   7.745  -0.412  0.00  0.00    -0.083 Cl
ENDBRANCH  25  27
BRANCH  26  35
ATOM     35  N   UNL     1       2.708   1.037  -0.179  0.00  0.00    -0.295 N 
ATOM     36  H   UNL     1       3.128   2.052  -0.232  0.00  0.00    +0.163 HD
ATOM     37  H   UNL     1       3.378   0.165  -0.163  0.00  0.00    +0.163 HD
ENDBRANCH  26  35
ENDBRANCH  21  22
ENDBRANCH  20  21
ENDBRANCH   2  20
TORSDOF 9
