REMARK  Name = ZINC40954041
REMARK  7 active torsions:
REMARK  status: ('A' for Active; 'I' for Inactive)
REMARK    1  A    between atoms: C_1  and  S_2
REMARK    2  A    between atoms: S_2  and  C_3
REMARK    3  A    between atoms: C_5  and  O_24
REMARK    4  A    between atoms: C_8  and  N_9
REMARK    5  A    between atoms: N_12  and  C_13
REMARK    6  A    between atoms: C_17  and  C_19
REMARK    7  A    between atoms: O_24  and  C_25
REMARK                            x       y       z     vdW  Elec       q    Type
REMARK                         _______ _______ _______ _____ _____    ______ ____
ROOT
ATOM      1  C   UNL     1       0.941  -0.454  -1.603  0.00  0.00    +0.032 A 
ATOM      2  C   UNL     1       1.465   0.485  -2.481  0.00  0.00    +0.062 A 
ATOM      3  C   UNL     1       2.122   0.068  -3.628  0.00  0.00    +0.130 A 
ATOM      4  C   UNL     1       2.256  -1.287  -3.900  0.00  0.00    +0.048 A 
ATOM      5  C   UNL     1       1.734  -2.224  -3.029  0.00  0.00    +0.028 A 
ATOM      6  C   UNL     1       1.082  -1.814  -1.876  0.00  0.00    +0.048 A 
ENDROOT
BRANCH   6   7
ATOM      7  N   UNL     1       0.558  -2.767  -0.988  0.00  0.00    -0.268 N 
ATOM      8  C   UNL     1       1.187  -3.946  -0.818  0.00  0.00    +0.308 C 
ATOM      9  O   UNL     1       2.263  -4.144  -1.349  0.00  0.00    -0.252 OA
ATOM     10  N   UNL     1       0.624  -4.907  -0.058  0.00  0.00    -0.269 N 
ATOM     11  H   UNL     1      -0.256  -2.576  -0.497  0.00  0.00    +0.156 HD
ATOM     12  H   UNL     1      -0.204  -4.728   0.414  0.00  0.00    +0.156 HD
BRANCH  10  13
ATOM     13  C   UNL     1       1.234  -6.162   0.049  0.00  0.00    +0.035 A 
ATOM     14  C   UNL     1       2.620  -6.263   0.060  0.00  0.00    +0.025 A 
ATOM     15  C   UNL     1       3.219  -7.503   0.166  0.00  0.00    +0.022 A 
ATOM     16  C   UNL     1       2.441  -8.644   0.261  0.00  0.00    +0.053 A 
ATOM     17  C   UNL     1       1.061  -8.545   0.251  0.00  0.00    +0.075 A 
ATOM     18  C   UNL     1       0.456  -7.307   0.151  0.00  0.00    +0.037 A 
ATOM     19 CL   UNL     1       3.198 -10.200   0.393  0.00  0.00    -0.083 Cl
BRANCH  17  20
ATOM     20  C   UNL     1       0.217  -9.789   0.354  0.00  0.00    +0.419 C 
ATOM     21  F   UNL     1      -1.137  -9.438   0.323  0.00  0.00    -0.166 F 
ATOM     22  F   UNL     1       0.503 -10.638  -0.721  0.00  0.00    -0.166 F 
ATOM     23  F   UNL     1       0.500 -10.447   1.556  0.00  0.00    -0.166 F 
ENDBRANCH  17  20
ENDBRANCH  10  13
ENDBRANCH   6   7
BRANCH   1  25
ATOM     24  C   UNL     1       0.175   1.883  -0.227  0.00  0.00    +0.090 C 
ATOM     25  S   UNL     1       0.105   0.072  -0.144  0.00  0.00    -0.127 S 
ENDBRANCH   1  25
BRANCH   3  26
ATOM     26  O   UNL     1       2.636   0.986  -4.489  0.00  0.00    -0.454 OA
BRANCH  26  27
ATOM     27  C   UNL     1       2.082   1.082  -5.725  0.00  0.00    +0.157 A 
ATOM     28  C   UNL     1       0.946   0.347  -6.059  0.00  0.00    +0.068 A 
ATOM     29  C   UNL     1       0.412   0.471  -7.326  0.00  0.00    +0.117 A 
ATOM     30  N   UNL     1       0.957   1.272  -8.223  0.00  0.00    -0.236 NA
ATOM     31  C   UNL     1       2.036   1.990  -7.952  0.00  0.00    +0.162 A 
ATOM     32  C   UNL     1       2.629   1.922  -6.691  0.00  0.00    +0.129 A 
ATOM     33  N   UNL     1       3.724   2.784  -6.710  0.00  0.00    -0.302 N 
ATOM     34  H   UNL     1       4.334   2.944  -5.973  0.00  0.00    +0.171 HD
ATOM     35  C   UNL     1       3.788   3.354  -7.928  0.00  0.00    +0.326 A 
ATOM     36  O   UNL     1       4.629   4.160  -8.281  0.00  0.00    -0.247 OA
ATOM     37  N   UNL     1       2.789   2.888  -8.699  0.00  0.00    -0.291 N 
ATOM     38  H   UNL     1       2.617   3.143  -9.619  0.00  0.00    +0.172 HD
ENDBRANCH  26  27
ENDBRANCH   3  26
TORSDOF 6
