REMARK  Name = ZINC40824470
REMARK  8 active torsions:
REMARK  status: ('A' for Active; 'I' for Inactive)
REMARK    1  A    between atoms: C_1  and  C_2
REMARK    2  A    between atoms: C_2  and  N_3
REMARK    3  A    between atoms: C_14  and  N_16
REMARK    4  A    between atoms: C_17  and  C_19
REMARK    5  A    between atoms: C_20  and  C_33
REMARK    6  A    between atoms: N_28  and  N_29
REMARK    7  A    between atoms: N_29  and  C_30
REMARK    8  A    between atoms: C_30  and  N_32
REMARK                            x       y       z     vdW  Elec       q    Type
REMARK                         _______ _______ _______ _____ _____    ______ ____
ROOT
ATOM      1  N   UNL     1      -5.013  -1.814  -3.964  0.00  0.00    -0.279 N 
ATOM      2  C   UNL     1      -4.767  -1.603  -5.272  0.00  0.00    +0.284 C 
ATOM      3  O   UNL     1      -3.676  -1.198  -5.629  0.00  0.00    -0.266 OA
ATOM      4  H   UNL     1      -5.855  -2.209  -3.687  0.00  0.00    +0.155 HD
ENDROOT
BRANCH   1  16
ATOM      5  N   UNL     1      -1.142  -0.237  -0.318  0.00  0.00    -0.340 N 
ATOM      6  C   UNL     1      -0.605   0.868  -0.953  0.00  0.00    +0.050 A 
ATOM      7  C   UNL     1       0.415   1.748  -0.601  0.00  0.00    +0.026 A 
ATOM      8  C   UNL     1       0.752   2.786  -1.442  0.00  0.00    +0.002 A 
ATOM      9  C   UNL     1       0.083   2.967  -2.643  0.00  0.00    +0.001 A 
ATOM     10  C   UNL     1      -0.929   2.106  -3.009  0.00  0.00    +0.010 A 
ATOM     11  C   UNL     1      -1.280   1.052  -2.169  0.00  0.00    +0.008 A 
ATOM     12  C   UNL     1      -2.287  -0.021  -2.256  0.00  0.00    +0.009 A 
ATOM     13  C   UNL     1      -2.152  -0.789  -1.089  0.00  0.00    +0.050 A 
ATOM     14  C   UNL     1      -2.981  -1.890  -0.896  0.00  0.00    +0.028 A 
ATOM     15  C   UNL     1      -3.921  -2.223  -1.846  0.00  0.00    +0.025 A 
ATOM     16  C   UNL     1      -4.053  -1.465  -3.006  0.00  0.00    +0.034 A 
ATOM     17  C   UNL     1      -3.243  -0.361  -3.209  0.00  0.00    +0.034 A 
BRANCH   5  19
ATOM     18  C   UNL     1       0.417  -1.775   0.770  0.00  0.00    +0.027 C 
ATOM     19  C   UNL     1      -0.702  -0.753   0.980  0.00  0.00    +0.119 C 
ENDBRANCH   5  19
ENDBRANCH   1  16
BRANCH   2  20
ATOM     20  C   UNL     1      -5.814  -1.860  -6.267  0.00  0.00    +0.193 A 
ATOM     21  C   UNL     1      -5.691  -1.692  -7.618  0.00  0.00    +0.009 A 
ATOM     22  C   UNL     1      -6.925  -2.053  -8.172  0.00  0.00    +0.042 A 
ATOM     23  C   UNL     1      -7.749  -2.425  -7.136  0.00  0.00    +0.115 A 
ATOM     24  O   UNL     1      -7.062  -2.310  -6.002  0.00  0.00    -0.454 OA
ATOM     25  C   UNL     1      -9.173  -2.876  -7.341  0.00  0.00    +0.075 C 
ATOM     26  C   UNL     1      -9.675  -2.374  -8.698  0.00  0.00    +0.014 C 
ATOM     27  C   UNL     1      -8.710  -2.782  -9.816  0.00  0.00    +0.058 C 
ATOM     28  C   UNL     1      -7.382  -2.077  -9.579  0.00  0.00    +0.070 C 
ATOM     29  N   UNL     1      -6.699  -1.537 -10.541  0.00  0.00    -0.185 NA
ATOM     30  C   UNL     1      -4.471  -1.213  -8.362  0.00  0.00    +0.048 C 
BRANCH  29  31
ATOM     31  N   UNL     1      -7.180  -1.590 -11.856  0.00  0.00    -0.218 N 
ATOM     32  H   UNL     1      -8.023  -2.030 -12.047  0.00  0.00    +0.176 HD
BRANCH  31  33
ATOM     33  C   UNL     1      -6.471  -1.029 -12.856  0.00  0.00    +0.147 C 
ATOM     34  S   UNL     1      -7.058  -1.094 -14.463  0.00  0.00    -0.017 S 
BRANCH  33  35
ATOM     35  N   UNL     1      -5.299  -0.417 -12.591  0.00  0.00    -0.339 N 
ATOM     36  H   UNL     1      -4.967  -0.381 -11.680  0.00  0.00    +0.144 HD
ATOM     37  H   UNL     1      -4.789  -0.014 -13.310  0.00  0.00    +0.144 HD
ENDBRANCH  33  35
ENDBRANCH  31  33
ENDBRANCH  29  31
ENDBRANCH   2  20
TORSDOF 6
