REMARK  Name = ZINC06575998
REMARK  4 active torsions:
REMARK  status: ('A' for Active; 'I' for Inactive)
REMARK    1  A    between atoms: C_9  and  N_16
REMARK    2  A    between atoms: C_13  and  O_15
REMARK    3  A    between atoms: C_17  and  C_19
REMARK    4  A    between atoms: C_20  and  C_21
REMARK                            x       y       z     vdW  Elec       q    Type
REMARK                         _______ _______ _______ _____ _____    ______ ____
ROOT
ATOM      1  C   UNL     1       3.828   2.033  -1.607  0.00  0.00    +0.001 A 
ATOM      2  C   UNL     1       4.256   0.953  -2.359  0.00  0.00    +0.000 A 
ATOM      3  C   UNL     1       3.332   0.128  -2.975  0.00  0.00    +0.007 A 
ATOM      4  C   UNL     1       1.983   0.380  -2.840  0.00  0.00    -0.007 A 
ATOM      5  C   UNL     1       1.543   1.463  -2.085  0.00  0.00    -0.012 A 
ATOM      6  C   UNL     1       2.481   2.292  -1.467  0.00  0.00    +0.009 A 
ATOM      7  C   UNL     1       0.060   1.508  -2.102  0.00  0.00    -0.010 A 
ATOM      8  C   UNL     1      -0.839   2.392  -1.504  0.00  0.00    +0.032 A 
ATOM      9  C   UNL     1      -2.202   2.213  -1.676  0.00  0.00    +0.034 A 
ATOM     10  C   UNL     1      -2.675   1.157  -2.446  0.00  0.00    +0.024 A 
ATOM     11  C   UNL     1      -1.786   0.278  -3.034  0.00  0.00    +0.009 A 
ATOM     12  C   UNL     1      -0.427   0.451  -2.867  0.00  0.00    -0.007 A 
ATOM     13  C   UNL     1       0.762  -0.325  -3.379  0.00  0.00    +0.176 C 
ENDROOT
BRANCH   9  14
ATOM     14  N   UNL     1      -3.103   3.099  -1.078  0.00  0.00    -0.282 N 
ATOM     15  C   UNL     1      -4.274   2.642  -0.591  0.00  0.00    +0.241 C 
ATOM     16  O   UNL     1      -4.493   1.447  -0.555  0.00  0.00    -0.270 OA
ATOM     17  H   UNL     1      -2.886   4.042  -1.014  0.00  0.00    +0.155 HD
BRANCH  15  18
ATOM     18  C   UNL     1      -5.290   3.594  -0.099  0.00  0.00    +0.075 C 
ATOM     19  C   UNL     1      -5.948   3.342   1.044  0.00  0.00    +0.101 C 
BRANCH  19  20
ATOM     20  C   UNL     1      -5.845   2.014   1.678  0.00  0.00    +0.380 C 
ATOM     21  O   UNL     1      -4.768   1.458   1.750  0.00  0.00    -0.241 OA
ATOM     22  O   UNL     1      -6.946   1.419   2.176  0.00  0.00    -0.241 OA
ENDBRANCH  19  20
ENDBRANCH  15  18
ENDBRANCH   9  14
BRANCH  13  23
ATOM     23  O   UNL     1       0.716  -1.670  -2.898  0.00  0.00    -0.382 OA
ATOM     24  H   UNL     1       1.455  -2.219  -3.193  0.00  0.00    +0.211 HD
ENDBRANCH  13  23
TORSDOF 4
