REMARK  Name = ZINC09845280
REMARK  12 active torsions:
REMARK  status: ('A' for Active; 'I' for Inactive)
REMARK    1  A    between atoms: C_1  and  C_2
REMARK    2  A    between atoms: C_2  and  C_4
REMARK    3  A    between atoms: C_2  and  O_17
REMARK    4  A    between atoms: N_6  and  C_7
REMARK    5  A    between atoms: C_10  and  S_13
REMARK    6  A    between atoms: S_13  and  N_16
REMARK    7  A    between atoms: O_17  and  C_18
REMARK    8  A    between atoms: C_18  and  C_20
REMARK    9  A    between atoms: C_27  and  C_30
REMARK   10  A    between atoms: C_30  and  C_31
REMARK   11  A    between atoms: C_30  and  C_32
REMARK   12  A    between atoms: C_30  and  C_33
REMARK                            x       y       z     vdW  Elec       q    Type
REMARK                         _______ _______ _______ _____ _____    ______ ____
ROOT
ATOM      1  C   UNL     1      -3.847  -1.794  -1.423  0.00  0.00    +0.062 C 
ATOM      2  C   UNL     1      -3.455  -1.465   0.019  0.00  0.00    +0.259 C 
ENDROOT
BRANCH   2   3
ATOM      3  C   UNL     1      -4.650  -0.912   0.751  0.00  0.00    +0.258 C 
ATOM      4  O   UNL     1      -4.642   0.235   1.147  0.00  0.00    -0.271 OA
ATOM      5  N   UNL     1      -5.728  -1.691   0.968  0.00  0.00    -0.282 N 
ATOM      6  H   UNL     1      -5.762  -2.586   0.594  0.00  0.00    +0.155 HD
BRANCH   5   7
ATOM      7  C   UNL     1      -6.798  -1.210   1.730  0.00  0.00    +0.034 A 
ATOM      8  C   UNL     1      -7.512  -2.074   2.550  0.00  0.00    +0.025 A 
ATOM      9  C   UNL     1      -8.563  -1.594   3.307  0.00  0.00    +0.030 A 
ATOM     10  C   UNL     1      -8.913  -0.258   3.239  0.00  0.00    +0.105 A 
ATOM     11  C   UNL     1      -8.207   0.604   2.419  0.00  0.00    +0.030 A 
ATOM     12  C   UNL     1      -7.151   0.132   1.665  0.00  0.00    +0.025 A 
BRANCH  10  13
ATOM     13  S   UNL     1     -10.259   0.348   4.200  0.00  0.00    +0.056 S 
ATOM     14  O   UNL     1     -10.409  -0.543   5.297  0.00  0.00    -0.153 OA
ATOM     15  O   UNL     1     -10.039   1.741   4.375  0.00  0.00    -0.153 OA
BRANCH  13  16
ATOM     16  N   UNL     1     -11.626   0.197   3.277  0.00  0.00    -0.204 NA
ATOM     17  H   UNL     1     -11.569  -0.173   2.383  0.00  0.00    +0.144 HD
ATOM     18  H   UNL     1     -12.484   0.479   3.632  0.00  0.00    +0.144 HD
ENDBRANCH  13  16
ENDBRANCH  10  13
ENDBRANCH   5   7
ENDBRANCH   2   3
BRANCH   2  19
ATOM     19  O   UNL     1      -2.389  -0.479   0.018  0.00  0.00    -0.448 OA
BRANCH  19  20
ATOM     20  C   UNL     1      -1.123  -0.945  -0.004  0.00  0.00    +0.347 C 
ATOM     21  O   UNL     1      -0.917  -2.144  -0.021  0.00  0.00    -0.244 OA
BRANCH  20  22
ATOM     22  C   UNL     1       0.002  -0.009  -0.006  0.00  0.00    +0.097 A 
ATOM     23  C   UNL     1       1.359  -0.276  -0.026  0.00  0.00    +0.026 A 
ATOM     24  C   UNL     1       2.237   0.796  -0.025  0.00  0.00    -0.036 A 
ATOM     25  C   UNL     1       1.682   2.045  -0.004  0.00  0.00    -0.006 A 
ATOM     26  S   UNL     1      -0.019   1.776   0.015  0.00  0.00    -0.086 S 
ATOM     27  C   UNL     1       2.408   3.355   0.001  0.00  0.00    +0.043 C 
ATOM     28  C   UNL     1       3.869   3.100  -0.396  0.00  0.00    +0.009 C 
ATOM     29  C   UNL     1       4.405   1.923   0.424  0.00  0.00    -0.001 C 
ATOM     30  C   UNL     1       3.753   0.622  -0.044  0.00  0.00    +0.040 C 
BRANCH  29  31
ATOM     31  C   UNL     1       5.921   1.826   0.243  0.00  0.00    -0.035 C 
ATOM     32  C   UNL     1       6.576   3.123   0.723  0.00  0.00    +0.011 C 
ATOM     33  C   UNL     1       6.458   0.650   1.062  0.00  0.00    +0.011 C 
ATOM     34  C   UNL     1       6.245   1.607  -1.236  0.00  0.00    +0.011 C 
ENDBRANCH  29  31
ENDBRANCH  20  22
ENDBRANCH  19  20
ENDBRANCH   2  19
TORSDOF 8
