REMARK  Name = ZINC15969409
REMARK  4 active torsions:
REMARK  status: ('A' for Active; 'I' for Inactive)
REMARK    1  A    between atoms: C_6  and  C_7
REMARK    2  A    between atoms: C_7  and  N_8
REMARK    3  A    between atoms: C_13  and  C_31
REMARK    4  A    between atoms: C_31  and  C_32
REMARK                            x       y       z     vdW  Elec       q    Type
REMARK                         _______ _______ _______ _____ _____    ______ ____
ROOT
ATOM      1  N   UNL     1      -1.727  -1.016  -1.368  0.00  0.00    -0.237 N 
ATOM      2  C   UNL     1      -2.511  -0.165  -2.040  0.00  0.00    +0.227 C 
ATOM      3  O   UNL     1      -2.946   0.879  -1.605  0.00  0.00    -0.275 OA
ATOM      4  C   UNL     1      -2.769  -0.708  -3.428  0.00  0.00    +0.107 C 
ATOM      5  C   UNL     1      -4.255  -1.108  -3.546  0.00  0.00    +0.076 C 
ATOM      6  N   UNL     1      -4.238  -2.449  -4.190  0.00  0.00    -0.295 NA
ATOM      7  C   UNL     1      -3.079  -3.127  -3.581  0.00  0.00    +0.136 C 
ATOM      8  C   UNL     1      -1.978  -2.046  -3.441  0.00  0.00    +0.122 C 
ATOM      9  C   UNL     1      -1.366  -2.103  -2.060  0.00  0.00    +0.229 C 
ATOM     10  O   UNL     1      -0.660  -2.996  -1.643  0.00  0.00    -0.275 OA
ATOM     11  C   UNL     1      -3.434  -3.741  -2.257  0.00  0.00    +0.005 A 
ATOM     12  C   UNL     1      -3.917  -3.229  -1.073  0.00  0.00    +0.027 A 
ATOM     13  C   UNL     1      -4.155  -4.072  -0.000  0.00  0.00    +0.041 A 
ATOM     14  C   UNL     1      -3.903  -5.427  -0.120  0.00  0.00    +0.022 A 
ATOM     15  C   UNL     1      -3.416  -5.943  -1.303  0.00  0.00    +0.025 A 
ATOM     16  C   UNL     1      -3.176  -5.103  -2.388  0.00  0.00    +0.039 A 
ATOM     17  N   UNL     1      -2.693  -5.382  -3.669  0.00  0.00    -0.283 N 
ATOM     18  C   UNL     1      -2.607  -4.274  -4.431  0.00  0.00    +0.243 C 
ATOM     19  O   UNL     1      -2.223  -4.215  -5.580  0.00  0.00    -0.273 OA
ATOM     20 CL   UNL     1      -4.765  -3.428   1.492  0.00  0.00    -0.084 Cl
ATOM     21  H   UNL     1      -5.092  -2.952  -4.000  0.00  0.00    +0.124 HD
ATOM     22  H   UNL     1      -2.449  -6.269  -3.974  0.00  0.00    +0.155 HD
ENDROOT
BRANCH   1  23
ATOM     23  C   UNL     1      -1.294  -0.774   0.010  0.00  0.00    +0.151 C 
BRANCH  23  29
ATOM     24  C   UNL     1      -0.017   1.378   0.010  0.00  0.00    +0.009 A 
ATOM     25  C   UNL     1       1.170   2.088   0.002  0.00  0.00    +0.050 A 
ATOM     26  C   UNL     1       2.380   1.416  -0.013  0.00  0.00    +0.166 A 
ATOM     27  C   UNL     1       2.399   0.023  -0.021  0.00  0.00    +0.167 A 
ATOM     28  C   UNL     1       1.207  -0.682  -0.014  0.00  0.00    +0.054 A 
ATOM     29  C   UNL     1       0.002  -0.004   0.002  0.00  0.00    -0.026 A 
ATOM     30  O   UNL     1       3.698  -0.395  -0.036  0.00  0.00    -0.453 OA
ATOM     31  C   UNL     1       4.466   0.750  -0.450  0.00  0.00    +0.466 C 
ATOM     32  O   UNL     1       3.668   1.870  -0.024  0.00  0.00    -0.453 OA
ENDBRANCH  23  29
ENDBRANCH   1  23
BRANCH   5  33
ATOM     33  C   UNL     1      -5.009  -0.104  -4.420  0.00  0.00    +0.115 C 
BRANCH  33  34
ATOM     34  C   UNL     1      -6.478  -0.443  -4.422  0.00  0.00    +0.212 C 
ATOM     35  O   UNL     1      -6.881  -1.394  -3.786  0.00  0.00    -0.276 OA
ATOM     36  N   UNL     1      -7.342   0.310  -5.129  0.00  0.00    -0.329 N 
ATOM     37  H   UNL     1      -7.019   1.071  -5.637  0.00  0.00    +0.145 HD
ATOM     38  H   UNL     1      -8.287   0.092  -5.130  0.00  0.00    +0.145 HD
ENDBRANCH  33  34
ENDBRANCH   5  33
TORSDOF 4
