REMARK  Name = ZINC03332220
REMARK  7 active torsions:
REMARK  status: ('A' for Active; 'I' for Inactive)
REMARK    1  A    between atoms: C_3  and  N_20
REMARK    2  A    between atoms: C_6  and  C_7
REMARK    3  A    between atoms: N_9  and  C_10
REMARK    4  A    between atoms: C_13  and  S_16
REMARK    5  A    between atoms: S_16  and  N_19
REMARK    6  A    between atoms: N_20  and  S_21
REMARK    7  A    between atoms: S_21  and  C_24
REMARK                            x       y       z     vdW  Elec       q    Type
REMARK                         _______ _______ _______ _____ _____    ______ ____
ROOT
ATOM      1  C   UNL     1       0.976  -0.815  -0.052  0.00  0.00    +0.015 A 
ATOM      2  C   UNL     1      -0.123   0.012  -0.103  0.00  0.00    +0.025 A 
ATOM      3  C   UNL     1       0.033   1.389   0.038  0.00  0.00    +0.048 A 
ATOM      4  C   UNL     1       1.300   1.933   0.231  0.00  0.00    +0.025 A 
ATOM      5  C   UNL     1       2.403   1.111   0.283  0.00  0.00    +0.015 A 
ATOM      6  C   UNL     1       2.250  -0.272   0.141  0.00  0.00    +0.037 A 
ENDROOT
BRANCH   6   7
ATOM      7  C   UNL     1       3.429  -1.155   0.196  0.00  0.00    +0.248 C 
ATOM      8  O   UNL     1       3.295  -2.357   0.072  0.00  0.00    -0.270 OA
ATOM      9  N   UNL     1       4.657  -0.630   0.383  0.00  0.00    -0.282 N 
ATOM     10  H   UNL     1       4.756   0.319   0.558  0.00  0.00    +0.155 HD
BRANCH   9  11
ATOM     11  C   UNL     1       5.786  -1.453   0.325  0.00  0.00    +0.034 A 
ATOM     12  C   UNL     1       6.882  -1.189   1.135  0.00  0.00    +0.025 A 
ATOM     13  C   UNL     1       7.993  -2.007   1.079  0.00  0.00    +0.030 A 
ATOM     14  C   UNL     1       8.020  -3.081   0.209  0.00  0.00    +0.105 A 
ATOM     15  C   UNL     1       6.932  -3.344  -0.603  0.00  0.00    +0.030 A 
ATOM     16  C   UNL     1       5.815  -2.533  -0.548  0.00  0.00    +0.025 A 
BRANCH  14  17
ATOM     17  S   UNL     1       9.442  -4.119   0.136  0.00  0.00    +0.056 S 
ATOM     18  O   UNL     1      10.107  -3.985   1.385  0.00  0.00    -0.153 OA
ATOM     19  O   UNL     1       9.004  -5.375  -0.363  0.00  0.00    -0.153 OA
BRANCH  17  20
ATOM     20  N   UNL     1      10.454  -3.482  -1.009  0.00  0.00    -0.204 NA
ATOM     21  H   UNL     1      10.200  -2.677  -1.488  0.00  0.00    +0.144 HD
ATOM     22  H   UNL     1      11.302  -3.913  -1.201  0.00  0.00    +0.144 HD
ENDBRANCH  17  20
ENDBRANCH  14  17
ENDBRANCH   9  11
ENDBRANCH   6   7
BRANCH   3  23
ATOM     23  N   UNL     1      -1.078   2.222  -0.020  0.00  0.00    -0.216 N 
ATOM     24  H   UNL     1      -1.733   2.110  -0.727  0.00  0.00    +0.174 HD
BRANCH  23  25
ATOM     25  S   UNL     1      -1.285   3.407   1.118  0.00  0.00    +0.074 S 
ATOM     26  O   UNL     1      -0.055   4.115   1.195  0.00  0.00    -0.150 OA
ATOM     27  O   UNL     1      -2.516   4.049   0.818  0.00  0.00    -0.150 OA
BRANCH  25  28
ATOM     28  C   UNL     1      -1.501   2.605   2.672  0.00  0.00    +0.135 A 
ATOM     29  C   UNL     1      -0.571   2.768   3.683  0.00  0.00    +0.058 A 
ATOM     30  C   UNL     1      -0.771   2.141   4.868  0.00  0.00    +0.081 A 
ATOM     31  S   UNL     1      -2.305   1.275   4.574  0.00  0.00    -0.063 S 
ATOM     32  C   UNL     1      -2.580   1.813   2.894  0.00  0.00    +0.106 A 
ATOM     33 CL   UNL     1      -3.889   1.424   1.822  0.00  0.00    -0.074 Cl
ATOM     34 CL   UNL     1       0.212   2.167   6.299  0.00  0.00    -0.076 Cl
ENDBRANCH  25  28
ENDBRANCH  23  25
ENDBRANCH   3  23
TORSDOF 7
