REMARK  Name = ZINC39927223
REMARK  8 active torsions:
REMARK  status: ('A' for Active; 'I' for Inactive)
REMARK    1  A    between atoms: C_4  and  C_7
REMARK    2  A    between atoms: C_7  and  C_8
REMARK    3  A    between atoms: C_8  and  N_9
REMARK    4  A    between atoms: C_10  and  C_12
REMARK    5  A    between atoms: C_23  and  N_25
REMARK    6  A    between atoms: C_26  and  C_28
REMARK    7  A    between atoms: C_31  and  C_34
REMARK    8  A    between atoms: C_39  and  O_40
REMARK                            x       y       z     vdW  Elec       q    Type
REMARK                         _______ _______ _______ _____ _____    ______ ____
ROOT
ATOM      1  C   UNL     1       7.365  -2.749   2.524  0.00  0.00    +0.109 C 
ATOM      2  C   UNL     1       7.830  -2.954   3.940  0.00  0.00    +0.016 C 
ATOM      3  C   UNL     1       7.650  -1.833   4.935  0.00  0.00    +0.005 C 
ATOM      4  C   UNL     1       8.472  -2.185   6.186  0.00  0.00    +0.000 C 
ATOM      5  C   UNL     1       8.057  -3.540   6.753  0.00  0.00    +0.001 C 
ATOM      6  C   UNL     1       8.162  -4.649   5.696  0.00  0.00    +0.014 C 
ATOM      7  C   UNL     1       7.229  -4.251   4.546  0.00  0.00    +0.052 C 
ATOM      8  S   UNL     1       7.454  -5.355   3.092  0.00  0.00    -0.134 S 
ATOM      9  C   UNL     1       7.181  -4.095   1.774  0.00  0.00    +0.143 C 
ENDROOT
BRANCH   1  11
ATOM     10  N   UNL     1       5.450  -1.678   1.382  0.00  0.00    -0.315 N 
ATOM     11  C   UNL     1       6.050  -2.013   2.541  0.00  0.00    +0.219 C 
ATOM     12  O   UNL     1       5.532  -1.722   3.599  0.00  0.00    -0.275 OA
ATOM     13  H   UNL     1       5.864  -1.911   0.536  0.00  0.00    +0.149 HD
BRANCH  10  14
ATOM     14  C   UNL     1       4.171  -0.963   1.399  0.00  0.00    +0.109 C 
BRANCH  14  15
ATOM     15  C   UNL     1       3.711  -0.707  -0.038  0.00  0.00    +0.054 C 
BRANCH  15  19
ATOM     16  C   UNL     1      -0.017   1.378   0.010  0.00  0.00    +0.000 A 
ATOM     17  C   UNL     1       1.171   2.086   0.002  0.00  0.00    +0.000 A 
ATOM     18  C   UNL     1       2.377   1.411  -0.013  0.00  0.00    +0.004 A 
ATOM     19  C   UNL     1       2.396   0.029  -0.020  0.00  0.00    -0.046 A 
ATOM     20  C   UNL     1       1.208  -0.679  -0.012  0.00  0.00    +0.004 A 
ATOM     21  C   UNL     1       0.002  -0.004   0.002  0.00  0.00    +0.000 A 
ENDBRANCH  15  19
ENDBRANCH  14  15
ENDBRANCH  10  14
ENDBRANCH   1  11
BRANCH   9  22
ATOM     22  N   UNL     1       8.178  -4.236   0.711  0.00  0.00    -0.301 N 
ATOM     23  C   UNL     1       8.835  -5.403   0.553  0.00  0.00    +0.244 C 
ATOM     24  O   UNL     1       8.599  -6.336   1.291  0.00  0.00    -0.273 OA
ATOM     25  H   UNL     1       8.367  -3.490   0.120  0.00  0.00    +0.150 HD
BRANCH  23  26
ATOM     26  C   UNL     1       9.861  -5.548  -0.541  0.00  0.00    +0.238 C 
ATOM     27  C   UNL     1       9.191  -5.865  -1.866  0.00  0.00    +0.041 C 
ATOM     28  C   UNL     1       9.689  -7.072  -2.198  0.00  0.00    +0.095 C 
ATOM     29  N   UNL     1      10.559  -7.505  -1.248  0.00  0.00    -0.153 NA
ATOM     30  N   UNL     1      10.713  -6.724  -0.301  0.00  0.00    -0.170 NA
BRANCH  28  31
ATOM     31  C   UNL     1       9.337  -7.824  -3.428  0.00  0.00    +0.043 A 
ATOM     32  C   UNL     1       9.907  -9.071  -3.673  0.00  0.00    +0.014 A 
ATOM     33  C   UNL     1       9.576  -9.766  -4.818  0.00  0.00    +0.001 A 
ATOM     34  C   UNL     1       8.680  -9.229  -5.725  0.00  0.00    +0.004 A 
ATOM     35  C   UNL     1       8.108  -7.992  -5.492  0.00  0.00    +0.046 A 
ATOM     36  C   UNL     1       8.427  -7.286  -4.343  0.00  0.00    +0.126 A 
BRANCH  36  37
ATOM     37  O   UNL     1       7.862  -6.073  -4.110  0.00  0.00    -0.506 OA
ATOM     38  H   UNL     1       8.363  -5.329  -4.472  0.00  0.00    +0.292 HD
ENDBRANCH  36  37
ENDBRANCH  28  31
ENDBRANCH  23  26
ENDBRANCH   9  22
TORSDOF 8
