REMARK  Name = ZINC36742906
REMARK  4 active torsions:
REMARK  status: ('A' for Active; 'I' for Inactive)
REMARK    1  A    between atoms: C_1  and  S_2
REMARK    2  A    between atoms: S_2  and  N_5
REMARK    3  A    between atoms: N_5  and  C_6
REMARK    4  A    between atoms: C_11  and  N_12
REMARK                            x       y       z     vdW  Elec       q    Type
REMARK                         _______ _______ _______ _____ _____    ______ ____
ROOT
ATOM      1  C   UNL     1       2.115   0.015  -1.600  0.00  0.00    +0.070 A 
ATOM      2  C   UNL     1       3.021  -0.002  -0.550  0.00  0.00    +0.053 A 
ATOM      3  C   UNL     1       4.325   0.419  -0.757  0.00  0.00    +0.078 A 
ATOM      4  C   UNL     1       4.726   0.860  -2.016  0.00  0.00    +0.144 A 
ATOM      5  C   UNL     1       3.823   0.877  -3.065  0.00  0.00    +0.072 A 
ATOM      6  C   UNL     1       2.518   0.450  -2.861  0.00  0.00    +0.051 A 
ATOM      7  O   UNL     1       6.010   1.272  -2.203  0.00  0.00    -0.481 OA
ATOM      8  C   UNL     1       6.649   1.908  -1.093  0.00  0.00    +0.325 C 
ATOM      9  C   UNL     1       6.405   1.105   0.160  0.00  0.00    +0.255 C 
ATOM     10  O   UNL     1       7.236   1.086   1.042  0.00  0.00    -0.272 OA
ATOM     11  N   UNL     1       5.256   0.408   0.295  0.00  0.00    -0.280 N 
ATOM     12  H   UNL     1       5.077  -0.094   1.106  0.00  0.00    +0.155 HD
ENDROOT
BRANCH   6  13
ATOM     13  N   UNL     1       1.604   0.461  -3.924  0.00  0.00    -0.356 N 
ATOM     14  H   UNL     1       0.691   0.167  -3.781  0.00  0.00    +0.142 HD
ATOM     15  H   UNL     1       1.884   0.764  -4.802  0.00  0.00    +0.142 HD
ENDBRANCH   6  13
BRANCH   1  16
ATOM     16  N   UNL     1       0.795  -0.411  -1.394  0.00  0.00    -0.219 N 
ATOM     17  H   UNL     1       0.323  -0.884  -2.097  0.00  0.00    +0.173 HD
BRANCH  16  19
ATOM     18  C   UNL     1       0.037   1.701   0.201  0.00  0.00    +0.218 C 
ATOM     19  S   UNL     1       0.042  -0.107   0.050  0.00  0.00    +0.040 S 
ATOM     20  O   UNL     1       0.896  -0.678   1.031  0.00  0.00    -0.155 OA
ATOM     21  O   UNL     1      -1.284  -0.587  -0.125  0.00  0.00    -0.155 OA
ENDBRANCH  16  19
ENDBRANCH   1  16
TORSDOF 3
