REMARK  Name = ZINC42042870
REMARK  4 active torsions:
REMARK  status: ('A' for Active; 'I' for Inactive)
REMARK    1  A    between atoms: C_4  and  N_17
REMARK    2  A    between atoms: C_5  and  N_7
REMARK    3  A    between atoms: C_8  and  C_10
REMARK    4  A    between atoms: C_18  and  C_20
REMARK                            x       y       z     vdW  Elec       q    Type
REMARK                         _______ _______ _______ _____ _____    ______ ____
ROOT
ATOM      1  C   UNL     1       0.296   1.516   0.164  0.00  0.00    +0.002 A 
ATOM      2  C   UNL     1       1.533   2.136   0.188  0.00  0.00    +0.002 A 
ATOM      3  C   UNL     1       2.690   1.381   0.157  0.00  0.00    +0.025 A 
ATOM      4  C   UNL     1       2.613  -0.003   0.100  0.00  0.00    +0.055 A 
ATOM      5  C   UNL     1       1.367  -0.628   0.076  0.00  0.00    +0.055 A 
ATOM      6  C   UNL     1       0.210   0.138   0.108  0.00  0.00    +0.025 A 
ENDROOT
BRANCH   5   7
ATOM      7  N   UNL     1       1.282  -2.024   0.018  0.00  0.00    -0.280 N 
ATOM      8  C   UNL     1       0.278  -2.611  -0.663  0.00  0.00    +0.248 C 
ATOM      9  O   UNL     1      -0.496  -1.933  -1.310  0.00  0.00    -0.270 OA
ATOM     10  H   UNL     1       1.946  -2.569   0.469  0.00  0.00    +0.155 HD
BRANCH   8  11
ATOM     11  C   UNL     1       0.118  -4.080  -0.623  0.00  0.00    +0.037 A 
ATOM     12  C   UNL     1       1.001  -4.861   0.124  0.00  0.00    +0.014 A 
ATOM     13  C   UNL     1       0.847  -6.231   0.158  0.00  0.00    +0.021 A 
ATOM     14  C   UNL     1      -0.183  -6.832  -0.548  0.00  0.00    +0.041 A 
ATOM     15  C   UNL     1      -1.062  -6.062  -1.292  0.00  0.00    +0.021 A 
ATOM     16  C   UNL     1      -0.921  -4.691  -1.328  0.00  0.00    +0.014 A 
ATOM     17 CL   UNL     1      -0.371  -8.557  -0.502  0.00  0.00    -0.084 Cl
ENDBRANCH   8  11
ENDBRANCH   5   7
BRANCH   4  18
ATOM     18  N   UNL     1       3.784  -0.770   0.068  0.00  0.00    -0.280 N 
ATOM     19  C   UNL     1       4.925  -0.280   0.590  0.00  0.00    +0.250 C 
ATOM     20  O   UNL     1       4.957   0.855   1.026  0.00  0.00    -0.270 OA
ATOM     21  H   UNL     1       3.773  -1.654  -0.331  0.00  0.00    +0.155 HD
BRANCH  19  22
ATOM     22  C   UNL     1       6.136  -1.120   0.634  0.00  0.00    +0.053 A 
ATOM     23  C   UNL     1       6.108  -2.440   0.122  0.00  0.00    +0.020 A 
ATOM     24  C   UNL     1       7.239  -3.192   0.175  0.00  0.00    +0.071 A 
ATOM     25  C   UNL     1       8.410  -2.645   0.734  0.00  0.00    +0.249 A 
ATOM     26  N   UNL     1       8.415  -1.389   1.214  0.00  0.00    -0.328 N 
ATOM     27  C   UNL     1       7.308  -0.624   1.167  0.00  0.00    +0.099 A 
ATOM     28  O   UNL     1       9.427  -3.316   0.783  0.00  0.00    -0.268 OA
ATOM     29  H   UNL     1       9.230  -1.027   1.596  0.00  0.00    +0.168 HD
ENDBRANCH  19  22
ENDBRANCH   4  18
TORSDOF 4
