REMARK  Name = ZINC67464571
REMARK  9 active torsions:
REMARK  status: ('A' for Active; 'I' for Inactive)
REMARK    1  A    between atoms: C_1  and  C_2
REMARK    2  A    between atoms: C_2  and  C_21
REMARK    3  A    between atoms: C_3  and  C_4
REMARK    4  A    between atoms: N_6  and  N_7
REMARK    5  A    between atoms: N_7  and  C_8
REMARK    6  A    between atoms: C_8  and  N_10
REMARK    7  A    between atoms: N_10  and  C_11
REMARK    8  A    between atoms: C_15  and  N_17
REMARK    9  A    between atoms: C_18  and  C_20
REMARK                            x       y       z     vdW  Elec       q    Type
REMARK                         _______ _______ _______ _____ _____    ______ ____
ROOT
ATOM      1  N   UNL     1      -0.158  -4.182   2.338  0.00  0.00    -0.245 N 
ATOM      2  H   UNL     1      -0.358  -4.629   1.501  0.00  0.00    +0.172 HD
ENDROOT
BRANCH   1   5
ATOM      3  C   UNL     1       0.089  -2.105   1.202  0.00  0.00    +0.253 C 
ATOM      4  O   UNL     1      -0.162  -2.666   0.151  0.00  0.00    -0.269 OA
ATOM      5  N   UNL     1       0.109  -2.807   2.352  0.00  0.00    -0.232 N 
ATOM      6  H   UNL     1       0.308  -2.360   3.190  0.00  0.00    +0.173 HD
BRANCH   3   9
ATOM      7  C   UNL     1       0.635   1.513   0.080  0.00  0.00    +0.044 C 
ATOM      8  C   UNL     1       0.347   0.034   0.065  0.00  0.00    -0.036 C 
ATOM      9  C   UNL     1       0.368  -0.669   1.216  0.00  0.00    +0.072 C 
BRANCH   8  10
ATOM     10  C   UNL     1       0.045  -0.644  -1.205  0.00  0.00    +0.013 A 
ATOM     11  C   UNL     1      -1.270  -1.015  -1.508  0.00  0.00    +0.011 A 
ATOM     12  C   UNL     1      -1.546  -1.649  -2.700  0.00  0.00    +0.001 A 
ATOM     13  C   UNL     1      -0.527  -1.920  -3.598  0.00  0.00    +0.003 A 
ATOM     14  C   UNL     1       0.776  -1.558  -3.308  0.00  0.00    +0.039 A 
ATOM     15  C   UNL     1       1.070  -0.916  -2.120  0.00  0.00    +0.131 A 
ATOM     16  F   UNL     1       2.342  -0.557  -1.839  0.00  0.00    -0.205 F 
ENDBRANCH   8  10
ENDBRANCH   3   9
ENDBRANCH   1   5
BRANCH   1  17
ATOM     17  C   UNL     1      -0.138  -4.885   3.489  0.00  0.00    +0.151 C 
ATOM     18  S   UNL     1      -0.465  -6.565   3.472  0.00  0.00    -0.017 S 
BRANCH  17  19
ATOM     19  N   UNL     1       0.139  -4.264   4.652  0.00  0.00    -0.296 N 
ATOM     20  H   UNL     1       0.404  -3.330   4.653  0.00  0.00    +0.154 HD
BRANCH  19  21
ATOM     21  C   UNL     1       0.045  -4.965   5.859  0.00  0.00    +0.034 A 
ATOM     22  C   UNL     1       1.006  -4.784   6.846  0.00  0.00    +0.023 A 
ATOM     23  C   UNL     1       0.914  -5.476   8.038  0.00  0.00    +0.004 A 
ATOM     24  C   UNL     1      -0.134  -6.350   8.253  0.00  0.00    +0.023 A 
ATOM     25  C   UNL     1      -1.098  -6.536   7.270  0.00  0.00    +0.035 A 
ATOM     26  C   UNL     1      -1.012  -5.838   6.074  0.00  0.00    +0.046 A 
BRANCH  25  27
ATOM     27  N   UNL     1      -2.159  -7.422   7.489  0.00  0.00    -0.286 N 
ATOM     28  C   UNL     1      -2.679  -7.559   8.724  0.00  0.00    +0.214 C 
ATOM     29  O   UNL     1      -2.178  -6.975   9.662  0.00  0.00    -0.276 OA
ATOM     30  C   UNL     1      -3.885  -8.437   8.941  0.00  0.00    +0.109 C 
ATOM     31  H   UNL     1      -2.520  -7.938   6.751  0.00  0.00    +0.155 HD
ENDBRANCH  25  27
ENDBRANCH  19  21
ENDBRANCH  17  19
ENDBRANCH   1  17
TORSDOF 7
