REMARK  Name = ZINC63008571
REMARK  4 active torsions:
REMARK  status: ('A' for Active; 'I' for Inactive)
REMARK    1  A    between atoms: C_2  and  C_10
REMARK    2  A    between atoms: N_12  and  C_13
REMARK    3  A    between atoms: C_18  and  C_20
REMARK    4  A    between atoms: N_21  and  O_22
REMARK                            x       y       z     vdW  Elec       q    Type
REMARK                         _______ _______ _______ _____ _____    ______ ____
ROOT
ATOM      1  C   UNL     1       1.117   3.586   0.463  0.00  0.00    +0.244 C 
ATOM      2  O   UNL     1       0.073   4.193   0.606  0.00  0.00    -0.270 OA
ATOM      3  N   UNL     1       2.265   4.260   0.256  0.00  0.00    -0.308 N 
ATOM      4  H   UNL     1       3.084   3.776   0.067  0.00  0.00    +0.149 HD
ENDROOT
BRANCH   1   6
ATOM      5  C   UNL     1      -0.040   1.414   0.843  0.00  0.00    +0.054 A 
ATOM      6  C   UNL     1       1.125   2.110   0.515  0.00  0.00    +0.042 A 
ATOM      7  C   UNL     1       2.298   1.406   0.236  0.00  0.00    +0.054 A 
ATOM      8  C   UNL     1       2.302   0.026   0.285  0.00  0.00    +0.162 A 
ATOM      9  C   UNL     1       1.141  -0.661   0.612  0.00  0.00    +0.193 A 
ATOM     10  C   UNL     1      -0.027   0.034   0.890  0.00  0.00    +0.162 A 
ATOM     11  F   UNL     1      -1.154  -0.640   1.208  0.00  0.00    -0.202 F 
ATOM     12  F   UNL     1       1.149  -2.011   0.659  0.00  0.00    -0.199 F 
ATOM     13  F   UNL     1       3.436  -0.656   0.015  0.00  0.00    -0.202 F 
ENDBRANCH   1   6
BRANCH   3  14
ATOM     14  C   UNL     1       2.277   5.724   0.316  0.00  0.00    +0.083 C 
ATOM     15  C   UNL     1       2.056   6.312  -1.093  0.00  0.00    +0.023 C 
ATOM     16  C   UNL     1       2.969   7.562  -1.131  0.00  0.00    +0.003 C 
ATOM     17  C   UNL     1       4.222   7.094  -0.350  0.00  0.00    +0.013 C 
ATOM     18  C   UNL     1       3.654   6.221   0.789  0.00  0.00    +0.076 C 
BRANCH  18  19
ATOM     19  C   UNL     1       4.566   5.049   1.046  0.00  0.00    +0.136 C 
ATOM     20  N   UNL     1       4.699   4.583   2.243  0.00  0.00    -0.076 NA
ATOM     21  N   UNL     1       5.258   4.473   0.003  0.00  0.00    -0.344 N 
ATOM     22  H   UNL     1       5.158   4.823  -0.897  0.00  0.00    +0.144 HD
ATOM     23  H   UNL     1       5.845   3.719   0.168  0.00  0.00    +0.144 HD
BRANCH  20  24
ATOM     24  O   UNL     1       3.901   5.097   3.295  0.00  0.00    -0.408 OA
ATOM     25  H   UNL     1       4.124   4.742   4.166  0.00  0.00    +0.328 HD
ENDBRANCH  20  24
ENDBRANCH  18  19
ENDBRANCH   3  14
TORSDOF 4
