REMARK  Name = ZINC66682504
REMARK  12 active torsions:
REMARK  status: ('A' for Active; 'I' for Inactive)
REMARK    1  A    between atoms: C_1  and  C_2
REMARK    2  A    between atoms: C_5  and  O_28
REMARK    3  A    between atoms: C_6  and  C_8
REMARK    4  A    between atoms: C_8  and  C_10
REMARK    5  A    between atoms: C_8  and  N_11
REMARK    6  A    between atoms: N_14  and  C_15
REMARK    7  A    between atoms: C_18  and  C_22
REMARK    8  A    between atoms: C_19  and  C_21
REMARK    9  A    between atoms: N_24  and  C_25
REMARK   10  A    between atoms: C_25  and  C_26
REMARK   11  A    between atoms: C_25  and  C_27
REMARK   12  A    between atoms: O_28  and  C_29
REMARK                            x       y       z     vdW  Elec       q    Type
REMARK                         _______ _______ _______ _____ _____    ______ ____
ROOT
ATOM      1  N   UNL     1      -0.450  -2.413   3.522  0.00  0.00    -0.292 N 
ATOM      2  C   UNL     1      -1.033  -2.890   4.639  0.00  0.00    +0.304 C 
ATOM      3  O   UNL     1      -1.069  -4.089   4.841  0.00  0.00    -0.252 OA
ATOM      4  N   UNL     1      -1.576  -2.040   5.532  0.00  0.00    -0.269 N 
ATOM      5  H   UNL     1      -0.422  -1.456   3.360  0.00  0.00    +0.151 HD
ATOM      6  H   UNL     1      -1.485  -1.082   5.407  0.00  0.00    +0.156 HD
ENDROOT
BRANCH   4   7
ATOM      7  C   UNL     1      -2.270  -2.536   6.635  0.00  0.00    +0.035 A 
ATOM      8  C   UNL     1      -1.843  -3.708   7.254  0.00  0.00    +0.024 A 
ATOM      9  C   UNL     1      -2.525  -4.201   8.343  0.00  0.00    +0.015 A 
ATOM     10  C   UNL     1      -3.647  -3.523   8.828  0.00  0.00    +0.040 A 
ATOM     11  C   UNL     1      -4.073  -2.347   8.205  0.00  0.00    -0.037 A 
ATOM     12  C   UNL     1      -3.383  -1.857   7.119  0.00  0.00    +0.027 A 
ATOM     13  C   UNL     1      -5.282  -1.614   8.724  0.00  0.00    +0.044 C 
BRANCH  10  14
ATOM     14  C   UNL     1      -4.381  -4.049   9.995  0.00  0.00    +0.245 C 
ATOM     15  O   UNL     1      -5.397  -3.498  10.373  0.00  0.00    -0.270 OA
ATOM     16  N   UNL     1      -3.925  -5.140  10.643  0.00  0.00    -0.309 N 
ATOM     17  H   UNL     1      -3.115  -5.579  10.341  0.00  0.00    +0.149 HD
BRANCH  16  18
ATOM     18  C   UNL     1      -4.654  -5.662  11.802  0.00  0.00    +0.067 C 
ATOM     19  C   UNL     1      -5.771  -6.592  11.325  0.00  0.00    +0.027 C 
ATOM     20  C   UNL     1      -3.691  -6.440  12.701  0.00  0.00    +0.027 C 
ENDBRANCH  16  18
ENDBRANCH  10  14
ENDBRANCH   4   7
BRANCH   1  21
ATOM     21  C   UNL     1       0.141  -3.337   2.551  0.00  0.00    +0.105 C 
ATOM     22  C   UNL     1       1.571  -3.677   2.975  0.00  0.00    +0.033 C 
BRANCH  21  28
ATOM     23  C   UNL     1       0.197   0.782  -0.289  0.00  0.00    +0.044 C 
ATOM     24  C   UNL     1       0.188  -0.720  -0.170  0.00  0.00    -0.050 A 
ATOM     25  C   UNL     1       0.198  -1.503  -1.310  0.00  0.00    +0.007 A 
ATOM     26  C   UNL     1       0.189  -2.880  -1.204  0.00  0.00    +0.046 A 
ATOM     27  C   UNL     1       0.171  -3.478   0.048  0.00  0.00    +0.125 A 
ATOM     28  C   UNL     1       0.161  -2.691   1.190  0.00  0.00    +0.014 A 
ATOM     29  C   UNL     1       0.175  -1.314   1.078  0.00  0.00    +0.012 A 
BRANCH  27  30
ATOM     30  O   UNL     1       0.162  -4.833   0.155  0.00  0.00    -0.495 OA
ATOM     31  C   UNL     1       0.172  -5.580  -1.063  0.00  0.00    +0.277 C 
ENDBRANCH  27  30
ENDBRANCH  21  28
ENDBRANCH   1  21
TORSDOF 6
