REMARK  Name = ZINC20466552
REMARK  11 active torsions:
REMARK  status: ('A' for Active; 'I' for Inactive)
REMARK    1  A    between atoms: C_1  and  C_2
REMARK    2  A    between atoms: C_4  and  N_28
REMARK    3  A    between atoms: C_8  and  C_27
REMARK    4  A    between atoms: C_11  and  O_26
REMARK    5  A    between atoms: C_13  and  C_17
REMARK    6  A    between atoms: C_17  and  C_19
REMARK    7  A    between atoms: C_17  and  C_20
REMARK    8  A    between atoms: N_22  and  C_23
REMARK    9  A    between atoms: C_23  and  C_24
REMARK   10  A    between atoms: C_23  and  C_25
REMARK   11  A    between atoms: C_29  and  C_31
REMARK                            x       y       z     vdW  Elec       q    Type
REMARK                         _______ _______ _______ _____ _____    ______ ____
ROOT
ATOM      1  C   UNL     1       1.514  -6.752  -0.914  0.00  0.00    +0.010 C 
ATOM      2  C   UNL     1       2.798  -6.104  -0.392  0.00  0.00    +0.012 C 
ATOM      3  C   UNL     1       2.833  -6.200   1.135  0.00  0.00    +0.076 C 
ATOM      4  C   UNL     1       4.117  -5.553   1.657  0.00  0.00    +0.023 C 
ATOM      5  C   UNL     1       4.154  -4.082   1.238  0.00  0.00    +0.009 C 
ATOM      6  C   UNL     1       4.119  -3.986  -0.289  0.00  0.00    -0.027 C 
ATOM      7  C   UNL     1       2.835  -4.633  -0.811  0.00  0.00    +0.028 C 
ATOM      8  C   UNL     1       2.800  -4.538  -2.338  0.00  0.00    +0.122 C 
ATOM      9  C   UNL     1       2.836  -3.067  -2.758  0.00  0.00    +0.029 C 
ATOM     10  C   UNL     1       4.120  -2.419  -2.235  0.00  0.00    +0.007 C 
ATOM     11  C   UNL     1       4.155  -2.515  -0.709  0.00  0.00    +0.007 C 
ATOM     12  C   UNL     1       5.331  -4.714  -0.874  0.00  0.00    +0.011 C 
ENDROOT
BRANCH   3  13
ATOM     13  N   UNL     1       2.798  -7.609   1.537  0.00  0.00    -0.312 N 
ATOM     14  C   UNL     1       2.323  -7.951   2.751  0.00  0.00    +0.216 C 
ATOM     15  O   UNL     1       1.926  -7.094   3.511  0.00  0.00    -0.276 OA
ATOM     16  H   UNL     1       3.159  -8.386   0.847  0.00  0.00    +0.149 HD
BRANCH  14  17
ATOM     17  C   UNL     1       2.287  -9.400   3.164  0.00  0.00    +0.075 C 
ATOM     18  C   UNL     1       1.409 -10.187   2.189  0.00  0.00    +0.013 C 
ATOM     19  C   UNL     1       1.373 -11.658   2.608  0.00  0.00    +0.001 C 
ATOM     20  C   UNL     1       0.794 -11.771   4.020  0.00  0.00    +0.000 C 
ATOM     21  C   UNL     1       1.672 -10.984   4.995  0.00  0.00    +0.001 C 
ATOM     22  C   UNL     1       1.709  -9.513   4.576  0.00  0.00    +0.013 C 
ENDBRANCH  14  17
ENDBRANCH   3  13
BRANCH   9  23
ATOM     23  C   UNL     1       1.624  -2.339  -2.173  0.00  0.00    +0.077 C 
ATOM     24  C   UNL     1       0.341  -3.025  -2.646  0.00  0.00    +0.017 C 
BRANCH  23  25
ATOM     25  C   UNL     1       1.627  -0.905  -2.636  0.00  0.00    +0.216 C 
ATOM     26  O   UNL     1       2.512  -0.504  -3.362  0.00  0.00    -0.276 OA
ATOM     27  N   UNL     1       0.647  -0.068  -2.243  0.00  0.00    -0.313 N 
ATOM     28  H   UNL     1      -0.156  -0.431  -1.584  0.00  0.00    +0.149 HD
BRANCH  27  29
ATOM     29  C   UNL     1       0.650   1.326  -2.693  0.00  0.00    +0.067 C 
ATOM     30  C   UNL     1      -0.020   1.421  -4.066  0.00  0.00    +0.027 C 
ATOM     31  C   UNL     1      -0.119   2.188  -1.690  0.00  0.00    +0.027 C 
ENDBRANCH  27  29
ENDBRANCH  23  25
ENDBRANCH   9  23
BRANCH   8  32
ATOM     32  O   UNL     1       1.600  -5.142  -2.826  0.00  0.00    -0.391 OA
ATOM     33  H   UNL     1       1.398  -5.169  -3.907  0.00  0.00    +0.210 HD
ENDBRANCH   8  32
TORSDOF 6
