REMARK  Name = ZINC01117334
REMARK  6 active torsions:
REMARK  status: ('A' for Active; 'I' for Inactive)
REMARK    1  A    between atoms: C_1  and  C_2
REMARK    2  A    between atoms: C_2  and  S_3
REMARK    3  A    between atoms: S_3  and  C_4
REMARK    4  A    between atoms: C_11  and  C_23
REMARK    5  A    between atoms: C_16  and  C_20
REMARK    6  A    between atoms: C_16  and  C_21
REMARK                            x       y       z     vdW  Elec       q    Type
REMARK                         _______ _______ _______ _____ _____    ______ ____
ROOT
ATOM      1  C   UNL     1       0.818  -2.359   1.317  0.00  0.00    +0.171 A 
ATOM      2  N   UNL     1       1.391  -3.136   2.278  0.00  0.00    -0.322 N 
ATOM      3  C   UNL     1       1.354  -4.502   2.171  0.00  0.00    +0.112 A 
ATOM      4  C   UNL     1       0.740  -5.068   1.097  0.00  0.00    +0.069 A 
ATOM      5  C   UNL     1       0.153  -4.228   0.126  0.00  0.00    +0.280 A 
ATOM      6  N   UNL     1       0.213  -2.896   0.278  0.00  0.00    -0.185 NA
ATOM      7  O   UNL     1      -0.411  -4.712  -0.845  0.00  0.00    -0.265 OA
ATOM      8  C   UNL     1       0.687  -6.559   0.937  0.00  0.00    +0.099 C 
ATOM      9  C   UNL     1       0.980  -7.261   2.239  0.00  0.00    +0.025 C 
ATOM     10  C   UNL     1       0.606  -8.611   2.360  0.00  0.00    +0.162 C 
ATOM     11  C   UNL     1       0.854  -9.377   3.630  0.00  0.00    +0.086 C 
ATOM     12  C   UNL     1       0.841  -8.402   4.812  0.00  0.00    -0.023 C 
ATOM     13  C   UNL     1       1.889  -7.317   4.556  0.00  0.00    +0.058 C 
ATOM     14  C   UNL     1       1.582  -6.612   3.258  0.00  0.00    +0.017 C 
ATOM     15  N   UNL     1       1.928  -5.293   3.138  0.00  0.00    -0.304 N 
ATOM     16  C   UNL     1      -0.543  -7.762   4.935  0.00  0.00    +0.011 C 
ATOM     17  C   UNL     1       1.182  -9.152   6.101  0.00  0.00    +0.011 C 
ATOM     18  O   UNL     1       0.073  -9.168   1.421  0.00  0.00    -0.292 OA
ATOM     19  H   UNL     1       2.586  -4.913   3.740  0.00  0.00    +0.153 HD
ATOM     20  H   UNL     1       1.827  -2.722   3.040  0.00  0.00    +0.169 HD
ENDROOT
BRANCH   8  21
ATOM     21  C   UNL     1       1.705  -6.981  -0.090  0.00  0.00    +0.002 A 
ATOM     22  C   UNL     1       1.514  -7.625  -1.267  0.00  0.00    +0.012 A 
ATOM     23  C   UNL     1       2.610  -7.914  -2.059  0.00  0.00    +0.008 A 
ATOM     24  C   UNL     1       3.843  -7.545  -1.635  0.00  0.00    +0.045 A 
ATOM     25  S   UNL     1       3.476  -6.757  -0.075  0.00  0.00    -0.101 S 
ENDBRANCH   8  21
BRANCH   1  26
ATOM     26  S   UNL     1       0.879  -0.605   1.472  0.00  0.00    -0.088 S 
BRANCH  26  28
ATOM     27  C   UNL     1      -0.019   1.526   0.010  0.00  0.00    +0.016 C 
ATOM     28  C   UNL     1       0.002  -0.004   0.002  0.00  0.00    +0.074 C 
ENDBRANCH  26  28
ENDBRANCH   1  26
TORSDOF 3
