REMARK  Name = ZINC60415280
REMARK  7 active torsions:
REMARK  status: ('A' for Active; 'I' for Inactive)
REMARK    1  A    between atoms: C_1  and  C_2
REMARK    2  A    between atoms: C_2  and  C_3
REMARK    3  A    between atoms: C_2  and  O_15
REMARK    4  A    between atoms: N_5  and  N_6
REMARK    5  A    between atoms: N_9  and  C_10
REMARK    6  A    between atoms: C_10  and  C_11
REMARK    7  A    between atoms: O_15  and  C_16
REMARK                            x       y       z     vdW  Elec       q    Type
REMARK                         _______ _______ _______ _____ _____    ______ ____
ROOT
ATOM      1  C   UNL     1       0.627  -0.284  -1.345  0.00  0.00    +0.270 C 
ATOM      2  O   UNL     1      -0.044  -0.756  -2.238  0.00  0.00    -0.270 OA
ATOM      3  N   UNL     1       1.928  -0.002  -1.556  0.00  0.00    -0.230 N 
ATOM      4  H   UNL     1       2.464   0.375  -0.841  0.00  0.00    +0.173 HD
ENDROOT
BRANCH   3   5
ATOM      5  N   UNL     1       2.505  -0.255  -2.807  0.00  0.00    -0.218 N 
ATOM      6  C   UNL     1       3.806   0.027  -3.017  0.00  0.00    +0.316 C 
ATOM      7  O   UNL     1       4.308  -0.192  -4.103  0.00  0.00    -0.251 OA
ATOM      8  N   UNL     1       4.551   0.552  -2.025  0.00  0.00    -0.290 N 
ATOM      9  H   UNL     1       1.969  -0.632  -3.521  0.00  0.00    +0.174 HD
ATOM     10  H   UNL     1       4.152   0.727  -1.158  0.00  0.00    +0.151 HD
BRANCH   8  11
ATOM     11  C   UNL     1       5.966   0.858  -2.254  0.00  0.00    +0.219 C 
BRANCH  11  12
ATOM     12  C   UNL     1       6.575   1.439  -0.976  0.00  0.00    +0.405 C 
ATOM     13  F   UNL     1       6.462   0.506   0.060  0.00  0.00    -0.169 F 
ATOM     14  F   UNL     1       7.926   1.732  -1.195  0.00  0.00    -0.169 F 
ATOM     15  F   UNL     1       5.895   2.610  -0.626  0.00  0.00    -0.169 F 
ENDBRANCH  11  12
ENDBRANCH   8  11
ENDBRANCH   3   5
BRANCH   1  17
ATOM     16  C   UNL     1       0.005   1.494   0.268  0.00  0.00    +0.062 C 
ATOM     17  C   UNL     1       0.005  -0.013   0.001  0.00  0.00    +0.257 C 
BRANCH  17  18
ATOM     18  O   UNL     1      -1.339  -0.499   0.012  0.00  0.00    -0.478 OA
BRANCH  18  19
ATOM     19  C   UNL     1      -1.869  -0.818   1.222  0.00  0.00    +0.140 A 
ATOM     20  C   UNL     1      -1.155  -0.562   2.383  0.00  0.00    +0.048 A 
ATOM     21  C   UNL     1      -1.696  -0.887   3.612  0.00  0.00    +0.023 A 
ATOM     22  C   UNL     1      -2.950  -1.468   3.686  0.00  0.00    +0.043 A 
ATOM     23  C   UNL     1      -3.665  -1.724   2.529  0.00  0.00    +0.043 A 
ATOM     24  C   UNL     1      -3.129  -1.395   1.298  0.00  0.00    +0.084 A 
ATOM     25 CL   UNL     1      -4.029  -1.711  -0.153  0.00  0.00    -0.080 Cl
ATOM     26 CL   UNL     1      -3.627  -1.875   5.232  0.00  0.00    -0.083 Cl
ENDBRANCH  18  19
ENDBRANCH  17  18
ENDBRANCH   1  17
TORSDOF 6
