REMARK  Name = ZINC08856939
REMARK  3 active torsions:
REMARK  status: ('A' for Active; 'I' for Inactive)
REMARK    1  A    between atoms: C_4  and  C_7
REMARK    2  A    between atoms: C_16  and  S_17
REMARK    3  A    between atoms: S_17  and  C_18
REMARK                            x       y       z     vdW  Elec       q    Type
REMARK                         _______ _______ _______ _____ _____    ______ ____
ROOT
ATOM      1  C   UNL     1       3.677  -0.785   0.023  0.00  0.00    +0.010 A 
ATOM      2  C   UNL     1       4.039  -1.686  -1.083  0.00  0.00    +0.007 A 
ATOM      3  C   UNL     1       3.120  -1.995  -2.089  0.00  0.00    +0.010 A 
ATOM      4  C   UNL     1       3.489  -2.841  -3.111  0.00  0.00    +0.001 A 
ATOM      5  C   UNL     1       4.765  -3.386  -3.145  0.00  0.00    +0.002 A 
ATOM      6  C   UNL     1       5.682  -3.090  -2.160  0.00  0.00    +0.026 A 
ATOM      7  C   UNL     1       5.331  -2.237  -1.118  0.00  0.00    +0.050 A 
ATOM      8  N   UNL     1       6.238  -1.930  -0.123  0.00  0.00    -0.321 N 
ATOM      9  C   UNL     1       5.916  -1.108   0.890  0.00  0.00    +0.264 A 
ATOM     10  C   UNL     1       4.635  -0.513   0.986  0.00  0.00    +0.088 A 
ATOM     11  O   UNL     1       6.749  -0.866   1.746  0.00  0.00    -0.267 OA
ATOM     12  H   UNL     1       7.127  -2.316  -0.156  0.00  0.00    +0.169 HD
ENDROOT
BRANCH   1  16
ATOM     13  C   UNL     1      -0.195   0.948   0.246  0.00  0.00    +0.000 A 
ATOM     14  C   UNL     1       0.906   1.751   0.005  0.00  0.00    +0.001 A 
ATOM     15  C   UNL     1       2.166   1.194  -0.069  0.00  0.00    +0.008 A 
ATOM     16  C   UNL     1       2.329  -0.181   0.101  0.00  0.00    -0.016 A 
ATOM     17  C   UNL     1       1.214  -0.986   0.344  0.00  0.00    +0.008 A 
ATOM     18  C   UNL     1      -0.041  -0.416   0.415  0.00  0.00    +0.001 A 
ENDBRANCH   1  16
BRANCH  10  19
ATOM     19  S   UNL     1       4.258   0.565   2.328  0.00  0.00    -0.042 S 
BRANCH  19  20
ATOM     20  C   UNL     1       4.314  -0.483   3.744  0.00  0.00    +0.216 A 
ATOM     21  N   UNL     1       4.017  -0.134   4.978  0.00  0.00    -0.207 NA
ATOM     22  C   UNL     1       4.170  -1.181   5.790  0.00  0.00    +0.248 A 
ATOM     23  N   UNL     1       4.565  -2.211   5.090  0.00  0.00    -0.135 NA
ATOM     24  N   UNL     1       4.662  -1.788   3.755  0.00  0.00    -0.121 NA
ENDBRANCH  19  20
ENDBRANCH  10  19
TORSDOF 3
