REMARK  Name = ZINC23634932
REMARK  9 active torsions:
REMARK  status: ('A' for Active; 'I' for Inactive)
REMARK    1  A    between atoms: C_1  and  C_2
REMARK    2  A    between atoms: C_8  and  N_10
REMARK    3  A    between atoms: C_14  and  C_16
REMARK    4  A    between atoms: C_16  and  S_17
REMARK    5  A    between atoms: S_17  and  C_18
REMARK    6  A    between atoms: C_21  and  C_24
REMARK    7  A    between atoms: N_22  and  N_23
REMARK    8  A    between atoms: C_27  and  O_30
REMARK    9  A    between atoms: O_30  and  C_31
REMARK                            x       y       z     vdW  Elec       q    Type
REMARK                         _______ _______ _______ _____ _____    ______ ____
ROOT
ATOM      1  C   UNL     1      -1.784  -0.712  -9.736  0.00  0.00    +0.209 A 
ATOM      2  N   UNL     1      -2.499   0.381  -9.596  0.00  0.00    -0.121 NA
ATOM      3  N   UNL     1      -3.061   0.687 -10.711  0.00  0.00    -0.127 NA
ATOM      4  C   UNL     1      -2.738  -0.191 -11.632  0.00  0.00    +0.182 A 
ATOM      5  N   UNL     1      -1.906  -1.112 -11.037  0.00  0.00    -0.224 N 
ENDROOT
BRANCH   4   6
ATOM      6  C   UNL     1      -3.180  -0.189 -13.042  0.00  0.00    +0.021 A 
ATOM      7  C   UNL     1      -3.017  -1.331 -13.829  0.00  0.00    +0.015 A 
ATOM      8  C   UNL     1      -3.435  -1.325 -15.143  0.00  0.00    +0.046 A 
ATOM      9  C   UNL     1      -4.007  -0.183 -15.687  0.00  0.00    +0.127 A 
ATOM     10  C   UNL     1      -4.165   0.957 -14.909  0.00  0.00    +0.046 A 
ATOM     11  C   UNL     1      -3.755   0.958 -13.593  0.00  0.00    +0.015 A 
BRANCH   9  12
ATOM     12  O   UNL     1      -4.412  -0.180 -16.984  0.00  0.00    -0.434 OA
BRANCH  12  13
ATOM     13  C   UNL     1      -4.220  -1.386 -17.726  0.00  0.00    +0.541 C 
ATOM     14  F   UNL     1      -2.857  -1.701 -17.759  0.00  0.00    -0.166 F 
ATOM     15  F   UNL     1      -4.925  -2.428 -17.114  0.00  0.00    -0.166 F 
ENDBRANCH  12  13
ENDBRANCH   9  12
ENDBRANCH   4   6
BRANCH   5  16
ATOM     16  N   UNL     1      -1.325  -2.200 -11.624  0.00  0.00    -0.295 N 
ATOM     17  H   UNL     1      -1.505  -2.412 -12.689  0.00  0.00    +0.163 HD
ATOM     18  H   UNL     1      -0.677  -2.864 -11.033  0.00  0.00    +0.163 HD
ENDBRANCH   5  16
BRANCH   1  19
ATOM     19  S   UNL     1      -0.837  -1.510  -8.482  0.00  0.00    -0.075 S 
BRANCH  19  20
ATOM     20  C   UNL     1      -1.169  -0.405  -7.088  0.00  0.00    +0.173 C 
BRANCH  20  25
ATOM     21  N   UNL     1       0.010  -0.012  -2.444  0.00  0.00    -0.296 N 
ATOM     22  C   UNL     1       0.111  -0.681  -3.609  0.00  0.00    +0.306 C 
ATOM     23  O   UNL     1       0.789  -1.687  -3.676  0.00  0.00    -0.252 OA
ATOM     24  N   UNL     1      -0.541  -0.235  -4.701  0.00  0.00    -0.239 N 
ATOM     25  C   UNL     1      -0.441  -0.904  -5.867  0.00  0.00    +0.231 C 
ATOM     26  O   UNL     1       0.236  -1.907  -5.933  0.00  0.00    -0.274 OA
ATOM     27  H   UNL     1      -0.605   0.898  -2.384  0.00  0.00    +0.151 HD
ATOM     28  H   UNL     1      -1.156   0.676  -4.641  0.00  0.00    +0.159 HD
BRANCH  21  35
ATOM     29  C   UNL     1      -1.433  -0.534   0.013  0.00  0.00    +0.009 C 
ATOM     30  C   UNL     1       0.002  -0.004   0.002  0.00  0.00    +0.006 C 
ATOM     31  C   UNL     1      -0.019   1.526   0.010  0.00  0.00    +0.005 C 
ATOM     32  C   UNL     1       1.417   2.055  -0.000  0.00  0.00    +0.000 C 
ATOM     33  C   UNL     1       2.133   1.562  -1.259  0.00  0.00    +0.002 C 
ATOM     34  C   UNL     1       2.154   0.032  -1.268  0.00  0.00    +0.022 C 
ATOM     35  C   UNL     1       0.718  -0.497  -1.257  0.00  0.00    +0.077 C 
ENDBRANCH  21  35
ENDBRANCH  20  25
ENDBRANCH  19  20
ENDBRANCH   1  19
TORSDOF 8
