REMARK  Name = ZINC01930389
REMARK  8 active torsions:
REMARK  status: ('A' for Active; 'I' for Inactive)
REMARK    1  A    between atoms: C_1  and  C_2
REMARK    2  A    between atoms: C_9  and  N_14
REMARK    3  A    between atoms: C_10  and  C_11
REMARK    4  A    between atoms: C_15  and  C_17
REMARK    5  A    between atoms: C_17  and  C_27
REMARK    6  A    between atoms: C_18  and  C_19
REMARK    7  A    between atoms: C_24  and  O_25
REMARK    8  A    between atoms: O_25  and  C_26
REMARK                            x       y       z     vdW  Elec       q    Type
REMARK                         _______ _______ _______ _____ _____    ______ ____
ROOT
ATOM      1  N   UNL     1       0.002   0.944  -0.277  0.00  0.00    -0.275 N 
ATOM      2  C   UNL     1       1.149   1.635  -0.125  0.00  0.00    +0.259 C 
ATOM      3  O   UNL     1       1.115   2.838   0.056  0.00  0.00    -0.269 OA
ATOM      4  H   UNL     1       0.029  -0.015  -0.421  0.00  0.00    +0.156 HD
ENDROOT
BRANCH   1  12
ATOM      5  C   UNL     1      -6.658   5.024   0.138  0.00  0.00    +0.008 C 
ATOM      6  C   UNL     1      -5.638   3.895   0.299  0.00  0.00    -0.009 C 
ATOM      7  C   UNL     1      -5.919   2.795  -0.729  0.00  0.00    +0.008 C 
ATOM      8  C   UNL     1      -5.070   1.562  -0.415  0.00  0.00    +0.037 C 
ATOM      9  C   UNL     1      -3.614   1.990  -0.283  0.00  0.00    -0.023 A 
ATOM     10  C   UNL     1      -3.285   3.282  -0.071  0.00  0.00    -0.004 A 
ATOM     11  S   UNL     1      -1.517   3.292   0.018  0.00  0.00    -0.077 S 
ATOM     12  C   UNL     1      -1.216   1.604  -0.232  0.00  0.00    +0.085 A 
ATOM     13  C   UNL     1      -2.490   1.072  -0.371  0.00  0.00    +0.068 A 
ATOM     14  C   UNL     1      -4.223   4.442   0.064  0.00  0.00    +0.046 C 
BRANCH  13  15
ATOM     15  C   UNL     1      -2.696  -0.361  -0.598  0.00  0.00    +0.244 C 
ATOM     16  O   UNL     1      -2.828  -1.115   0.348  0.00  0.00    -0.270 OA
ATOM     17  N   UNL     1      -2.738  -0.845  -1.855  0.00  0.00    -0.325 N 
ATOM     18  H   UNL     1      -2.632  -0.245  -2.610  0.00  0.00    +0.145 HD
ATOM     19  H   UNL     1      -2.874  -1.794  -2.006  0.00  0.00    +0.145 HD
ENDBRANCH  13  15
ENDBRANCH   1  12
BRANCH   2  20
ATOM     20  C   UNL     1       2.441   0.936  -0.179  0.00  0.00    +0.114 C 
ATOM     21  C   UNL     1       3.614   1.643  -0.024  0.00  0.00    +0.035 C 
BRANCH  21  22
ATOM     22  C   UNL     1       4.890   0.932   0.071  0.00  0.00    +0.018 A 
ATOM     23  C   UNL     1       4.951  -0.332   0.675  0.00  0.00    +0.011 A 
ATOM     24  C   UNL     1       6.155  -0.993   0.759  0.00  0.00    +0.001 A 
ATOM     25  C   UNL     1       7.309  -0.417   0.250  0.00  0.00    +0.004 A 
ATOM     26  C   UNL     1       7.266   0.828  -0.347  0.00  0.00    +0.046 A 
ATOM     27  C   UNL     1       6.063   1.509  -0.449  0.00  0.00    +0.127 A 
BRANCH  27  28
ATOM     28  O   UNL     1       6.018   2.729  -1.040  0.00  0.00    -0.495 OA
ATOM     29  C   UNL     1       7.250   3.251  -1.544  0.00  0.00    +0.277 C 
ENDBRANCH  27  28
ENDBRANCH  21  22
BRANCH  20  30
ATOM     30  C   UNL     1       2.481  -0.479  -0.392  0.00  0.00    +0.104 C 
ATOM     31  N   UNL     1       2.513  -1.602  -0.561  0.00  0.00    -0.191 NA
ENDBRANCH  20  30
ENDBRANCH   2  20
TORSDOF 6
