REMARK  Name = ZINC14467305
REMARK  8 active torsions:
REMARK  status: ('A' for Active; 'I' for Inactive)
REMARK    1  A    between atoms: C_1  and  C_2
REMARK    2  A    between atoms: C_2  and  C_3
REMARK    3  A    between atoms: C_2  and  C_4
REMARK    4  A    between atoms: C_2  and  N_5
REMARK    5  A    between atoms: N_5  and  S_6
REMARK    6  A    between atoms: S_6  and  C_9
REMARK    7  A    between atoms: C_22  and  C_25
REMARK    8  A    between atoms: C_30  and  O_31
REMARK                            x       y       z     vdW  Elec       q    Type
REMARK                         _______ _______ _______ _____ _____    ______ ____
ROOT
ATOM      1  C   UNL     1       0.156   0.010  -4.720  0.00  0.00    +0.106 A 
ATOM      2  C   UNL     1       1.422   0.318  -5.183  0.00  0.00    +0.030 A 
ATOM      3  C   UNL     1       2.461   0.499  -4.293  0.00  0.00    +0.025 A 
ATOM      4  C   UNL     1       2.244   0.372  -2.926  0.00  0.00    +0.031 A 
ATOM      5  C   UNL     1       0.957   0.074  -2.464  0.00  0.00    -0.018 A 
ATOM      6  C   UNL     1      -0.072  -0.111  -3.362  0.00  0.00    +0.034 A 
ATOM      7  C   UNL     1       0.760  -0.009  -1.001  0.00  0.00    +0.049 C 
ATOM      8  C   UNL     1      -0.320  -0.845  -0.416  0.00  0.00    -0.023 C 
ATOM      9  C   UNL     1       0.088  -1.303   0.761  0.00  0.00    -0.030 C 
ATOM     10  C   UNL     1       1.541  -0.822   1.053  0.00  0.00    +0.033 C 
ATOM     11  C   UNL     1       2.054  -0.613  -0.377  0.00  0.00    +0.029 C 
ATOM     12  C   UNL     1       3.130   0.440  -0.580  0.00  0.00    +0.109 C 
ATOM     13  N   UNL     1       3.317   0.542  -2.044  0.00  0.00    -0.336 N 
ATOM     14  H   UNL     1       4.200   0.730  -2.398  0.00  0.00    +0.147 HD
ENDROOT
BRANCH  12  15
ATOM     15  C   UNL     1       2.675   1.763  -0.020  0.00  0.00    +0.017 A 
ATOM     16  C   UNL     1       2.085   2.699  -0.849  0.00  0.00    +0.029 A 
ATOM     17  C   UNL     1       1.663   3.911  -0.335  0.00  0.00    +0.043 A 
ATOM     18  C   UNL     1       1.838   4.195   1.008  0.00  0.00    +0.043 A 
ATOM     19  C   UNL     1       2.432   3.264   1.840  0.00  0.00    +0.084 A 
ATOM     20  C   UNL     1       2.852   2.045   1.326  0.00  0.00    +0.140 A 
ATOM     21 CL   UNL     1       2.652   3.620   3.525  0.00  0.00    -0.080 Cl
ATOM     22 CL   UNL     1       0.917   5.082  -1.378  0.00  0.00    -0.083 Cl
BRANCH  20  23
ATOM     23  O   UNL     1       3.436   1.127   2.142  0.00  0.00    -0.505 OA
ATOM     24  H   UNL     1       4.398   1.209   2.201  0.00  0.00    +0.292 HD
ENDBRANCH  20  23
ENDBRANCH  12  15
BRANCH   1  25
ATOM     25  S   UNL     1      -1.166  -0.229  -5.860  0.00  0.00    +0.059 S 
ATOM     26  O   UNL     1      -2.327   0.327  -5.259  0.00  0.00    -0.153 OA
ATOM     27  O   UNL     1      -0.688   0.195  -7.130  0.00  0.00    -0.153 OA
BRANCH  25  28
ATOM     28  N   UNL     1      -1.426  -1.860  -5.973  0.00  0.00    -0.185 NA
ATOM     29  H   UNL     1      -2.254  -2.243  -5.643  0.00  0.00    +0.149 HD
BRANCH  28  31
ATOM     30  C   UNL     1       0.907  -2.573  -5.803  0.00  0.00    +0.029 C 
ATOM     31  C   UNL     1      -0.407  -2.725  -6.572  0.00  0.00    +0.032 C 
ATOM     32  C   UNL     1      -0.871  -4.182  -6.505  0.00  0.00    +0.029 C 
ATOM     33  C   UNL     1      -0.192  -2.325  -8.033  0.00  0.00    +0.029 C 
ENDBRANCH  28  31
ENDBRANCH  25  28
ENDBRANCH   1  25
TORSDOF 5
