REMARK  Name = ZINC19948416
REMARK  7 active torsions:
REMARK  status: ('A' for Active; 'I' for Inactive)
REMARK    1  A    between atoms: C_1  and  C_2
REMARK    2  A    between atoms: C_4  and  O_5
REMARK    3  A    between atoms: N_13  and  C_14
REMARK    4  A    between atoms: C_15  and  C_16
REMARK    5  A    between atoms: C_15  and  C_18
REMARK    6  A    between atoms: C_20  and  C_23
REMARK    7  A    between atoms: C_27  and  N_29
REMARK                            x       y       z     vdW  Elec       q    Type
REMARK                         _______ _______ _______ _____ _____    ______ ____
ROOT
ATOM      1  C   UNL     1       3.086   7.877  -0.179  0.00  0.00    +0.104 C 
ATOM      2  C   UNL     1       3.322   6.481  -0.216  0.00  0.00    +0.100 C 
ENDROOT
BRANCH   1  14
ATOM      3  C   UNL     1       4.279  15.237  -0.780  0.00  0.00    +0.045 C 
ATOM      4  C   UNL     1       3.156  14.257  -0.561  0.00  0.00    -0.033 A 
ATOM      5  C   UNL     1       1.873  14.684  -0.432  0.00  0.00    +0.091 A 
ATOM      6  C   UNL     1       0.838  13.746  -0.227  0.00  0.00    +0.285 A 
ATOM      7  O   UNL     1       1.084  12.429  -0.155  0.00  0.00    -0.425 OA
ATOM      8  C   UNL     1       2.337  11.938  -0.276  0.00  0.00    +0.141 A 
ATOM      9  C   UNL     1       3.417  12.818  -0.482  0.00  0.00    +0.021 A 
ATOM     10  C   UNL     1       4.719  12.315  -0.608  0.00  0.00    +0.014 A 
ATOM     11  C   UNL     1       4.938  10.972  -0.531  0.00  0.00    +0.026 A 
ATOM     12  C   UNL     1       3.871  10.092  -0.326  0.00  0.00    +0.043 A 
ATOM     13  C   UNL     1       2.572  10.575  -0.204  0.00  0.00    +0.072 A 
ATOM     14  N   UNL     1       4.108   8.728  -0.250  0.00  0.00    -0.360 N 
ATOM     15  H   UNL     1       5.140   8.348  -0.247  0.00  0.00    +0.165 HD
BRANCH   6  16
ATOM     16  O   UNL     1      -0.308  14.142  -0.113  0.00  0.00    -0.480 OA
ATOM     17  H   UNL     1      -1.125  13.423   0.047  0.00  0.00    +0.295 HD
ENDBRANCH   6  16
ENDBRANCH   1  14
BRANCH   2  18
ATOM     18  C   UNL     1       2.247   5.587  -0.141  0.00  0.00    +0.121 A 
ATOM     19  N   UNL     1       2.275   4.246  -0.156  0.00  0.00    -0.238 NA
ATOM     20  C   UNL     1       1.179   3.557  -0.082  0.00  0.00    +0.079 A 
ATOM     21  C   UNL     1      -0.083   4.319   0.028  0.00  0.00    +0.075 A 
ATOM     22  S   UNL     1       0.506   5.953   0.002  0.00  0.00    -0.074 S 
BRANCH  20  23
ATOM     23  C   UNL     1       1.191   2.082  -0.102  0.00  0.00    +0.003 A 
ATOM     24  C   UNL     1      -0.014   1.369  -0.120  0.00  0.00    +0.010 A 
ATOM     25  C   UNL     1       0.006  -0.009  -0.139  0.00  0.00    +0.003 A 
ATOM     26  C   UNL     1       1.214  -0.688  -0.139  0.00  0.00    +0.033 A 
ATOM     27  C   UNL     1       2.410   0.011  -0.122  0.00  0.00    +0.127 A 
ATOM     28  C   UNL     1       2.407   1.389  -0.102  0.00  0.00    +0.042 A 
BRANCH  27  29
ATOM     29  N   UNL     1       3.694  -0.725  -0.123  0.00  0.00    +0.056 N 
ATOM     30  O   UNL     1       3.699  -2.042  -0.141  0.00  0.00    -0.126 OA
ATOM     31  O   UNL     1       4.832  -0.063  -0.106  0.00  0.00    -0.126 OA
ENDBRANCH  27  29
ENDBRANCH  20  23
ENDBRANCH   2  18
BRANCH   2  32
ATOM     32  C   UNL     1       4.660   5.984  -0.328  0.00  0.00    +0.103 C 
ATOM     33  N   UNL     1       5.722   5.590  -0.418  0.00  0.00    -0.191 NA
ENDBRANCH   2  32
TORSDOF 6
