REMARK  Name = ZINC51331056
REMARK  7 active torsions:
REMARK  status: ('A' for Active; 'I' for Inactive)
REMARK    1  A    between atoms: C_1  and  C_2
REMARK    2  A    between atoms: C_2  and  O_3
REMARK    3  A    between atoms: O_3  and  C_4
REMARK    4  A    between atoms: C_7  and  C_10
REMARK    5  A    between atoms: C_13  and  C_24
REMARK    6  A    between atoms: C_19  and  N_23
REMARK    7  A    between atoms: C_20  and  C_21
REMARK                            x       y       z     vdW  Elec       q    Type
REMARK                         _______ _______ _______ _____ _____    ______ ____
ROOT
ATOM      1  C   UNL     1       1.133  -6.184   1.725  0.00  0.00    +0.102 C 
ATOM      2  C   UNL     1       0.596  -6.525   3.091  0.00  0.00    +0.054 A 
ATOM      3  C   UNL     1      -0.726  -6.520   3.548  0.00  0.00    +0.100 A 
ATOM      4  N   UNL     1      -0.718  -6.888   4.815  0.00  0.00    -0.171 NA
ATOM      5  N   UNL     1       0.610  -7.137   5.196  0.00  0.00    -0.246 N 
ATOM      6  H   UNL     1       0.907  -7.422   6.074  0.00  0.00    +0.192 HD
ATOM      7  C   UNL     1       1.399  -6.909   4.125  0.00  0.00    +0.223 A 
ATOM      8  O   UNL     1       2.746  -7.018   4.005  0.00  0.00    -0.423 OA
ATOM      9  C   UNL     1       3.265  -7.002   2.761  0.00  0.00    +0.200 C 
ATOM     10  C   UNL     1       2.573  -6.630   1.660  0.00  0.00    +0.098 C 
ENDROOT
BRANCH   3  11
ATOM     11  C   UNL     1      -1.925  -6.165   2.749  0.00  0.00    +0.004 A 
ATOM     12  C   UNL     1      -2.052  -6.622   1.439  0.00  0.00    +0.011 A 
ATOM     13  C   UNL     1      -3.169  -6.290   0.699  0.00  0.00    +0.022 A 
ATOM     14  C   UNL     1      -4.162  -5.502   1.256  0.00  0.00    +0.059 A 
ATOM     15  C   UNL     1      -4.040  -5.045   2.558  0.00  0.00    +0.060 A 
ATOM     16  C   UNL     1      -2.929  -5.378   3.308  0.00  0.00    +0.031 A 
ATOM     17 CL   UNL     1      -5.289  -4.058   3.251  0.00  0.00    -0.082 Cl
ATOM     18 CL   UNL     1      -5.564  -5.086   0.320  0.00  0.00    -0.082 Cl
ENDBRANCH   3  11
BRANCH   1  22
ATOM     19  C   UNL     1       0.900  -1.964   1.096  0.00  0.00    +0.121 A 
ATOM     20  C   UNL     1       0.295  -2.834   0.201  0.00  0.00    +0.046 A 
ATOM     21  C   UNL     1       0.372  -4.198   0.407  0.00  0.00    +0.008 A 
ATOM     22  C   UNL     1       1.051  -4.696   1.503  0.00  0.00    -0.034 A 
ATOM     23  C   UNL     1       1.655  -3.831   2.397  0.00  0.00    +0.008 A 
ATOM     24  C   UNL     1       1.586  -2.466   2.192  0.00  0.00    +0.046 A 
BRANCH  19  25
ATOM     25  O   UNL     1       0.826  -0.622   0.896  0.00  0.00    -0.492 OA
BRANCH  25  27
ATOM     26  C   UNL     1       0.129   1.353  -0.311  0.00  0.00    +0.048 C 
ATOM     27  C   UNL     1       0.104  -0.176  -0.254  0.00  0.00    +0.225 C 
ENDBRANCH  25  27
ENDBRANCH  19  25
ENDBRANCH   1  22
BRANCH   9  28
ATOM     28  N   UNL     1       4.573  -7.387   2.601  0.00  0.00    -0.328 N 
ATOM     29  H   UNL     1       5.096  -7.660   3.372  0.00  0.00    +0.145 HD
ATOM     30  H   UNL     1       4.975  -7.387   1.718  0.00  0.00    +0.145 HD
ENDBRANCH   9  28
BRANCH  10  31
ATOM     31  C   UNL     1       3.229  -6.659   0.388  0.00  0.00    +0.101 C 
ATOM     32  N   UNL     1       3.750  -6.682  -0.622  0.00  0.00    -0.191 NA
ENDBRANCH  10  31
TORSDOF 6
