REMARK  Name = ZINC15874839
REMARK  8 active torsions:
REMARK  status: ('A' for Active; 'I' for Inactive)
REMARK    1  A    between atoms: C_3  and  N_20
REMARK    2  A    between atoms: C_6  and  C_7
REMARK    3  A    between atoms: N_9  and  N_10
REMARK    4  A    between atoms: N_10  and  C_11
REMARK    5  A    between atoms: C_11  and  N_13
REMARK    6  A    between atoms: N_13  and  C_14
REMARK    7  A    between atoms: N_20  and  S_21
REMARK    8  A    between atoms: S_21  and  C_24
REMARK                            x       y       z     vdW  Elec       q    Type
REMARK                         _______ _______ _______ _____ _____    ______ ____
ROOT
ATOM      1  C   UNL     1       1.251  -2.247   2.256  0.00  0.00    +0.015 A 
ATOM      2  C   UNL     1       0.456  -1.655   1.301  0.00  0.00    +0.025 A 
ATOM      3  C   UNL     1       0.842  -0.448   0.723  0.00  0.00    +0.048 A 
ATOM      4  C   UNL     1       2.034   0.160   1.105  0.00  0.00    +0.025 A 
ATOM      5  C   UNL     1       2.830  -0.424   2.063  0.00  0.00    +0.015 A 
ATOM      6  C   UNL     1       2.446  -1.636   2.646  0.00  0.00    +0.038 A 
ENDROOT
BRANCH   6   7
ATOM      7  C   UNL     1       3.300  -2.267   3.670  0.00  0.00    +0.260 C 
ATOM      8  O   UNL     1       2.964  -3.321   4.176  0.00  0.00    -0.269 OA
ATOM      9  N   UNL     1       4.452  -1.677   4.044  0.00  0.00    -0.231 N 
ATOM     10  H   UNL     1       4.720  -0.837   3.641  0.00  0.00    +0.173 HD
BRANCH   9  11
ATOM     11  N   UNL     1       5.262  -2.277   5.017  0.00  0.00    -0.246 N 
ATOM     12  H   UNL     1       4.995  -3.117   5.420  0.00  0.00    +0.172 HD
BRANCH  11  13
ATOM     13  C   UNL     1       6.415  -1.686   5.391  0.00  0.00    +0.147 C 
ATOM     14  S   UNL     1       7.405  -2.419   6.580  0.00  0.00    -0.017 S 
BRANCH  13  15
ATOM     15  N   UNL     1       6.787  -0.519   4.830  0.00  0.00    -0.323 N 
ATOM     16  H   UNL     1       6.225  -0.103   4.157  0.00  0.00    +0.148 HD
BRANCH  15  17
ATOM     17  C   UNL     1       8.039   0.123   5.238  0.00  0.00    +0.072 C 
ATOM     18  C   UNL     1       7.795   0.971   6.488  0.00  0.00    +0.022 C 
ATOM     19  C   UNL     1       9.103   1.641   6.913  0.00  0.00    +0.002 C 
ATOM     20  C   UNL     1       9.608   2.537   5.781  0.00  0.00    +0.000 C 
ATOM     21  C   UNL     1       9.852   1.690   4.531  0.00  0.00    +0.002 C 
ATOM     22  C   UNL     1       8.545   1.020   4.105  0.00  0.00    +0.022 C 
ENDBRANCH  15  17
ENDBRANCH  13  15
ENDBRANCH  11  13
ENDBRANCH   9  11
ENDBRANCH   6   7
BRANCH   3  23
ATOM     23  N   UNL     1       0.037   0.147  -0.242  0.00  0.00    -0.216 N 
ATOM     24  H   UNL     1       0.293   0.111  -1.177  0.00  0.00    +0.174 HD
BRANCH  23  25
ATOM     25  S   UNL     1      -1.359   0.918   0.205  0.00  0.00    +0.072 S 
ATOM     26  O   UNL     1      -1.920   1.463  -0.981  0.00  0.00    -0.150 OA
ATOM     27  O   UNL     1      -2.071   0.017   1.041  0.00  0.00    -0.150 OA
BRANCH  25  28
ATOM     28  C   UNL     1      -0.898   2.285   1.217  0.00  0.00    +0.111 A 
ATOM     29  C   UNL     1      -0.902   2.158   2.594  0.00  0.00    +0.032 A 
ATOM     30  C   UNL     1      -0.536   3.227   3.390  0.00  0.00    +0.043 A 
ATOM     31  C   UNL     1      -0.174   4.430   2.809  0.00  0.00    +0.159 A 
ATOM     32  C   UNL     1      -0.174   4.559   1.428  0.00  0.00    +0.160 A 
ATOM     33  C   UNL     1      -0.537   3.485   0.634  0.00  0.00    +0.070 A 
ATOM     34  F   UNL     1       0.179   5.732   0.859  0.00  0.00    -0.202 F 
ATOM     35  F   UNL     1       0.180   5.477   3.586  0.00  0.00    -0.202 F 
ENDBRANCH  25  28
ENDBRANCH  23  25
ENDBRANCH   3  23
TORSDOF 8
