REMARK  Name = ZINC62365444
REMARK  4 active torsions:
REMARK  status: ('A' for Active; 'I' for Inactive)
REMARK    1  A    between atoms: C_2  and  N_18
REMARK    2  A    between atoms: C_4  and  S_9
REMARK    3  A    between atoms: S_9  and  C_10
REMARK    4  A    between atoms: C_11  and  N_17
REMARK                            x       y       z     vdW  Elec       q    Type
REMARK                         _______ _______ _______ _____ _____    ______ ____
ROOT
ATOM      1  C   UNL     1      -0.017   1.394   0.010  0.00  0.00    +0.113 A 
ATOM      2  C   UNL     1       1.191   2.078   0.002  0.00  0.00    +0.124 A 
ATOM      3  N   UNL     1       2.341   1.394  -0.013  0.00  0.00    -0.208 NA
ATOM      4  C   UNL     1       2.350   0.078  -0.020  0.00  0.00    +0.177 A 
ATOM      5  N   UNL     1       1.192  -0.639  -0.013  0.00  0.00    -0.302 N 
ATOM      6  H   UNL     1       1.224  -1.609  -0.018  0.00  0.00    +0.171 HD
ATOM      7  C   UNL     1       0.002  -0.004   0.002  0.00  0.00    +0.254 A 
ATOM      8  O   UNL     1      -1.041  -0.639   0.009  0.00  0.00    -0.268 OA
ENDROOT
BRANCH   2   9
ATOM      9  N   UNL     1       1.206   3.458   0.009  0.00  0.00    -0.343 N 
ATOM     10  H   UNL     1       0.371   3.952   0.019  0.00  0.00    +0.144 HD
ATOM     11  H   UNL     1       2.051   3.934   0.003  0.00  0.00    +0.144 HD
ENDBRANCH   2   9
BRANCH   4  12
ATOM     12  S   UNL     1       3.893  -0.774  -0.040  0.00  0.00    -0.030 S 
BRANCH  12  13
ATOM     13  C   UNL     1       5.092   0.517  -0.045  0.00  0.00    +0.130 A 
ATOM     14  C   UNL     1       6.460   0.217  -0.066  0.00  0.00    +0.095 A 
ATOM     15  C   UNL     1       7.363   1.273  -0.069  0.00  0.00    +0.154 A 
ATOM     16  N   UNL     1       6.902   2.516  -0.052  0.00  0.00    -0.222 NA
ATOM     17  C   UNL     1       5.607   2.760  -0.032  0.00  0.00    +0.224 A 
ATOM     18  N   UNL     1       4.714   1.790  -0.034  0.00  0.00    -0.227 NA
ATOM     19 CL   UNL     1       9.072   0.969  -0.094  0.00  0.00    -0.060 Cl
BRANCH  14  20
ATOM     20  N   UNL     1       6.906  -1.110  -0.083  0.00  0.00    -0.354 N 
ATOM     21  H   UNL     1       6.264  -1.837  -0.080  0.00  0.00    +0.142 HD
ATOM     22  H   UNL     1       7.856  -1.303  -0.097  0.00  0.00    +0.142 HD
ENDBRANCH  14  20
ENDBRANCH  12  13
ENDBRANCH   4  12
TORSDOF 4
