REMARK  Name = ZINC31167883
REMARK  6 active torsions:
REMARK  status: ('A' for Active; 'I' for Inactive)
REMARK    1  A    between atoms: C_1  and  C_2
REMARK    2  A    between atoms: C_4  and  O_31
REMARK    3  A    between atoms: C_7  and  C_25
REMARK    4  A    between atoms: C_7  and  C_28
REMARK    5  A    between atoms: C_22  and  O_24
REMARK    6  A    between atoms: C_28  and  O_30
REMARK                            x       y       z     vdW  Elec       q    Type
REMARK                         _______ _______ _______ _____ _____    ______ ____
ROOT
ATOM      1  C   UNL     1      -2.097  -0.531   1.485  0.00  0.00    +0.012 C 
ATOM      2  C   UNL     1      -2.156   0.979   1.286  0.00  0.00    -0.022 C 
ATOM      3  C   UNL     1      -2.640   1.621   2.598  0.00  0.00    +0.038 C 
ATOM      4  C   UNL     1      -1.625   1.352   3.706  0.00  0.00    +0.117 C 
ATOM      5  C   UNL     1      -0.289   1.999   3.363  0.00  0.00    +0.061 C 
ATOM      6  C   UNL     1       0.250   1.532   2.012  0.00  0.00    +0.173 C 
ATOM      7  C   UNL     1      -0.802   1.582   0.930  0.00  0.00    +0.023 C 
ATOM      8  C   UNL     1      -0.316   1.014  -0.402  0.00  0.00    +0.006 C 
ATOM      9  C   UNL     1      -1.260   1.536  -1.496  0.00  0.00    +0.010 C 
ATOM     10  C   UNL     1      -2.675   1.069  -1.231  0.00  0.00    +0.004 C 
ATOM     11  C   UNL     1      -3.148   1.337   0.185  0.00  0.00    +0.004 C 
ATOM     12  C   UNL     1      -4.550   0.818   0.444  0.00  0.00    +0.005 C 
ATOM     13  C   UNL     1      -4.864  -0.514  -0.219  0.00  0.00    +0.008 C 
ATOM     14  C   UNL     1      -4.380  -0.529  -1.672  0.00  0.00    +0.018 C 
ATOM     15  C   UNL     1      -2.833  -0.414  -1.627  0.00  0.00    +0.018 C 
ATOM     16  C   UNL     1      -4.817   0.762  -2.351  0.00  0.00    -0.045 C 
ATOM     17  C   UNL     1      -5.955   0.969  -2.965  0.00  0.00    +0.010 C 
ATOM     18  C   UNL     1      -3.683   1.760  -2.183  0.00  0.00    +0.147 C 
ENDROOT
BRANCH   6  19
ATOM     19  C   UNL     1       0.887   0.175   2.152  0.00  0.00    +0.373 C 
ATOM     20  O   UNL     1       0.539  -0.732   1.435  0.00  0.00    -0.245 OA
ATOM     21  O   UNL     1       1.842  -0.026   3.074  0.00  0.00    -0.245 OA
ENDBRANCH   6  19
BRANCH  18  22
ATOM     22  O   UNL     1      -3.060   2.024  -3.438  0.00  0.00    -0.387 OA
ATOM     23  H   UNL     1      -3.628   2.514  -4.243  0.00  0.00    +0.210 HD
ENDBRANCH  18  22
BRANCH   6  24
ATOM     24  C   UNL     1       1.363   2.508   1.639  0.00  0.00    +0.322 C 
ATOM     25  O   UNL     1       1.286   3.150   0.618  0.00  0.00    -0.250 OA
BRANCH  24  26
ATOM     26  O   UNL     1       2.427   2.653   2.444  0.00  0.00    -0.480 OA
ATOM     27  H   UNL     1       3.229   3.356   2.175  0.00  0.00    +0.295 HD
ENDBRANCH  24  26
ENDBRANCH   6  24
BRANCH   4  28
ATOM     28  O   UNL     1      -2.117   1.924   4.928  0.00  0.00    -0.392 OA
ATOM     29  H   UNL     1      -1.527   1.837   5.853  0.00  0.00    +0.210 HD
ENDBRANCH   4  28
TORSDOF 5
