REMARK  Name = ZINC01511290
REMARK  6 active torsions:
REMARK  status: ('A' for Active; 'I' for Inactive)
REMARK    1  A    between atoms: C_4  and  C_7
REMARK    2  A    between atoms: C_7  and  C_8
REMARK    3  A    between atoms: C_7  and  C_14
REMARK    4  A    between atoms: C_7  and  O_30
REMARK    5  A    between atoms: N_16  and  N_17
REMARK    6  A    between atoms: N_20  and  C_21
REMARK                            x       y       z     vdW  Elec       q    Type
REMARK                         _______ _______ _______ _____ _____    ______ ____
ROOT
ATOM      1  C   UNL     1      -0.236   3.099  -0.484  0.00  0.00    +0.270 C 
ATOM      2  O   UNL     1      -0.238   4.235  -0.059  0.00  0.00    -0.270 OA
ATOM      3  N   UNL     1       0.866   2.606  -1.083  0.00  0.00    -0.230 N 
ATOM      4  H   UNL     1       0.868   1.698  -1.423  0.00  0.00    +0.173 HD
ENDROOT
BRANCH   3   5
ATOM      5  N   UNL     1       2.009   3.405  -1.214  0.00  0.00    -0.218 N 
ATOM      6  C   UNL     1       3.111   2.912  -1.813  0.00  0.00    +0.320 C 
ATOM      7  O   UNL     1       4.103   3.606  -1.927  0.00  0.00    -0.251 OA
ATOM      8  N   UNL     1       3.114   1.650  -2.286  0.00  0.00    -0.268 N 
ATOM      9  H   UNL     1       2.007   4.314  -0.874  0.00  0.00    +0.174 HD
ATOM     10  H   UNL     1       2.353   1.070  -2.123  0.00  0.00    +0.156 HD
BRANCH   8  11
ATOM     11  C   UNL     1       4.220   1.173  -3.015  0.00  0.00    +0.045 A 
ATOM     12  C   UNL     1       5.218   2.021  -3.366  0.00  0.00    +0.069 A 
ATOM     13  S   UNL     1       6.332   0.935  -4.246  0.00  0.00    -0.099 S 
ATOM     14  C   UNL     1       5.391  -0.558  -4.082  0.00  0.00    -0.005 A 
ATOM     15  C   UNL     1       4.293  -0.176  -3.374  0.00  0.00    -0.016 A 
ATOM     16  C   UNL     1       3.210  -1.193  -3.026  0.00  0.00    +0.038 C 
ATOM     17  C   UNL     1       3.358  -2.408  -3.943  0.00  0.00    +0.005 C 
ATOM     18  C   UNL     1       4.795  -2.934  -3.887  0.00  0.00    +0.005 C 
ATOM     19  C   UNL     1       5.717  -1.925  -4.589  0.00  0.00    +0.043 C 
ENDBRANCH   8  11
ENDBRANCH   3   5
BRANCH   1  20
ATOM     20  C   UNL     1      -1.468   2.242  -0.348  0.00  0.00    +0.194 C 
BRANCH  20  24
ATOM     21  C   UNL     1      -3.794   3.604   2.965  0.00  0.00    +0.000 A 
ATOM     22  C   UNL     1      -4.390   3.421   1.731  0.00  0.00    +0.000 A 
ATOM     23  C   UNL     1      -3.637   2.980   0.659  0.00  0.00    +0.007 A 
ATOM     24  C   UNL     1      -2.288   2.723   0.821  0.00  0.00    -0.003 A 
ATOM     25  C   UNL     1      -1.694   2.901   2.056  0.00  0.00    +0.007 A 
ATOM     26  C   UNL     1      -2.445   3.346   3.127  0.00  0.00    +0.000 A 
ENDBRANCH  20  24
BRANCH  20  27
ATOM     27  C   UNL     1      -2.287   2.336  -1.610  0.00  0.00    -0.003 A 
ATOM     28  C   UNL     1      -2.393   3.542  -2.276  0.00  0.00    +0.007 A 
ATOM     29  C   UNL     1      -3.141   3.628  -3.436  0.00  0.00    +0.000 A 
ATOM     30  C   UNL     1      -3.790   2.509  -3.924  0.00  0.00    +0.000 A 
ATOM     31  C   UNL     1      -3.688   1.304  -3.254  0.00  0.00    +0.000 A 
ATOM     32  C   UNL     1      -2.937   1.218  -2.097  0.00  0.00    +0.007 A 
ENDBRANCH  20  27
BRANCH  20  33
ATOM     33  O   UNL     1      -1.081   0.883  -0.132  0.00  0.00    -0.371 OA
ATOM     34  H   UNL     1      -0.549   0.748   0.664  0.00  0.00    +0.212 HD
ENDBRANCH  20  33
ENDBRANCH   1  20
TORSDOF 6
