REMARK  Name = ZINC09389674
REMARK  9 active torsions:
REMARK  status: ('A' for Active; 'I' for Inactive)
REMARK    1  A    between atoms: C_1  and  C_2
REMARK    2  A    between atoms: C_2  and  N_3
REMARK    3  A    between atoms: N_3  and  C_4
REMARK    4  A    between atoms: C_4  and  C_5
REMARK    5  A    between atoms: C_16  and  C_18
REMARK    6  A    between atoms: C_18  and  N_19
REMARK    7  A    between atoms: C_22  and  C_26
REMARK    8  A    between atoms: C_22  and  C_27
REMARK    9  A    between atoms: C_31  and  N_33
REMARK                            x       y       z     vdW  Elec       q    Type
REMARK                         _______ _______ _______ _____ _____    ______ ____
ROOT
ATOM      1  N   UNL     1      -2.534   7.192   1.811  0.00  0.00    -0.215 N 
ATOM      2  C   UNL     1      -3.080   6.546   0.762  0.00  0.00    +0.251 C 
ATOM      3  O   UNL     1      -4.253   6.505   0.457  0.00  0.00    -0.272 OA
ATOM      4  C   UNL     1      -1.923   5.881   0.043  0.00  0.00    +0.135 C 
ATOM      5  N   UNL     1      -0.749   6.265   0.846  0.00  0.00    -0.281 N 
ATOM      6  C   UNL     1      -1.206   7.028   1.855  0.00  0.00    +0.310 C 
ATOM      7  O   UNL     1      -0.493   7.516   2.710  0.00  0.00    -0.252 OA
ATOM      8  C   UNL     1      -1.800   6.413  -1.386  0.00  0.00    +0.047 C 
ATOM      9  H   UNL     1       0.173   6.015   0.680  0.00  0.00    +0.152 HD
ENDROOT
BRANCH   4  10
ATOM     10  C   UNL     1      -2.094   4.383   0.036  0.00  0.00    -0.014 A 
ATOM     11  C   UNL     1      -3.363   3.833   0.040  0.00  0.00    +0.006 A 
ATOM     12  C   UNL     1      -3.524   2.460   0.033  0.00  0.00    +0.002 A 
ATOM     13  C   UNL     1      -2.417   1.633   0.017  0.00  0.00    +0.028 A 
ATOM     14  C   UNL     1      -1.142   2.183   0.020  0.00  0.00    +0.069 A 
ATOM     15  C   UNL     1      -0.984   3.562   0.026  0.00  0.00    +0.034 A 
BRANCH  14  16
ATOM     16  N   UNL     1      -0.016   1.347   0.009  0.00  0.00    -0.200 N 
ATOM     17  C   UNL     1       0.002  -0.004   0.002  0.00  0.00    +0.250 A 
ATOM     18  N   UNL     1       1.256  -0.375  -0.012  0.00  0.00    -0.116 NA
ATOM     19  N   UNL     1       2.031   0.648  -0.014  0.00  0.00    -0.023 NA
ATOM     20  N   UNL     1       1.335   1.734  -0.001  0.00  0.00    -0.039 NA
ENDBRANCH  14  16
ENDBRANCH   4  10
BRANCH   1  21
ATOM     21  C   UNL     1      -3.299   7.975   2.785  0.00  0.00    +0.213 C 
BRANCH  21  23
ATOM     22  N   UNL     1      -4.450   7.590   4.940  0.00  0.00    -0.297 N 
ATOM     23  C   UNL     1      -3.729   7.083   3.920  0.00  0.00    +0.234 C 
ATOM     24  O   UNL     1      -3.427   5.909   3.917  0.00  0.00    -0.274 OA
BRANCH  22  26
ATOM     25  C   UNL     1      -6.161   9.191   4.238  0.00  0.00    +0.024 C 
ATOM     26  C   UNL     1      -4.816   9.009   4.944  0.00  0.00    +0.104 C 
ENDBRANCH  22  26
BRANCH  22  27
ATOM     27  C   UNL     1      -4.869   6.723   6.044  0.00  0.00    +0.155 C 
BRANCH  27  28
ATOM     28  C   UNL     1      -3.796   6.733   7.135  0.00  0.00    +0.228 C 
ATOM     29  C   UNL     1      -4.170   5.731   8.236  0.00  0.00    +0.275 C 
ATOM     30  O   UNL     1      -3.154   5.776   9.245  0.00  0.00    -0.485 OA
ATOM     31  C   UNL     1      -2.755   7.010   9.656  0.00  0.00    +0.162 A 
ATOM     32  C   UNL     1      -2.062   7.138  10.851  0.00  0.00    +0.049 A 
ATOM     33  C   UNL     1      -1.647   8.385  11.280  0.00  0.00    +0.004 A 
ATOM     34  C   UNL     1      -1.921   9.507  10.521  0.00  0.00    +0.004 A 
ATOM     35  C   UNL     1      -2.611   9.386   9.330  0.00  0.00    +0.049 A 
ATOM     36  C   UNL     1      -3.032   8.139   8.894  0.00  0.00    +0.163 A 
ATOM     37  O   UNL     1      -3.717   8.036   7.722  0.00  0.00    -0.480 OA
ENDBRANCH  27  28
ENDBRANCH  22  27
ENDBRANCH  21  23
ENDBRANCH   1  21
TORSDOF 7
