REMARK  Name = ZINC58681038
REMARK  8 active torsions:
REMARK  status: ('A' for Active; 'I' for Inactive)
REMARK    1  A    between atoms: C_1  and  C_2
REMARK    2  A    between atoms: C_3  and  C_28
REMARK    3  A    between atoms: C_7  and  N_27
REMARK    4  A    between atoms: C_9  and  S_11
REMARK    5  A    between atoms: S_11  and  C_12
REMARK    6  A    between atoms: C_12  and  C_14
REMARK    7  A    between atoms: C_12  and  C_15
REMARK    8  A    between atoms: N_17  and  C_18
REMARK                            x       y       z     vdW  Elec       q    Type
REMARK                         _______ _______ _______ _____ _____    ______ ____
ROOT
ATOM      1  S   UNL     1      -1.014  -3.473   4.910  0.00  0.00    -0.073 S 
ENDROOT
BRANCH   1  10
ATOM      2  C   UNL     1      -0.671   1.385  -0.021  0.00  0.00    +0.045 C 
ATOM      3  C   UNL     1      -1.305   0.027   0.130  0.00  0.00    -0.028 A 
ATOM      4  C   UNL     1      -2.013  -0.506  -0.876  0.00  0.00    -0.008 A 
ATOM      5  S   UNL     1      -2.542  -2.080  -0.227  0.00  0.00    -0.073 S 
ATOM      6  C   UNL     1      -1.796  -1.980   1.379  0.00  0.00    +0.115 A 
ATOM      7  C   UNL     1      -1.151  -0.724   1.364  0.00  0.00    +0.050 A 
ATOM      8  C   UNL     1      -0.453  -0.380   2.555  0.00  0.00    +0.129 A 
ATOM      9  N   UNL     1      -0.445  -1.228   3.570  0.00  0.00    -0.207 NA
ATOM     10  C   UNL     1      -1.071  -2.398   3.516  0.00  0.00    +0.192 A 
ATOM     11  N   UNL     1      -1.746  -2.768   2.435  0.00  0.00    -0.214 NA
ATOM     12  C   UNL     1      -2.296   0.085  -2.233  0.00  0.00    +0.052 C 
BRANCH   8  13
ATOM     13  N   UNL     1       0.212   0.829   2.650  0.00  0.00    -0.343 N 
ATOM     14  H   UNL     1       0.144   1.478   1.933  0.00  0.00    +0.144 HD
ATOM     15  H   UNL     1       0.746   1.029   3.435  0.00  0.00    +0.144 HD
ENDBRANCH   8  13
ENDBRANCH   1  10
BRANCH   1  16
ATOM     16  C   UNL     1      -0.016  -2.567   6.124  0.00  0.00    +0.137 C 
ATOM     17  C   UNL     1       1.411  -2.409   5.595  0.00  0.00    +0.029 C 
BRANCH  16  18
ATOM     18  C   UNL     1       0.010  -3.329   7.423  0.00  0.00    +0.230 C 
ATOM     19  O   UNL     1      -0.166  -4.529   7.425  0.00  0.00    -0.274 OA
ATOM     20  N   UNL     1       0.230  -2.678   8.582  0.00  0.00    -0.282 N 
ATOM     21  H   UNL     1       0.314  -1.712   8.588  0.00  0.00    +0.155 HD
BRANCH  20  22
ATOM     22  C   UNL     1       0.337  -3.397   9.780  0.00  0.00    +0.071 A 
ATOM     23  C   UNL     1       1.057  -4.584   9.817  0.00  0.00    +0.065 A 
ATOM     24  C   UNL     1       1.162  -5.291  11.000  0.00  0.00    +0.042 A 
ATOM     25  C   UNL     1       0.549  -4.818  12.147  0.00  0.00    +0.044 A 
ATOM     26  C   UNL     1      -0.169  -3.635  12.113  0.00  0.00    +0.042 A 
ATOM     27  C   UNL     1      -0.272  -2.921  10.934  0.00  0.00    +0.065 A 
ATOM     28 CL   UNL     1      -1.168  -1.435  10.894  0.00  0.00    -0.082 Cl
ATOM     29 CL   UNL     1       0.681  -5.709  13.631  0.00  0.00    -0.083 Cl
ATOM     30 CL   UNL     1       1.825  -5.180   8.379  0.00  0.00    -0.082 Cl
ENDBRANCH  20  22
ENDBRANCH  16  18
ENDBRANCH   1  16
TORSDOF 5
