REMARK  Name = ZINC36572821
REMARK  15 active torsions:
REMARK  status: ('A' for Active; 'I' for Inactive)
REMARK    1  A    between atoms: C_1  and  C_2
REMARK    2  A    between atoms: C_2  and  C_3
REMARK    3  A    between atoms: C_3  and  N_4
REMARK    4  A    between atoms: N_4  and  C_5
REMARK    5  A    between atoms: C_5  and  C_7
REMARK    6  A    between atoms: C_5  and  C_16
REMARK    7  A    between atoms: C_8  and  O_15
REMARK    8  A    between atoms: C_10  and  O_14
REMARK    9  A    between atoms: C_12  and  O_13
REMARK   10  A    between atoms: N_18  and  C_19
REMARK   11  A    between atoms: C_19  and  C_20
REMARK   12  A    between atoms: C_19  and  C_21
REMARK   13  A    between atoms: C_19  and  C_22
REMARK   14  A    between atoms: C_23  and  C_25
REMARK   15  A    between atoms: C_25  and  C_26
REMARK                            x       y       z     vdW  Elec       q    Type
REMARK                         _______ _______ _______ _____ _____    ______ ____
ROOT
ATOM      1  C   UNL     1      -0.156  -2.678  -2.000  0.00  0.00    +0.199 C 
ENDROOT
BRANCH   1   2
ATOM      2  C   UNL     1      -0.045  -2.596  -3.500  0.00  0.00    +0.065 A 
ATOM      3  C   UNL     1       0.044  -3.757  -4.253  0.00  0.00    +0.129 A 
ATOM      4  C   UNL     1       0.146  -3.682  -5.635  0.00  0.00    +0.091 A 
ATOM      5  C   UNL     1       0.157  -2.445  -6.262  0.00  0.00    +0.124 A 
ATOM      6  C   UNL     1       0.067  -1.284  -5.509  0.00  0.00    +0.091 A 
ATOM      7  C   UNL     1      -0.039  -1.360  -4.128  0.00  0.00    +0.129 A 
BRANCH   7   8
ATOM      8  O   UNL     1      -0.133  -0.223  -3.391  0.00  0.00    -0.506 OA
ATOM      9  H   UNL     1       0.720   0.136  -3.111  0.00  0.00    +0.292 HD
ENDBRANCH   7   8
BRANCH   5  10
ATOM     10  O   UNL     1       0.258  -2.371  -7.615  0.00  0.00    -0.507 OA
ATOM     11  H   UNL     1      -0.594  -2.376  -8.074  0.00  0.00    +0.292 HD
ENDBRANCH   5  10
BRANCH   3  12
ATOM     12  O   UNL     1       0.034  -4.969  -3.638  0.00  0.00    -0.506 OA
ATOM     13  H   UNL     1      -0.840  -5.381  -3.596  0.00  0.00    +0.292 HD
ENDBRANCH   3  12
ENDBRANCH   1   2
BRANCH   1  14
ATOM     14  C   UNL     1      -1.583  -2.425  -1.586  0.00  0.00    +0.239 C 
ATOM     15  O   UNL     1      -1.837  -1.544  -0.793  0.00  0.00    -0.273 OA
ATOM     16  N   UNL     1      -2.576  -3.179  -2.098  0.00  0.00    -0.309 N 
ATOM     17  H   UNL     1      -2.373  -3.884  -2.732  0.00  0.00    +0.149 HD
BRANCH  16  18
ATOM     18  C   UNL     1      -3.963  -2.933  -1.696  0.00  0.00    +0.026 C 
ATOM     19  C   UNL     1      -4.356  -1.501  -2.068  0.00  0.00    +0.031 C 
ATOM     20  C   UNL     1      -4.886  -3.918  -2.417  0.00  0.00    +0.031 C 
ATOM     21  C   UNL     1      -4.097  -3.122  -0.184  0.00  0.00    +0.031 C 
ENDBRANCH  16  18
ENDBRANCH   1  14
BRANCH   1  22
ATOM     22  N   UNL     1       0.715  -1.671  -1.390  0.00  0.00    -0.285 N 
ATOM     23  C   UNL     1       2.040  -1.897  -1.290  0.00  0.00    +0.221 C 
ATOM     24  O   UNL     1       2.511  -2.934  -1.705  0.00  0.00    -0.275 OA
BRANCH  22  25
ATOM     25  C   UNL     1       0.146  -0.417  -0.889  0.00  0.00    +0.108 C 
BRANCH  25  27
ATOM     26  C   UNL     1      -0.897   0.685   1.096  0.00  0.00    +0.005 C 
ATOM     27  C   UNL     1      -0.124  -0.543   0.612  0.00  0.00    +0.016 C 
ENDBRANCH  25  27
ENDBRANCH  22  25
BRANCH  23  28
ATOM     28  C   UNL     1       2.936  -0.860  -0.663  0.00  0.00    +0.131 C 
BRANCH  28  29
ATOM     29  C   UNL     1       4.360  -1.354  -0.674  0.00  0.00    -0.035 A 
ATOM     30  C   UNL     1       4.843  -2.090   0.393  0.00  0.00    +0.008 A 
ATOM     31  C   UNL     1       6.148  -2.545   0.387  0.00  0.00    +0.050 A 
ATOM     32  C   UNL     1       6.976  -2.265  -0.688  0.00  0.00    +0.166 A 
ATOM     33  C   UNL     1       6.490  -1.523  -1.762  0.00  0.00    +0.166 A 
ATOM     34  C   UNL     1       5.179  -1.075  -1.752  0.00  0.00    +0.053 A 
ATOM     35  O   UNL     1       7.487  -1.384  -2.683  0.00  0.00    -0.453 OA
ATOM     36  C   UNL     1       8.705  -1.696  -1.981  0.00  0.00    +0.466 C 
ATOM     37  O   UNL     1       8.278  -2.590  -0.936  0.00  0.00    -0.453 OA
ENDBRANCH  28  29
ENDBRANCH  23  28
ENDBRANCH   1  22
TORSDOF 11
