REMARK  Name = ZINC46899131
REMARK  6 active torsions:
REMARK  status: ('A' for Active; 'I' for Inactive)
REMARK    1  A    between atoms: C_8  and  C_11
REMARK    2  A    between atoms: N_13  and  C_14
REMARK    3  A    between atoms: C_14  and  C_15
REMARK    4  A    between atoms: N_20  and  S_23
REMARK    5  A    between atoms: S_23  and  C_26
REMARK    6  A    between atoms: C_31  and  N_32
REMARK                            x       y       z     vdW  Elec       q    Type
REMARK                         _______ _______ _______ _____ _____    ______ ____
ROOT
ATOM      1  C   UNL     1       2.378  -7.273   0.723  0.00  0.00    +0.233 C 
ATOM      2  O   UNL     1       1.554  -6.392   0.595  0.00  0.00    -0.274 OA
ATOM      3  N   UNL     1       1.987  -8.563   0.742  0.00  0.00    -0.298 N 
ATOM      4  C   UNL     1       2.973  -9.641   0.902  0.00  0.00    +0.125 C 
ATOM      5  C   UNL     1       2.564 -10.505   2.101  0.00  0.00    +0.128 C 
ATOM      6  N   UNL     1       1.145 -10.859   1.963  0.00  0.00    -0.174 NA
ATOM      7  C   UNL     1       0.159  -9.781   1.802  0.00  0.00    +0.128 C 
ATOM      8  C   UNL     1       0.567  -8.916   0.609  0.00  0.00    +0.125 C 
ENDROOT
BRANCH   6   9
ATOM      9  S   UNL     1       0.665 -12.443   1.986  0.00  0.00    +0.063 S 
ATOM     10  O   UNL     1      -0.530 -12.517   1.221  0.00  0.00    -0.153 OA
ATOM     11  O   UNL     1       1.815 -13.220   1.680  0.00  0.00    -0.153 OA
BRANCH   9  12
ATOM     12  C   UNL     1       0.224 -12.830   3.648  0.00  0.00    +0.136 A 
ATOM     13  C   UNL     1       0.043 -11.815   4.569  0.00  0.00    +0.031 A 
ATOM     14  C   UNL     1      -0.303 -12.118   5.872  0.00  0.00    +0.002 A 
ATOM     15  C   UNL     1      -0.468 -13.436   6.255  0.00  0.00    +0.002 A 
ATOM     16  C   UNL     1      -0.288 -14.451   5.334  0.00  0.00    +0.035 A 
ATOM     17  C   UNL     1       0.054 -14.147   4.029  0.00  0.00    +0.152 A 
BRANCH  17  18
ATOM     18  N   UNL     1       0.241 -15.234   3.041  0.00  0.00    +0.058 N 
ATOM     19  O   UNL     1       0.223 -16.388   3.401  0.00  0.00    -0.126 OA
ATOM     20  O   UNL     1       0.413 -14.967   1.875  0.00  0.00    -0.126 OA
ENDBRANCH  17  18
ENDBRANCH   9  12
ENDBRANCH   6   9
BRANCH   1  21
ATOM     21  C   UNL     1       3.838  -6.926   0.860  0.00  0.00    +0.200 C 
BRANCH  21  24
ATOM     22  C   UNL     1       5.229  -4.926   0.913  0.00  0.00    +0.250 C 
ATOM     23  O   UNL     1       6.210  -5.643   0.960  0.00  0.00    -0.270 OA
ATOM     24  N   UNL     1       4.000  -5.471   0.810  0.00  0.00    -0.303 N 
ATOM     25  H   UNL     1       3.224  -4.899   0.701  0.00  0.00    +0.150 HD
BRANCH  22  33
ATOM     26  C   UNL     1       3.686   1.136   0.706  0.00  0.00    +0.001 A 
ATOM     27  C   UNL     1       4.970   1.589   0.976  0.00  0.00    +0.002 A 
ATOM     28  C   UNL     1       6.004   0.699   1.171  0.00  0.00    +0.026 A 
ATOM     29  C   UNL     1       5.765  -0.671   1.098  0.00  0.00    +0.050 A 
ATOM     30  C   UNL     1       4.465  -1.127   0.825  0.00  0.00    +0.046 A 
ATOM     31  C   UNL     1       3.428  -0.215   0.630  0.00  0.00    +0.014 A 
ATOM     32  C   UNL     1       4.226  -2.581   0.750  0.00  0.00    +0.201 A 
ATOM     33  C   UNL     1       5.383  -3.463   0.970  0.00  0.00    +0.100 A 
ATOM     34  C   UNL     1       6.613  -2.898   1.231  0.00  0.00    +0.100 A 
ATOM     35  N   UNL     1       6.791  -1.571   1.291  0.00  0.00    -0.360 N 
ATOM     36  O   UNL     1       3.118  -3.031   0.517  0.00  0.00    -0.286 OA
ATOM     37  H   UNL     1       7.679  -1.230   1.478  0.00  0.00    +0.165 HD
ENDBRANCH  22  33
ENDBRANCH  21  24
ENDBRANCH   1  21
TORSDOF 6
