REMARK  Name = ZINC21364381
REMARK  13 active torsions:
REMARK  status: ('A' for Active; 'I' for Inactive)
REMARK    1  A    between atoms: C_1  and  C_2
REMARK    2  A    between atoms: C_5  and  C_30
REMARK    3  A    between atoms: C_7  and  S_8
REMARK    4  A    between atoms: S_8  and  N_11
REMARK    5  A    between atoms: N_11  and  C_12
REMARK    6  A    between atoms: C_15  and  C_18
REMARK    7  A    between atoms: C_18  and  O_20
REMARK    8  A    between atoms: O_20  and  C_21
REMARK    9  A    between atoms: C_21  and  C_23
REMARK   10  A    between atoms: C_21  and  C_24
REMARK   11  A    between atoms: C_30  and  C_31
REMARK   12  A    between atoms: C_30  and  C_32
REMARK   13  A    between atoms: C_30  and  C_33
REMARK                            x       y       z     vdW  Elec       q    Type
REMARK                         _______ _______ _______ _____ _____    ______ ____
ROOT
ATOM      1  C   UNL     1       0.128   1.442   0.029  0.00  0.00    +0.048 A 
ATOM      2  C   UNL     1       1.277   2.226   0.103  0.00  0.00    +0.025 A 
ATOM      3  C   UNL     1       2.514   1.634   0.106  0.00  0.00    +0.017 A 
ATOM      4  C   UNL     1       2.620   0.241   0.035  0.00  0.00    +0.059 A 
ATOM      5  C   UNL     1       1.465  -0.543  -0.040  0.00  0.00    +0.017 A 
ATOM      6  C   UNL     1       0.231   0.056  -0.042  0.00  0.00    +0.025 A 
ENDROOT
BRANCH   1   7
ATOM      7  N   UNL     1      -1.124   2.046   0.020  0.00  0.00    -0.216 N 
ATOM      8  H   UNL     1      -1.882   1.730  -0.711  0.00  0.00    +0.174 HD
BRANCH   7   9
ATOM      9  S   UNL     1      -1.474   3.241   1.112  0.00  0.00    +0.073 S 
ATOM     10  O   UNL     1      -0.435   4.205   1.006  0.00  0.00    -0.150 OA
ATOM     11  O   UNL     1      -2.843   3.573   0.925  0.00  0.00    -0.150 OA
BRANCH   9  18
ATOM     12  C   UNL     1      -3.240   1.009   2.135  0.00  0.00    +0.046 C 
ATOM     13  C   UNL     1      -2.196   1.514   3.098  0.00  0.00    -0.024 A 
ATOM     14  C   UNL     1      -2.090   0.956   4.358  0.00  0.00    +0.005 A 
ATOM     15  C   UNL     1      -1.137   1.423   5.244  0.00  0.00    +0.004 A 
ATOM     16  C   UNL     1      -0.287   2.446   4.867  0.00  0.00    -0.040 A 
ATOM     17  C   UNL     1      -0.389   3.001   3.605  0.00  0.00    +0.033 A 
ATOM     18  C   UNL     1      -1.343   2.534   2.720  0.00  0.00    +0.112 A 
BRANCH  16  19
ATOM     19  C   UNL     1       0.752   2.956   5.832  0.00  0.00    -0.013 C 
ATOM     20  C   UNL     1       0.512   4.443   6.101  0.00  0.00    +0.015 C 
ATOM     21  C   UNL     1       0.654   2.178   7.146  0.00  0.00    +0.015 C 
ATOM     22  C   UNL     1       2.146   2.765   5.229  0.00  0.00    +0.015 C 
ENDBRANCH  16  19
ENDBRANCH   9  18
ENDBRANCH   7   9
ENDBRANCH   1   7
BRANCH   4  23
ATOM     23  C   UNL     1       3.948  -0.399   0.038  0.00  0.00    +0.340 C 
ATOM     24  O   UNL     1       4.040  -1.609  -0.024  0.00  0.00    -0.245 OA
BRANCH  23  25
ATOM     25  O   UNL     1       5.061   0.358   0.110  0.00  0.00    -0.449 OA
BRANCH  25  26
ATOM     26  C   UNL     1       6.334  -0.340   0.109  0.00  0.00    +0.259 C 
ATOM     27  C   UNL     1       6.741  -0.661   1.548  0.00  0.00    +0.062 C 
BRANCH  26  28
ATOM     28  C   UNL     1       7.385   0.534  -0.526  0.00  0.00    +0.261 C 
ATOM     29  O   UNL     1       7.112   1.669  -0.855  0.00  0.00    -0.271 OA
ATOM     30  N   UNL     1       8.628   0.054  -0.729  0.00  0.00    -0.237 N 
ATOM     31  C   UNL     1       9.568   0.835  -1.298  0.00  0.00    +0.303 C 
ATOM     32  O   UNL     1       9.295   1.972  -1.627  0.00  0.00    -0.253 OA
ATOM     33  N   UNL     1      10.811   0.354  -1.500  0.00  0.00    -0.313 N 
ATOM     34  H   UNL     1       8.875  -0.976  -0.431  0.00  0.00    +0.159 HD
ATOM     35  H   UNL     1      11.578   0.992  -1.964  0.00  0.00    +0.146 HD
ATOM     36  H   UNL     1      11.058  -0.675  -1.202  0.00  0.00    +0.146 HD
ENDBRANCH  26  28
ENDBRANCH  25  26
ENDBRANCH  23  25
ENDBRANCH   4  23
TORSDOF 8
