REMARK  Name = ZINC42175599
REMARK  4 active torsions:
REMARK  status: ('A' for Active; 'I' for Inactive)
REMARK    1  A    between atoms: C_3  and  S_21
REMARK    2  A    between atoms: C_6  and  N_7
REMARK    3  A    between atoms: C_8  and  C_10
REMARK    4  A    between atoms: S_21  and  N_24
REMARK                            x       y       z     vdW  Elec       q    Type
REMARK                         _______ _______ _______ _____ _____    ______ ____
ROOT
ATOM      1  C   UNL     1       1.072  -0.453  -0.766  0.00  0.00    +0.025 A 
ATOM      2  C   UNL     1       2.257   0.257  -0.779  0.00  0.00    +0.033 A 
ATOM      3  C   UNL     1       2.379   1.415  -0.034  0.00  0.00    +0.140 A 
ATOM      4  C   UNL     1       1.314   1.866   0.729  0.00  0.00    +0.151 A 
ATOM      5  C   UNL     1       0.126   1.159   0.746  0.00  0.00    +0.063 A 
ATOM      6  C   UNL     1       0.002  -0.004  -0.004  0.00  0.00    +0.036 A 
ATOM      7  F   UNL     1       1.437   2.998   1.457  0.00  0.00    -0.203 F 
ENDROOT
BRANCH   6   8
ATOM      8  N   UNL     1      -1.199  -0.721   0.010  0.00  0.00    -0.285 N 
ATOM      9  C   UNL     1      -1.183  -2.064  -0.099  0.00  0.00    +0.221 C 
ATOM     10  O   UNL     1      -0.126  -2.659  -0.113  0.00  0.00    -0.275 OA
ATOM     11  H   UNL     1      -2.044  -0.252   0.098  0.00  0.00    +0.155 HD
BRANCH   9  12
ATOM     12  C   UNL     1      -2.478  -2.828  -0.204  0.00  0.00    +0.079 C 
ATOM     13  C   UNL     1      -3.319  -2.642   1.080  0.00  0.00    +0.016 C 
ATOM     14  C   UNL     1      -3.471  -4.080   1.664  0.00  0.00    -0.010 C 
ATOM     15  C   UNL     1      -4.443  -4.799   0.680  0.00  0.00    +0.004 C 
ATOM     16  C   UNL     1      -3.621  -4.988  -0.615  0.00  0.00    +0.004 C 
ATOM     17  C   UNL     1      -2.201  -4.361  -0.278  0.00  0.00    +0.001 C 
ATOM     18  C   UNL     1      -2.092  -4.707   1.252  0.00  0.00    +0.008 C 
ENDBRANCH   9  12
ENDBRANCH   6   8
BRANCH   3  19
ATOM     19  S   UNL     1       3.892   2.317  -0.053  0.00  0.00    +0.059 S 
ATOM     20  O   UNL     1       4.227   2.578   1.303  0.00  0.00    -0.153 OA
ATOM     21  O   UNL     1       4.766   1.626  -0.934  0.00  0.00    -0.153 OA
BRANCH  19  22
ATOM     22  N   UNL     1       3.578   3.785  -0.753  0.00  0.00    -0.203 NA
ATOM     23  H   UNL     1       2.682   3.995  -1.058  0.00  0.00    +0.144 HD
ATOM     24  H   UNL     1       4.291   4.435  -0.858  0.00  0.00    +0.144 HD
ENDBRANCH  19  22
ENDBRANCH   3  19
TORSDOF 4
