REMARK  Name = ZINC48950379
REMARK  3 active torsions:
REMARK  status: ('A' for Active; 'I' for Inactive)
REMARK    1  A    between atoms: C_1  and  N_2
REMARK    2  A    between atoms: N_5  and  N_6
REMARK    3  A    between atoms: C_7  and  C_9
REMARK                            x       y       z     vdW  Elec       q    Type
REMARK                         _______ _______ _______ _____ _____    ______ ____
ROOT
ATOM      1  C   UNL     1      -0.483  -4.823   1.176  0.00  0.00    +0.103 A 
ATOM      2  C   UNL     1      -0.375  -6.205   1.237  0.00  0.00    +0.031 A 
ATOM      3  C   UNL     1      -0.885  -6.880   2.367  0.00  0.00    +0.037 A 
ATOM      4  C   UNL     1      -1.477  -6.177   3.402  0.00  0.00    +0.030 A 
ATOM      5  N   UNL     1      -1.588  -4.834   3.341  0.00  0.00    -0.325 N 
ATOM      6  H   UNL     1      -2.013  -4.364   4.075  0.00  0.00    +0.169 HD
ATOM      7  C   UNL     1      -1.121  -4.129   2.298  0.00  0.00    +0.261 A 
ATOM      8  O   UNL     1      -1.233  -2.916   2.282  0.00  0.00    -0.267 OA
ATOM      9  C   UNL     1      -2.008  -6.879   4.626  0.00  0.00    +0.054 C 
ATOM     10  C   UNL     1      -2.331  -8.340   4.331  0.00  0.00    +0.014 C 
ATOM     11  C   UNL     1      -1.089  -9.025   3.747  0.00  0.00    +0.080 C 
ATOM     12  C   UNL     1      -0.781  -8.348   2.428  0.00  0.00    +0.165 C 
ATOM     13  O   UNL     1      -0.461  -8.994   1.452  0.00  0.00    -0.292 OA
ENDROOT
BRANCH   1  15
ATOM     14  N   UNL     1       0.024  -2.726   0.030  0.00  0.00    -0.229 N 
ATOM     15  C   UNL     1       0.035  -4.074   0.020  0.00  0.00    +0.265 C 
ATOM     16  O   UNL     1       0.472  -4.671  -0.945  0.00  0.00    -0.268 OA
ATOM     17  H   UNL     1      -0.392  -2.250   0.766  0.00  0.00    +0.173 HD
BRANCH  14  22
ATOM     18  C   UNL     1       0.013   1.461   0.022  0.00  0.00    +0.129 C 
ATOM     19  N   UNL     1       0.025  -0.004   0.011  0.00  0.00    -0.301 N 
ATOM     20  C   UNL     1       0.603  -0.665  -1.012  0.00  0.00    +0.316 C 
ATOM     21  O   UNL     1       1.114  -0.046  -1.925  0.00  0.00    -0.251 OA
ATOM     22  N   UNL     1       0.613  -2.013  -1.022  0.00  0.00    -0.218 N 
ATOM     23  H   UNL     1      -0.383  -0.498   0.739  0.00  0.00    +0.150 HD
ATOM     24  H   UNL     1       1.029  -2.489  -1.758  0.00  0.00    +0.174 HD
ENDBRANCH  14  22
ENDBRANCH   1  15
TORSDOF 2
