REMARK  Name = ZINC65470721
REMARK  4 active torsions:
REMARK  status: ('A' for Active; 'I' for Inactive)
REMARK    1  A    between atoms: C_4  and  C_7
REMARK    2  A    between atoms: C_9  and  C_13
REMARK    3  A    between atoms: C_13  and  N_14
REMARK    4  A    between atoms: C_22  and  C_24
REMARK                            x       y       z     vdW  Elec       q    Type
REMARK                         _______ _______ _______ _____ _____    ______ ____
ROOT
ATOM      1  C   UNL     1       5.703  -3.710  -0.076  0.00  0.00    +0.182 C 
ENDROOT
BRANCH   1   2
ATOM      2  N   UNL     1       5.795  -4.214   1.297  0.00  0.00    -0.302 N 
ATOM      3  C   UNL     1       6.883  -4.062   2.167  0.00  0.00    +0.053 A 
ATOM      4  C   UNL     1       8.107  -3.429   1.980  0.00  0.00    +0.025 A 
ATOM      5  C   UNL     1       9.040  -3.409   2.998  0.00  0.00    +0.002 A 
ATOM      6  C   UNL     1       8.761  -4.018   4.208  0.00  0.00    +0.002 A 
ATOM      7  C   UNL     1       7.548  -4.649   4.403  0.00  0.00    +0.025 A 
ATOM      8  C   UNL     1       6.603  -4.675   3.385  0.00  0.00    +0.050 A 
ATOM      9  N   UNL     1       5.322  -5.244   3.345  0.00  0.00    -0.324 N 
ATOM     10  C   UNL     1       4.761  -4.966   2.018  0.00  0.00    +0.162 C 
ATOM     11  H   UNL     1       4.887  -5.730   4.063  0.00  0.00    +0.148 HD
BRANCH  10  12
ATOM     12  C   UNL     1       4.457  -6.277   1.290  0.00  0.00    +0.028 C 
ATOM     13  C   UNL     1       3.087  -6.415   0.624  0.00  0.00    +0.007 C 
ATOM     14  C   UNL     1       3.397  -7.196   1.902  0.00  0.00    +0.007 C 
ENDBRANCH  10  12
ENDBRANCH   1   2
BRANCH   1  17
ATOM     15  C   UNL     1       3.699  -0.689  -0.038  0.00  0.00    +0.181 A 
ATOM     16  N   UNL     1       3.852  -2.020  -0.047  0.00  0.00    -0.210 NA
ATOM     17  C   UNL     1       5.124  -2.319  -0.062  0.00  0.00    +0.143 A 
ATOM     18  H   UNL     1       6.793  -1.084  -0.074  0.00  0.00    +0.190 HD
ATOM     19  N   UNL     1       5.827  -1.172  -0.064  0.00  0.00    -0.261 N 
ATOM     20  N   UNL     1       4.888  -0.128  -0.053  0.00  0.00    -0.152 NA
BRANCH  15  24
ATOM     21  C   UNL     1      -0.017   1.379   0.010  0.00  0.00    +0.000 A 
ATOM     22  C   UNL     1       1.169   2.092   0.002  0.00  0.00    +0.001 A 
ATOM     23  C   UNL     1       2.377   1.426  -0.013  0.00  0.00    +0.011 A 
ATOM     24  C   UNL     1       2.402   0.033  -0.021  0.00  0.00    +0.021 A 
ATOM     25  C   UNL     1       1.205  -0.680  -0.013  0.00  0.00    +0.011 A 
ATOM     26  C   UNL     1       0.002  -0.004   0.002  0.00  0.00    +0.001 A 
ENDBRANCH  15  24
ENDBRANCH   1  17
TORSDOF 4
