REMARK  Name = ZINC48857489
REMARK  4 active torsions:
REMARK  status: ('A' for Active; 'I' for Inactive)
REMARK    1  A    between atoms: C_5  and  N_8
REMARK    2  A    between atoms: C_6  and  N_7
REMARK    3  A    between atoms: C_13  and  C_15
REMARK    4  A    between atoms: C_15  and  O_16
REMARK                            x       y       z     vdW  Elec       q    Type
REMARK                         _______ _______ _______ _____ _____    ______ ____
ROOT
ATOM      1  C   UNL     1      -0.017   1.382   0.010  0.00  0.00    +0.030 A 
ATOM      2  C   UNL     1       1.170   2.091   0.002  0.00  0.00    -0.024 A 
ATOM      3  C   UNL     1       2.384   1.417  -0.013  0.00  0.00    +0.038 A 
ATOM      4  C   UNL     1       2.409   0.029  -0.021  0.00  0.00    +0.048 A 
ATOM      5  C   UNL     1       1.220  -0.684  -0.013  0.00  0.00    +0.053 A 
ATOM      6  C   UNL     1       0.002  -0.004   0.002  0.00  0.00    +0.046 A 
ATOM      7  N   UNL     1       3.584   2.140  -0.021  0.00  0.00    -0.285 N 
ATOM      8  C   UNL     1       3.604   3.432   0.356  0.00  0.00    +0.218 C 
ATOM      9  O   UNL     1       4.648   4.048   0.330  0.00  0.00    -0.275 OA
ATOM     10  C   UNL     1       2.345   4.121   0.808  0.00  0.00    +0.101 C 
ATOM     11  C   UNL     1       1.149   3.598   0.010  0.00  0.00    +0.046 C 
ATOM     12  H   UNL     1       4.406   1.707  -0.300  0.00  0.00    +0.155 HD
ENDROOT
BRANCH   5  13
ATOM     13  N   UNL     1       1.242  -2.084  -0.020  0.00  0.00    -0.323 N 
ATOM     14  C   UNL     1       1.247  -2.825  -1.288  0.00  0.00    +0.105 C 
ATOM     15  C   UNL     1       2.430  -3.799  -1.286  0.00  0.00    +0.019 C 
ATOM     16  C   UNL     1       2.354  -4.684  -0.040  0.00  0.00    +0.003 C 
ATOM     17  C   UNL     1       2.443  -3.812   1.214  0.00  0.00    +0.025 C 
ATOM     18  C   UNL     1       1.266  -2.839   1.240  0.00  0.00    +0.099 C 
BRANCH  18  19
ATOM     19  C   UNL     1       1.429  -1.872   2.414  0.00  0.00    +0.178 C 
BRANCH  19  20
ATOM     20  O   UNL     1       2.705  -1.234   2.333  0.00  0.00    -0.393 OA
ATOM     21  H   UNL     1       2.877  -0.605   3.047  0.00  0.00    +0.209 HD
ENDBRANCH  19  20
ENDBRANCH  18  19
ENDBRANCH   5  13
BRANCH   6  22
ATOM     22  N   UNL     1      -1.202  -0.722   0.009  0.00  0.00    -0.357 N 
ATOM     23  H   UNL     1      -2.049  -0.249   0.020  0.00  0.00    +0.142 HD
ATOM     24  H   UNL     1      -1.189  -1.692   0.004  0.00  0.00    +0.142 HD
ENDBRANCH   6  22
TORSDOF 4
