REMARK  Name = ZINC17287332
REMARK  11 active torsions:
REMARK  status: ('A' for Active; 'I' for Inactive)
REMARK    1  A    between atoms: C_1  and  O_2
REMARK    2  A    between atoms: O_2  and  C_3
REMARK    3  A    between atoms: C_24  and  O_36
REMARK    4  A    between atoms: C_26  and  O_34
REMARK    5  A    between atoms: C_28  and  C_30
REMARK    6  A    between atoms: C_30  and  O_32
REMARK    7  A    between atoms: O_32  and  C_33
REMARK    8  A    between atoms: O_34  and  C_35
REMARK    9  A    between atoms: O_36  and  C_37
REMARK   10  A    between atoms: C_37  and  C_39
REMARK   11  A    between atoms: C_42  and  N_45
REMARK                            x       y       z     vdW  Elec       q    Type
REMARK                         _______ _______ _______ _____ _____    ______ ____
ROOT
ATOM      1  C   UNL     1       2.353   1.413  -0.012  0.00  0.00    +0.122 A 
ATOM      2  C   UNL     1       2.364   0.023  -0.021  0.00  0.00    +0.046 A 
ATOM      3  C   UNL     1       1.207  -0.714  -0.014  0.00  0.00    +0.014 A 
ATOM      4  C   UNL     1       0.002  -0.004   0.002  0.00  0.00    +0.003 A 
ATOM      5  C   UNL     1      -0.017   1.415   0.010  0.00  0.00    +0.050 A 
ATOM      6  C   UNL     1       1.172   2.141   0.002  0.00  0.00    +0.071 A 
ATOM      7  N   UNL     1      -1.326   1.805   0.019  0.00  0.00    -0.359 N 
ATOM      8  H   UNL     1      -1.634   2.725   0.025  0.00  0.00    +0.166 HD
ATOM      9  C   UNL     1      -2.138   0.702   0.026  0.00  0.00    +0.007 A 
ATOM     10  C   UNL     1      -1.383  -0.421   0.013  0.00  0.00    -0.022 A 
ATOM     11  C   UNL     1      -1.961  -1.813   0.013  0.00  0.00    +0.019 C 
ATOM     12  C   UNL     1      -3.447  -1.716  -0.363  0.00  0.00    -0.073 C 
ATOM     13  C   UNL     1      -3.646   0.673   0.038  0.00  0.00    -0.020 C 
ATOM     14  C   UNL     1      -4.180   1.702   1.037  0.00  0.00    -0.005 C 
ATOM     15  C   UNL     1      -5.709   1.631   1.051  0.00  0.00    +0.006 C 
ATOM     16  C   UNL     1      -6.150   0.212   1.415  0.00  0.00    -0.020 C 
ATOM     17  C   UNL     1      -5.550  -0.776   0.409  0.00  0.00    -0.074 C 
ATOM     18  C   UNL     1      -5.650  -0.136   2.818  0.00  0.00    +0.049 C 
ATOM     19  C   UNL     1      -6.220   0.860   3.829  0.00  0.00    +0.206 C 
ATOM     20  C   UNL     1      -5.757   2.272   3.466  0.00  0.00    +0.172 C 
ATOM     21  C   UNL     1      -6.264   2.627   2.067  0.00  0.00    +0.133 C 
ATOM     22  N   UNL     1      -4.077  -0.671   0.480  0.00  0.00    +0.386 N 
ATOM     23  H   UNL     1      -3.782  -0.810   1.453  0.00  0.00    -0.081 HD
ENDROOT
BRANCH   1  25
ATOM     24  C   UNL     1       4.728   1.289  -0.035  0.00  0.00    +0.277 C 
ATOM     25  O   UNL     1       3.538   2.080  -0.019  0.00  0.00    -0.495 OA
ENDBRANCH   1  25
BRANCH  21  26
ATOM     26  C   UNL     1      -5.809   4.018   1.707  0.00  0.00    +0.313 C 
ATOM     27  O   UNL     1      -5.109   4.192   0.737  0.00  0.00    -0.250 OA
BRANCH  26  28
ATOM     28  O   UNL     1      -6.182   5.063   2.462  0.00  0.00    -0.468 OA
ATOM     29  C   UNL     1      -5.707   6.373   2.055  0.00  0.00    +0.280 C 
ENDBRANCH  26  28
ENDBRANCH  21  26
BRANCH  20  30
ATOM     30  O   UNL     1      -4.329   2.325   3.483  0.00  0.00    -0.375 OA
ATOM     31  C   UNL     1      -3.775   2.680   4.752  0.00  0.00    +0.194 C 
ENDBRANCH  20  30
BRANCH  19  32
ATOM     32  O   UNL     1      -5.748   0.522   5.161  0.00  0.00    -0.455 OA
BRANCH  32  33
ATOM     33  C   UNL     1      -6.506  -0.329   5.881  0.00  0.00    +0.340 C 
ATOM     34  O   UNL     1      -7.532  -0.776   5.409  0.00  0.00    -0.245 OA
BRANCH  33  35
ATOM     35  C   UNL     1      -6.089  -0.716   7.240  0.00  0.00    +0.059 A 
ATOM     36  C   UNL     1      -4.905  -0.207   7.782  0.00  0.00    +0.017 A 
ATOM     37  C   UNL     1      -4.523  -0.564   9.050  0.00  0.00    +0.023 A 
ATOM     38  C   UNL     1      -5.307  -1.444   9.792  0.00  0.00    +0.025 A 
ATOM     39  C   UNL     1      -6.483  -1.958   9.253  0.00  0.00    +0.023 A 
ATOM     40  C   UNL     1      -6.874  -1.599   7.989  0.00  0.00    +0.017 A 
BRANCH  38  41
ATOM     41  N   UNL     1      -4.914  -1.809  11.075  0.00  0.00    -0.358 N 
ATOM     42  H   UNL     1      -5.459  -2.422  11.593  0.00  0.00    +0.142 HD
ATOM     43  H   UNL     1      -4.095  -1.452  11.451  0.00  0.00    +0.142 HD
ENDBRANCH  38  41
ENDBRANCH  33  35
ENDBRANCH  32  33
ENDBRANCH  19  32
TORSDOF 8
