REMARK  Name = ZINC09726618
REMARK  16 active torsions:
REMARK  status: ('A' for Active; 'I' for Inactive)
REMARK    1  A    between atoms: C_1  and  C_2
REMARK    2  A    between atoms: C_2  and  C_3
REMARK    3  A    between atoms: C_2  and  C_4
REMARK    4  A    between atoms: C_4  and  N_5
REMARK    5  A    between atoms: N_5  and  C_6
REMARK    6  A    between atoms: N_5  and  S_10
REMARK    7  A    between atoms: C_6  and  C_7
REMARK    8  A    between atoms: C_7  and  C_8
REMARK    9  A    between atoms: C_7  and  C_9
REMARK   10  A    between atoms: S_10  and  C_13
REMARK   11  A    between atoms: C_16  and  C_19
REMARK   12  A    between atoms: C_19  and  N_21
REMARK   13  A    between atoms: N_23  and  C_31
REMARK   14  A    between atoms: C_31  and  C_32
REMARK   15  A    between atoms: C_32  and  O_34
REMARK   16  A    between atoms: O_34  and  C_35
REMARK                            x       y       z     vdW  Elec       q    Type
REMARK                         _______ _______ _______ _____ _____    ______ ____
ROOT
ATOM      1  C   UNL     1     -11.350   2.150   1.311  0.00  0.00    +0.106 A 
ATOM      2  C   UNL     1     -10.919   3.433   1.598  0.00  0.00    +0.029 A 
ATOM      3  C   UNL     1      -9.634   3.820   1.276  0.00  0.00    +0.015 A 
ATOM      4  C   UNL     1      -8.770   2.915   0.661  0.00  0.00    +0.039 A 
ATOM      5  C   UNL     1      -9.212   1.624   0.370  0.00  0.00    +0.015 A 
ATOM      6  C   UNL     1     -10.497   1.248   0.700  0.00  0.00    +0.029 A 
ENDROOT
BRANCH   1   7
ATOM      7  S   UNL     1     -12.992   1.663   1.724  0.00  0.00    +0.061 S 
ATOM      8  O   UNL     1     -12.951   0.265   1.975  0.00  0.00    -0.153 OA
ATOM      9  O   UNL     1     -13.462   2.596   2.688  0.00  0.00    -0.153 OA
BRANCH   7  10
ATOM     10  N   UNL     1     -13.921   1.873   0.370  0.00  0.00    -0.176 NA
BRANCH  10  11
ATOM     11  C   UNL     1     -14.215   0.733  -0.502  0.00  0.00    +0.112 C 
BRANCH  11  13
ATOM     12  C   UNL     1     -15.931  -0.981  -1.101  0.00  0.00    +0.008 C 
ATOM     13  C   UNL     1     -15.566   0.129  -0.114  0.00  0.00    -0.001 C 
ATOM     14  C   UNL     1     -15.478  -0.453   1.298  0.00  0.00    +0.008 C 
ENDBRANCH  11  13
ENDBRANCH  10  11
BRANCH  10  15
ATOM     15  C   UNL     1     -14.450   3.200   0.043  0.00  0.00    +0.112 C 
BRANCH  15  16
ATOM     16  C   UNL     1     -13.861   3.669  -1.290  0.00  0.00    -0.001 C 
ATOM     17  C   UNL     1     -14.529   4.981  -1.709  0.00  0.00    +0.008 C 
ATOM     18  C   UNL     1     -12.355   3.891  -1.132  0.00  0.00    +0.008 C 
ENDBRANCH  15  16
ENDBRANCH  10  15
ENDBRANCH   7  10
ENDBRANCH   1   7
BRANCH   4  19
ATOM     19  C   UNL     1      -7.390   3.324   0.313  0.00  0.00    +0.269 C 
ATOM     20  O   UNL     1      -7.008   4.454   0.564  0.00  0.00    -0.268 OA
BRANCH  19  21
ATOM     21  N   UNL     1      -6.563   2.455  -0.277  0.00  0.00    -0.152 NA
ATOM     22  C   UNL     1      -5.325   2.822  -0.590  0.00  0.00    +0.167 A 
ATOM     23  N   UNL     1      -4.351   2.083  -1.187  0.00  0.00    -0.310 N 
ATOM     24  C   UNL     1      -3.113   2.644  -1.439  0.00  0.00    +0.058 A 
ATOM     25  C   UNL     1      -1.991   2.045  -2.034  0.00  0.00    +0.027 A 
ATOM     26  C   UNL     1      -0.825   2.752  -2.204  0.00  0.00    +0.002 A 
ATOM     27  C   UNL     1      -0.717   4.070  -1.792  0.00  0.00    +0.001 A 
ATOM     28  C   UNL     1      -1.806   4.683  -1.197  0.00  0.00    +0.017 A 
ATOM     29  C   UNL     1      -2.973   3.977  -1.026  0.00  0.00    +0.039 A 
ATOM     30  S   UNL     1      -4.562   4.358  -0.334  0.00  0.00    -0.052 S 
BRANCH  23  31
ATOM     31  C   UNL     1      -4.617   0.694  -1.568  0.00  0.00    +0.244 C 
BRANCH  31  32
ATOM     32  C   UNL     1      -5.101  -0.073  -0.364  0.00  0.00    +0.327 C 
ATOM     33  O   UNL     1      -5.232   0.488   0.697  0.00  0.00    -0.249 OA
BRANCH  32  34
ATOM     34  O   UNL     1      -5.386  -1.381  -0.472  0.00  0.00    -0.467 OA
ATOM     35  C   UNL     1      -5.847  -2.056   0.728  0.00  0.00    +0.280 C 
ENDBRANCH  32  34
ENDBRANCH  31  32
ENDBRANCH  23  31
ENDBRANCH  19  21
ENDBRANCH   4  19
TORSDOF 11
