REMARK  Name = ZINC21315897
REMARK  8 active torsions:
REMARK  status: ('A' for Active; 'I' for Inactive)
REMARK    1  A    between atoms: C_4  and  N_28
REMARK    2  A    between atoms: C_5  and  N_7
REMARK    3  A    between atoms: C_8  and  C_10
REMARK    4  A    between atoms: C_10  and  S_11
REMARK    5  A    between atoms: S_11  and  C_12
REMARK    6  A    between atoms: N_16  and  N_17
REMARK    7  A    between atoms: N_18  and  N_19
REMARK    8  A    between atoms: C_20  and  C_21
REMARK                            x       y       z     vdW  Elec       q    Type
REMARK                         _______ _______ _______ _____ _____    ______ ____
ROOT
ATOM      1  C   UNL     1      -7.705  -0.503   0.687  0.00  0.00    +0.210 A 
ATOM      2  N   UNL     1      -7.807   0.791   0.501  0.00  0.00    -0.119 NA
ATOM      3  N   UNL     1      -9.166   1.129   0.552  0.00  0.00    -0.109 NA
ATOM      4  C   UNL     1      -9.848   0.033   0.775  0.00  0.00    +0.254 A 
ATOM      5  N   UNL     1      -8.963  -1.005   0.865  0.00  0.00    -0.211 N 
ATOM      6  N   UNL     1     -11.227  -0.059   0.900  0.00  0.00    -0.204 N 
ATOM      7  H   UNL     1     -11.699  -1.034   1.089  0.00  0.00    +0.177 HD
ENDROOT
BRANCH   5   8
ATOM      8  N   UNL     1      -9.280  -2.314   1.092  0.00  0.00    -0.294 N 
ATOM      9  H   UNL     1     -10.332  -2.611   1.221  0.00  0.00    +0.163 HD
ATOM     10  H   UNL     1      -8.485  -3.072   1.145  0.00  0.00    +0.163 HD
ENDBRANCH   5   8
BRANCH   6  11
ATOM     11  N   UNL     1     -12.019   1.092   0.786  0.00  0.00    -0.188 NA
ATOM     12  C   UNL     1     -13.309   1.006   0.903  0.00  0.00    +0.138 C 
BRANCH  12  13
ATOM     13  C   UNL     1     -14.142   2.217   0.783  0.00  0.00    -0.005 A 
ATOM     14  C   UNL     1     -13.546   3.458   0.549  0.00  0.00    +0.010 A 
ATOM     15  C   UNL     1     -14.331   4.586   0.432  0.00  0.00    +0.016 A 
ATOM     16  C   UNL     1     -15.707   4.491   0.557  0.00  0.00    +0.018 A 
ATOM     17  C   UNL     1     -16.304   3.264   0.794  0.00  0.00    +0.016 A 
ATOM     18  C   UNL     1     -15.531   2.128   0.908  0.00  0.00    +0.010 A 
ATOM     19 BR   UNL     1     -16.775   6.044   0.404  0.00  0.00    -0.050 Br
ENDBRANCH  12  13
ENDBRANCH   6  11
BRANCH   1  20
ATOM     20  S   UNL     1      -6.207  -1.431   0.711  0.00  0.00    -0.075 S 
BRANCH  20  21
ATOM     21  C   UNL     1      -4.918  -0.190   0.416  0.00  0.00    +0.173 C 
BRANCH  21  23
ATOM     22  N   UNL     1      -2.453  -0.128   0.210  0.00  0.00    -0.283 N 
ATOM     23  C   UNL     1      -3.567  -0.859   0.412  0.00  0.00    +0.228 C 
ATOM     24  O   UNL     1      -3.483  -2.056   0.590  0.00  0.00    -0.275 OA
ATOM     25  H   UNL     1      -2.520   0.967   0.135  0.00  0.00    +0.155 HD
BRANCH  22  30
ATOM     26  C   UNL     1       0.109  -2.628  -0.629  0.00  0.00    +0.002 A 
ATOM     27  C   UNL     1       1.244  -2.017  -0.129  0.00  0.00    +0.002 A 
ATOM     28  C   UNL     1       1.156  -0.778   0.477  0.00  0.00    +0.034 A 
ATOM     29  C   UNL     1      -0.069  -0.151   0.596  0.00  0.00    +0.147 A 
ATOM     30  C   UNL     1      -1.211  -0.762   0.096  0.00  0.00    +0.064 A 
ATOM     31  C   UNL     1      -1.118  -2.005  -0.518  0.00  0.00    +0.025 A 
BRANCH  29  32
ATOM     32  N   UNL     1      -0.164   1.173   1.251  0.00  0.00    +0.058 N 
ATOM     33  O   UNL     1       0.821   1.668   1.770  0.00  0.00    -0.126 OA
ATOM     34  O   UNL     1      -1.226   1.770   1.267  0.00  0.00    -0.126 OA
ENDBRANCH  29  32
ENDBRANCH  22  30
ENDBRANCH  21  23
ENDBRANCH  20  21
ENDBRANCH   1  20
TORSDOF 8
