REMARK  Name = ZINC04387457
REMARK  5 active torsions:
REMARK  status: ('A' for Active; 'I' for Inactive)
REMARK    1  A    between atoms: C_1  and  C_2
REMARK    2  A    between atoms: C_2  and  C_3
REMARK    3  A    between atoms: C_8  and  N_9
REMARK    4  A    between atoms: N_19  and  C_22
REMARK    5  A    between atoms: C_25  and  C_28
REMARK                            x       y       z     vdW  Elec       q    Type
REMARK                         _______ _______ _______ _____ _____    ______ ____
ROOT
ATOM      1  N   UNL     1       5.107  -2.347  -0.353  0.00  0.00    -0.248 N 
ATOM      2  C   UNL     1       5.709  -1.146  -0.888  0.00  0.00    +0.126 C 
ATOM      3  C   UNL     1       7.188  -0.820  -0.695  0.00  0.00    +0.190 C 
ATOM      4  S   UNL     1       7.105   1.012  -0.968  0.00  0.00    -0.027 S 
ATOM      5  O   UNL     1       7.307   1.292  -2.347  0.00  0.00    -0.174 OA
ATOM      6  O   UNL     1       7.914   1.659   0.004  0.00  0.00    -0.174 OA
ATOM      7  C   UNL     1       5.320   1.287  -0.551  0.00  0.00    +0.190 C 
ATOM      8  C   UNL     1       4.937  -0.083  -0.052  0.00  0.00    +0.126 C 
ATOM      9  N   UNL     1       3.622  -0.651  -0.037  0.00  0.00    -0.249 N 
ATOM     10  C   UNL     1       3.820  -2.005  -0.047  0.00  0.00    +0.314 C 
ATOM     11  O   UNL     1       2.946  -2.816   0.191  0.00  0.00    -0.252 OA
ENDROOT
BRANCH   9  12
ATOM     12  C   UNL     1       2.400   0.031  -0.021  0.00  0.00    +0.038 A 
ATOM     13  C   UNL     1       1.206  -0.680  -0.013  0.00  0.00    +0.024 A 
ATOM     14  C   UNL     1       0.002  -0.004   0.002  0.00  0.00    +0.005 A 
ATOM     15  C   UNL     1      -0.017   1.379   0.010  0.00  0.00    -0.050 A 
ATOM     16  C   UNL     1       1.170   2.089   0.002  0.00  0.00    +0.005 A 
ATOM     17  C   UNL     1       2.377   1.419  -0.013  0.00  0.00    +0.024 A 
ATOM     18  C   UNL     1      -1.333   2.113   0.020  0.00  0.00    +0.044 C 
ENDBRANCH   9  12
BRANCH   1  24
ATOM     19  C   UNL     1       6.370  -3.899   1.000  0.00  0.00    -0.026 A 
ATOM     20  C   UNL     1       6.965  -5.135   1.163  0.00  0.00    +0.005 A 
ATOM     21  C   UNL     1       6.916  -6.067   0.143  0.00  0.00    +0.000 A 
ATOM     22  C   UNL     1       6.269  -5.767  -1.042  0.00  0.00    +0.002 A 
ATOM     23  C   UNL     1       5.668  -4.535  -1.209  0.00  0.00    +0.024 A 
ATOM     24  C   UNL     1       5.715  -3.596  -0.186  0.00  0.00    +0.041 A 
BRANCH  19  26
ATOM     25  C   UNL     1       5.158  -2.978   2.958  0.00  0.00    +0.009 C 
ATOM     26  C   UNL     1       6.428  -2.881   2.110  0.00  0.00    +0.033 C 
ENDBRANCH  19  26
ENDBRANCH   1  24
TORSDOF 3
