REMARK  Name = ZINC15620776
REMARK  10 active torsions:
REMARK  status: ('A' for Active; 'I' for Inactive)
REMARK    1  A    between atoms: C_1  and  C_2
REMARK    2  A    between atoms: C_4  and  C_33
REMARK    3  A    between atoms: C_5  and  N_9
REMARK    4  A    between atoms: C_6  and  C_8
REMARK    5  A    between atoms: C_10  and  C_12
REMARK    6  A    between atoms: C_12  and  N_13
REMARK    7  A    between atoms: C_14  and  C_16
REMARK    8  A    between atoms: C_19  and  S_22
REMARK    9  A    between atoms: S_22  and  N_25
REMARK   10  A    between atoms: N_25  and  C_26
REMARK                            x       y       z     vdW  Elec       q    Type
REMARK                         _______ _______ _______ _____ _____    ______ ____
ROOT
ATOM      1  N   UNL     1       8.291   0.374   2.198  0.00  0.00    -0.303 N 
ATOM      2  C   UNL     1       7.662  -0.727   2.654  0.00  0.00    +0.244 C 
ATOM      3  O   UNL     1       8.265  -1.779   2.741  0.00  0.00    -0.270 OA
ATOM      4  H   UNL     1       7.810   1.214   2.129  0.00  0.00    +0.150 HD
ENDROOT
BRANCH   2   5
ATOM      5  C   UNL     1       6.239  -0.656   3.049  0.00  0.00    +0.037 A 
ATOM      6  C   UNL     1       5.585  -1.795   3.521  0.00  0.00    +0.015 A 
ATOM      7  C   UNL     1       4.257  -1.722   3.888  0.00  0.00    +0.029 A 
ATOM      8  C   UNL     1       3.574  -0.523   3.788  0.00  0.00    +0.109 A 
ATOM      9  C   UNL     1       4.215   0.609   3.316  0.00  0.00    +0.029 A 
ATOM     10  C   UNL     1       5.544   0.550   2.950  0.00  0.00    +0.015 A 
BRANCH   8  11
ATOM     11  S   UNL     1       1.878  -0.438   4.258  0.00  0.00    +0.072 S 
ATOM     12  O   UNL     1       1.394  -1.774   4.274  0.00  0.00    -0.150 OA
ATOM     13  O   UNL     1       1.285   0.578   3.460  0.00  0.00    -0.150 OA
BRANCH  11  14
ATOM     14  N   UNL     1       1.830   0.102   5.823  0.00  0.00    -0.216 N 
ATOM     15  H   UNL     1       1.388   0.940   6.034  0.00  0.00    +0.174 HD
BRANCH  14  16
ATOM     16  C   UNL     1       2.425  -0.649   6.840  0.00  0.00    +0.048 A 
ATOM     17  C   UNL     1       3.237  -0.027   7.780  0.00  0.00    +0.026 A 
ATOM     18  C   UNL     1       3.825  -0.772   8.784  0.00  0.00    +0.022 A 
ATOM     19  C   UNL     1       3.606  -2.136   8.853  0.00  0.00    +0.041 A 
ATOM     20  C   UNL     1       2.797  -2.759   7.918  0.00  0.00    +0.022 A 
ATOM     21  C   UNL     1       2.207  -2.019   6.912  0.00  0.00    +0.026 A 
ATOM     22 CL   UNL     1       4.346  -3.070  10.116  0.00  0.00    -0.084 Cl
ENDBRANCH  14  16
ENDBRANCH  11  14
ENDBRANCH   8  11
ENDBRANCH   2   5
BRANCH   1  23
ATOM     23  C   UNL     1       9.701   0.304   1.808  0.00  0.00    +0.200 C 
BRANCH  23  25
ATOM     24  N   UNL     1      11.432   1.836   0.926  0.00  0.00    -0.284 N 
ATOM     25  C   UNL     1      10.161   1.660   1.337  0.00  0.00    +0.234 C 
ATOM     26  O   UNL     1       9.386   2.594   1.329  0.00  0.00    -0.274 OA
ATOM     27  H   UNL     1      12.070   1.109   0.998  0.00  0.00    +0.155 HD
BRANCH  24  32
ATOM     28  C   UNL     1      13.051   6.827  -1.231  0.00  0.00    +0.044 C 
ATOM     29  C   UNL     1      12.621   5.501  -0.658  0.00  0.00    -0.050 A 
ATOM     30  C   UNL     1      11.502   4.863  -1.161  0.00  0.00    +0.008 A 
ATOM     31  C   UNL     1      11.105   3.647  -0.638  0.00  0.00    -0.029 A 
ATOM     32  C   UNL     1      11.831   3.067   0.394  0.00  0.00    +0.039 A 
ATOM     33  C   UNL     1      12.951   3.713   0.900  0.00  0.00    -0.029 A 
ATOM     34  C   UNL     1      13.347   4.925   0.369  0.00  0.00    +0.008 A 
ATOM     35  C   UNL     1      13.739   3.089   2.023  0.00  0.00    +0.045 C 
ATOM     36  C   UNL     1       9.886   2.952  -1.186  0.00  0.00    +0.045 C 
ENDBRANCH  24  32
ENDBRANCH  23  25
ENDBRANCH   1  23
TORSDOF 7
