REMARK  Name = ZINC39558223
REMARK  10 active torsions:
REMARK  status: ('A' for Active; 'I' for Inactive)
REMARK    1  A    between atoms: C_1  and  C_2
REMARK    2  A    between atoms: C_7  and  C_8
REMARK    3  A    between atoms: C_8  and  C_9
REMARK    4  A    between atoms: C_8  and  C_10
REMARK    5  A    between atoms: C_11  and  C_14
REMARK    6  A    between atoms: C_14  and  C_15
REMARK    7  A    between atoms: N_17  and  C_18
REMARK    8  A    between atoms: C_22  and  N_24
REMARK    9  A    between atoms: N_24  and  S_25
REMARK   10  A    between atoms: S_25  and  N_28
REMARK                            x       y       z     vdW  Elec       q    Type
REMARK                         _______ _______ _______ _____ _____    ______ ____
ROOT
ATOM      1  C   UNL     1      -0.390  -5.654   1.389  0.00  0.00    +0.222 C 
ATOM      2  O   UNL     1      -1.446  -5.062   1.317  0.00  0.00    -0.275 OA
ATOM      3  N   UNL     1      -0.294  -6.773   2.135  0.00  0.00    -0.285 N 
ATOM      4  H   UNL     1       0.567  -7.204   2.255  0.00  0.00    +0.155 HD
ENDROOT
BRANCH   3   5
ATOM      5  C   UNL     1      -1.436  -7.313   2.736  0.00  0.00    +0.035 A 
ATOM      6  C   UNL     1      -1.339  -7.948   3.968  0.00  0.00    +0.023 A 
ATOM      7  C   UNL     1      -2.466  -8.482   4.563  0.00  0.00    +0.004 A 
ATOM      8  C   UNL     1      -3.693  -8.386   3.935  0.00  0.00    +0.024 A 
ATOM      9  C   UNL     1      -3.797  -7.752   2.703  0.00  0.00    +0.051 A 
ATOM     10  C   UNL     1      -2.667  -7.210   2.106  0.00  0.00    +0.047 A 
BRANCH   9  11
ATOM     11  N   UNL     1      -5.038  -7.655   2.069  0.00  0.00    -0.207 N 
ATOM     12  H   UNL     1      -5.115  -7.849   1.121  0.00  0.00    +0.175 HD
BRANCH  11  13
ATOM     13  S   UNL     1      -6.378  -7.209   2.934  0.00  0.00    +0.107 S 
ATOM     14  O   UNL     1      -7.462  -7.176   2.016  0.00  0.00    -0.138 OA
ATOM     15  O   UNL     1      -6.393  -8.017   4.103  0.00  0.00    -0.138 OA
BRANCH  13  16
ATOM     16  N   UNL     1      -6.138  -5.650   3.439  0.00  0.00    -0.191 NA
ATOM     17  H   UNL     1      -5.319  -5.186   3.207  0.00  0.00    +0.146 HD
ATOM     18  H   UNL     1      -6.817  -5.202   3.967  0.00  0.00    +0.146 HD
ENDBRANCH  13  16
ENDBRANCH  11  13
ENDBRANCH   9  11
ENDBRANCH   3   5
BRANCH   1  19
ATOM     19  C   UNL     1       0.815  -5.139   0.645  0.00  0.00    +0.135 C 
BRANCH  19  27
ATOM     20  C   UNL     1       0.070   1.708   0.957  0.00  0.00    +0.044 C 
ATOM     21  C   UNL     1       0.195   0.218   0.762  0.00  0.00    -0.044 A 
ATOM     22  C   UNL     1      -0.094  -0.335  -0.467  0.00  0.00    +0.050 A 
ATOM     23  C   UNL     1       0.020  -1.707  -0.654  0.00  0.00    +0.135 A 
ATOM     24  C   UNL     1       0.430  -2.516   0.419  0.00  0.00    +0.024 A 
ATOM     25  C   UNL     1       0.719  -1.944   1.657  0.00  0.00    +0.016 A 
ATOM     26  C   UNL     1       0.605  -0.580   1.820  0.00  0.00    -0.041 A 
ATOM     27  C   UNL     1       0.444  -3.886  -0.106  0.00  0.00    +0.007 A 
ATOM     28  C   UNL     1       0.062  -3.800  -1.387  0.00  0.00    +0.200 A 
ATOM     29  O   UNL     1      -0.188  -2.519  -1.710  0.00  0.00    -0.463 OA
BRANCH  26  30
ATOM     30  C   UNL     1       0.922   0.045   3.154  0.00  0.00    +0.013 C 
ATOM     31  C   UNL     1      -0.094  -0.430   4.194  0.00  0.00    +0.012 C 
ATOM     32  C   UNL     1       2.329  -0.367   3.589  0.00  0.00    +0.012 C 
ENDBRANCH  26  30
ENDBRANCH  19  27
ENDBRANCH   1  19
TORSDOF 7
