REMARK  Name = ZINC20708112
REMARK  4 active torsions:
REMARK  status: ('A' for Active; 'I' for Inactive)
REMARK    1  A    between atoms: C_1  and  N_2
REMARK    2  A    between atoms: N_5  and  S_8
REMARK    3  A    between atoms: S_8  and  C_11
REMARK    4  A    between atoms: C_24  and  C_27
REMARK                            x       y       z     vdW  Elec       q    Type
REMARK                         _______ _______ _______ _____ _____    ______ ____
ROOT
ATOM      1  C   UNL     1       3.625   3.018  -0.045  0.00  0.00    +0.106 A 
ATOM      2  C   UNL     1       3.601   1.636  -0.021  0.00  0.00    +0.030 A 
ATOM      3  C   UNL     1       2.396   0.964  -0.000  0.00  0.00    +0.025 A 
ATOM      4  C   UNL     1       1.199   1.670  -0.000  0.00  0.00    +0.031 A 
ATOM      5  C   UNL     1       1.232   3.069  -0.011  0.00  0.00    -0.018 A 
ATOM      6  C   UNL     1       2.440   3.730  -0.040  0.00  0.00    +0.034 A 
ATOM      7  C   UNL     1      -0.063   3.781   0.020  0.00  0.00    +0.049 C 
ATOM      8  C   UNL     1      -0.224   5.147  -0.540  0.00  0.00    -0.023 C 
ATOM      9  C   UNL     1      -1.466   5.277  -0.991  0.00  0.00    -0.030 C 
ATOM     10  C   UNL     1      -2.233   3.968  -0.793  0.00  0.00    +0.033 C 
ATOM     11  C   UNL     1      -1.095   2.939  -0.789  0.00  0.00    +0.029 C 
ATOM     12  C   UNL     1      -1.310   1.674   0.017  0.00  0.00    +0.105 C 
ATOM     13  N   UNL     1      -0.011   0.966   0.007  0.00  0.00    -0.336 N 
ATOM     14  H   UNL     1       0.015  -0.134   0.006  0.00  0.00    +0.147 HD
ENDROOT
BRANCH  12  15
ATOM     15  C   UNL     1      -2.373   0.821  -0.625  0.00  0.00    -0.026 A 
ATOM     16  C   UNL     1      -2.063   0.080  -1.763  0.00  0.00    +0.006 A 
ATOM     17  C   UNL     1      -3.000  -0.701  -2.368  0.00  0.00    +0.009 A 
ATOM     18  C   UNL     1      -4.301  -0.762  -1.838  0.00  0.00    -0.018 A 
ATOM     19  C   UNL     1      -5.295  -1.557  -2.434  0.00  0.00    +0.008 A 
ATOM     20  C   UNL     1      -6.543  -1.592  -1.893  0.00  0.00    +0.001 A 
ATOM     21  C   UNL     1      -6.853  -0.850  -0.754  0.00  0.00    +0.001 A 
ATOM     22  C   UNL     1      -5.916  -0.069  -0.151  0.00  0.00    +0.008 A 
ATOM     23  C   UNL     1      -4.616  -0.007  -0.680  0.00  0.00    -0.018 A 
ATOM     24  C   UNL     1      -3.620   0.783  -0.081  0.00  0.00    +0.014 A 
ENDBRANCH  12  15
BRANCH   1  25
ATOM     25  S   UNL     1       5.166   3.872  -0.080  0.00  0.00    +0.061 S 
ATOM     26  O   UNL     1       6.117   2.971  -0.630  0.00  0.00    -0.153 OA
ATOM     27  O   UNL     1       4.910   5.149  -0.649  0.00  0.00    -0.153 OA
BRANCH  25  32
ATOM     28  C   UNL     1       5.003   3.830   5.632  0.00  0.00    -0.096 C 
ATOM     29  N   UNL     1       5.500   4.094   4.275  0.00  0.00    +0.380 N 
ATOM     30  C   UNL     1       5.750   2.840   3.552  0.00  0.00    -0.062 C 
ATOM     31  C   UNL     1       6.434   3.151   2.217  0.00  0.00    +0.091 C 
ATOM     32  N   UNL     1       5.617   4.135   1.491  0.00  0.00    -0.180 NA
ATOM     33  C   UNL     1       5.215   5.362   2.196  0.00  0.00    +0.091 C 
ATOM     34  C   UNL     1       4.574   4.961   3.534  0.00  0.00    -0.062 C 
ATOM     35  H   UNL     1       6.459   4.626   4.362  0.00  0.00    -0.082 HD
ENDBRANCH  25  32
ENDBRANCH   1  25
TORSDOF 3
