REMARK  Name = ZINC32826259
REMARK  8 active torsions:
REMARK  status: ('A' for Active; 'I' for Inactive)
REMARK    1  A    between atoms: C_1  and  C_2
REMARK    2  A    between atoms: C_2  and  O_3
REMARK    3  A    between atoms: O_3  and  C_4
REMARK    4  A    between atoms: C_4  and  C_6
REMARK    5  A    between atoms: C_10  and  N_15
REMARK    6  A    between atoms: N_18  and  C_19
REMARK    7  A    between atoms: C_22  and  S_25
REMARK    8  A    between atoms: S_25  and  N_28
REMARK                            x       y       z     vdW  Elec       q    Type
REMARK                         _______ _______ _______ _____ _____    ______ ____
ROOT
ATOM      1  N   UNL     1       2.245   5.602   0.185  0.00  0.00    -0.269 N 
ATOM      2  C   UNL     1       2.174   4.422   0.832  0.00  0.00    +0.308 C 
ATOM      3  O   UNL     1       3.122   4.028   1.484  0.00  0.00    -0.252 OA
ATOM      4  N   UNL     1       1.052   3.679   0.757  0.00  0.00    -0.269 N 
ATOM      5  H   UNL     1       1.360   5.999  -0.334  0.00  0.00    +0.156 HD
ATOM      6  H   UNL     1       0.227   3.993   0.101  0.00  0.00    +0.156 HD
ENDROOT
BRANCH   1  11
ATOM      7  C   UNL     1       6.005  10.397   0.155  0.00  0.00    +0.097 A 
ATOM      8  C   UNL     1       4.761   9.848   0.168  0.00  0.00    +0.031 A 
ATOM      9  C   UNL     1       4.611   8.450   0.166  0.00  0.00    -0.008 A 
ATOM     10  C   UNL     1       3.408   7.696   0.172  0.00  0.00    +0.032 A 
ATOM     11  C   UNL     1       3.447   6.323   0.173  0.00  0.00    +0.035 A 
ATOM     12  C   UNL     1       4.659   5.632   0.156  0.00  0.00    +0.024 A 
ATOM     13  C   UNL     1       5.836   6.331   0.144  0.00  0.00    +0.017 A 
ATOM     14  C   UNL     1       5.816   7.710   0.149  0.00  0.00    +0.020 A 
ATOM     15  S   UNL     1       7.071   8.966   0.138  0.00  0.00    -0.082 S 
BRANCH   7  16
ATOM     16  C   UNL     1       6.380  11.817   0.156  0.00  0.00    +0.346 C 
ATOM     17  O   UNL     1       5.517  12.673   0.169  0.00  0.00    -0.244 OA
BRANCH  16  18
ATOM     18  O   UNL     1       7.681  12.171   0.141  0.00  0.00    -0.461 OA
BRANCH  18  20
ATOM     19  C   UNL     1       9.493  13.798   0.125  0.00  0.00    +0.048 C 
ATOM     20  C   UNL     1       7.977  13.592   0.143  0.00  0.00    +0.229 C 
ENDBRANCH  18  20
ENDBRANCH  16  18
ENDBRANCH   7  16
ENDBRANCH   1  11
BRANCH   4  21
ATOM     21  C   UNL     1       0.936   2.509   1.515  0.00  0.00    +0.035 A 
ATOM     22  C   UNL     1       1.545   2.423   2.760  0.00  0.00    +0.025 A 
ATOM     23  C   UNL     1       1.429   1.266   3.506  0.00  0.00    +0.030 A 
ATOM     24  C   UNL     1       0.707   0.194   3.014  0.00  0.00    +0.105 A 
ATOM     25  C   UNL     1       0.100   0.276   1.774  0.00  0.00    +0.030 A 
ATOM     26  C   UNL     1       0.212   1.430   1.024  0.00  0.00    +0.025 A 
BRANCH  24  27
ATOM     27  S   UNL     1       0.562  -1.280   3.968  0.00  0.00    +0.056 S 
ATOM     28  O   UNL     1       0.294  -2.333   3.051  0.00  0.00    -0.153 OA
ATOM     29  O   UNL     1       1.675  -1.304   4.850  0.00  0.00    -0.153 OA
BRANCH  27  30
ATOM     30  N   UNL     1      -0.788  -1.121   4.913  0.00  0.00    -0.204 NA
ATOM     31  H   UNL     1      -0.915  -2.025   5.527  0.00  0.00    +0.144 HD
ATOM     32  H   UNL     1      -1.672  -0.987   4.271  0.00  0.00    +0.144 HD
ENDBRANCH  27  30
ENDBRANCH  24  27
ENDBRANCH   4  21
TORSDOF 7
