REMARK  Name = ZINC42006376
REMARK  4 active torsions:
REMARK  status: ('A' for Active; 'I' for Inactive)
REMARK    1  A    between atoms: C_1  and  C_2
REMARK    2  A    between atoms: C_3  and  S_8
REMARK    3  A    between atoms: S_8  and  C_9
REMARK    4  A    between atoms: C_9  and  C_15
REMARK                            x       y       z     vdW  Elec       q    Type
REMARK                         _______ _______ _______ _____ _____    ______ ____
ROOT
ATOM      1  S   UNL     1       0.046  -0.008  -2.921  0.00  0.00    -0.098 S 
ENDROOT
BRANCH   1   4
ATOM      2  C   UNL     1       0.167   1.728  -0.183  0.00  0.00    +0.067 C 
ATOM      3  C   UNL     1       0.168   0.223  -0.101  0.00  0.00    +0.061 A 
ATOM      4  C   UNL     1       0.118  -0.524  -1.238  0.00  0.00    +0.070 A 
ATOM      5  S   UNL     1       0.145  -2.175  -0.550  0.00  0.00    -0.046 S 
ATOM      6  C   UNL     1       0.220  -1.696   1.171  0.00  0.00    +0.157 A 
ATOM      7  N   UNL     1       0.223  -0.379   1.075  0.00  0.00    -0.229 NA
ATOM      8  N   UNL     1       0.267  -2.496   2.306  0.00  0.00    -0.337 N 
ATOM      9  H   UNL     1       0.262  -3.462   2.219  0.00  0.00    +0.144 HD
ATOM     10  H   UNL     1       0.306  -2.088   3.185  0.00  0.00    +0.144 HD
ENDBRANCH   1   4
BRANCH   1  11
ATOM     11  C   UNL     1       0.003  -1.562  -3.855  0.00  0.00    +0.124 C 
ATOM     12  C   UNL     1      -1.211  -2.377  -3.419  0.00  0.00    +0.040 C 
ATOM     13  C   UNL     1      -1.111  -3.801  -3.974  0.00  0.00    +0.071 C 
ATOM     14  S   UNL     1      -1.124  -3.721  -5.790  0.00  0.00    -0.161 S 
ATOM     15  C   UNL     1       0.193  -2.523  -6.159  0.00  0.00    +0.071 C 
ATOM     16  C   UNL     1      -0.061  -1.249  -5.347  0.00  0.00    +0.040 C 
BRANCH  11  17
ATOM     17  C   UNL     1       1.256  -2.348  -3.567  0.00  0.00    +0.372 C 
ATOM     18  O   UNL     1       2.102  -1.893  -2.816  0.00  0.00    -0.245 OA
ATOM     19  O   UNL     1       1.424  -3.440  -4.084  0.00  0.00    -0.245 OA
ENDBRANCH  11  17
ENDBRANCH   1  11
TORSDOF 3
