REMARK  Name = ZINC40545108
REMARK  3 active torsions:
REMARK  status: ('A' for Active; 'I' for Inactive)
REMARK    1  A    between atoms: C_6  and  N_7
REMARK    2  A    between atoms: C_12  and  O_20
REMARK    3  A    between atoms: C_15  and  C_17
REMARK                            x       y       z     vdW  Elec       q    Type
REMARK                         _______ _______ _______ _____ _____    ______ ____
ROOT
ATOM      1  N   UNL     1      -1.200  -0.722   0.010  0.00  0.00    -0.269 N 
ATOM      2  C   UNL     1      -1.183  -2.065  -0.099  0.00  0.00    +0.307 C 
ATOM      3  O   UNL     1      -0.123  -2.661  -0.113  0.00  0.00    -0.252 OA
ATOM      4  N   UNL     1      -2.341  -2.748  -0.193  0.00  0.00    -0.269 N 
ATOM      5  C   UNL     1      -3.691  -2.154  -0.195  0.00  0.00    +0.141 C 
ATOM      6  C   UNL     1      -4.580  -3.194  -0.922  0.00  0.00    +0.134 C 
ATOM      7  C   UNL     1      -3.974  -4.530  -0.417  0.00  0.00    +0.067 C 
ATOM      8  C   UNL     1      -2.468  -4.207  -0.316  0.00  0.00    +0.193 C 
ATOM      9  H   UNL     1      -2.044  -0.253   0.099  0.00  0.00    +0.156 HD
ENDROOT
BRANCH   1  15
ATOM     10  C   UNL     1       1.071  -0.453  -0.768  0.00  0.00    +0.024 A 
ATOM     11  C   UNL     1       2.255   0.258  -0.781  0.00  0.00    +0.016 A 
ATOM     12  C   UNL     1       2.376   1.417  -0.035  0.00  0.00    +0.013 A 
ATOM     13  C   UNL     1       1.312   1.867   0.726  0.00  0.00    +0.016 A 
ATOM     14  C   UNL     1       0.126   1.160   0.743  0.00  0.00    +0.024 A 
ATOM     15  C   UNL     1       0.002  -0.004  -0.005  0.00  0.00    +0.035 A 
ATOM     16  I   UNL     1       4.174   2.492  -0.058  0.00  0.00    -0.044 I 
ENDBRANCH   1  15
BRANCH   8  17
ATOM     17  C   UNL     1      -1.884  -4.877   0.901  0.00  0.00    +0.376 C 
ATOM     18  O   UNL     1      -1.545  -4.207   1.862  0.00  0.00    -0.244 OA
ATOM     19  O   UNL     1      -1.749  -6.089   0.924  0.00  0.00    -0.244 OA
ENDBRANCH   8  17
BRANCH   6  20
ATOM     20  O   UNL     1      -5.947  -3.067  -0.523  0.00  0.00    -0.390 OA
ATOM     21  H   UNL     1      -6.339  -2.208  -0.731  0.00  0.00    +0.210 HD
ENDBRANCH   6  20
TORSDOF 3
