REMARK  Name = ZINC64291923
REMARK  9 active torsions:
REMARK  status: ('A' for Active; 'I' for Inactive)
REMARK    1  A    between atoms: C_1  and  C_2
REMARK    2  A    between atoms: C_2  and  C_3
REMARK    3  A    between atoms: C_3  and  C_4
REMARK    4  A    between atoms: C_4  and  C_5
REMARK    5  A    between atoms: C_4  and  N_24
REMARK    6  A    between atoms: C_10  and  C_14
REMARK    7  A    between atoms: C_11  and  C_13
REMARK    8  A    between atoms: C_17  and  O_20
REMARK    9  A    between atoms: O_20  and  C_21
REMARK                            x       y       z     vdW  Elec       q    Type
REMARK                         _______ _______ _______ _____ _____    ______ ____
ROOT
ATOM      1  C   UNL     1       1.550  -2.512  -2.439  0.00  0.00    +0.239 C 
ATOM      2  O   UNL     1       0.991  -2.888  -3.448  0.00  0.00    -0.273 OA
ATOM      3  N   UNL     1       2.895  -2.528  -2.369  0.00  0.00    -0.263 N 
ATOM      4  C   UNL     1       3.643  -2.975  -3.452  0.00  0.00    +0.165 A 
ATOM      5  N   UNL     1       4.953  -3.073  -3.579  0.00  0.00    -0.224 NA
ATOM      6  C   UNL     1       5.504  -3.526  -4.695  0.00  0.00    +0.083 A 
ATOM      7  C   UNL     1       4.700  -3.901  -5.735  0.00  0.00    +0.016 A 
ATOM      8  S   UNL     1       3.085  -3.578  -5.039  0.00  0.00    -0.057 S 
ATOM      9  C   UNL     1       5.072  -4.441  -7.092  0.00  0.00    +0.054 C 
ATOM     10  H   UNL     1       3.342  -2.227  -1.562  0.00  0.00    +0.157 HD
ENDROOT
BRANCH   6  11
ATOM     11  C   UNL     1       6.979  -3.627  -4.815  0.00  0.00    +0.001 A 
ATOM     12  C   UNL     1       7.551  -4.668  -5.544  0.00  0.00    +0.013 A 
ATOM     13  C   UNL     1       8.923  -4.758  -5.654  0.00  0.00    +0.046 A 
ATOM     14  C   UNL     1       9.734  -3.813  -5.039  0.00  0.00    +0.127 A 
ATOM     15  C   UNL     1       9.167  -2.775  -4.312  0.00  0.00    +0.046 A 
ATOM     16  C   UNL     1       7.795  -2.677  -4.203  0.00  0.00    +0.013 A 
BRANCH  14  17
ATOM     17  O   UNL     1      11.085  -3.905  -5.149  0.00  0.00    -0.434 OA
BRANCH  17  18
ATOM     18  C   UNL     1      11.859  -2.900  -4.492  0.00  0.00    +0.541 C 
ATOM     19  F   UNL     1      11.525  -1.643  -5.007  0.00  0.00    -0.166 F 
ATOM     20  F   UNL     1      11.591  -2.928  -3.119  0.00  0.00    -0.166 F 
ENDBRANCH  17  18
ENDBRANCH  14  17
ENDBRANCH   6  11
BRANCH   1  21
ATOM     21  C   UNL     1       0.739  -2.027  -1.265  0.00  0.00    +0.161 C 
BRANCH  21  22
ATOM     22  N   UNL     1      -0.631  -2.534  -1.375  0.00  0.00    -0.288 N 
ATOM     23  C   UNL     1      -1.385  -2.212  -2.446  0.00  0.00    +0.298 C 
ATOM     24  O   UNL     1      -0.927  -1.502  -3.320  0.00  0.00    -0.253 OA
ATOM     25  N   UNL     1      -2.645  -2.678  -2.547  0.00  0.00    -0.313 N 
ATOM     26  H   UNL     1      -0.997  -3.100  -0.678  0.00  0.00    +0.151 HD
ATOM     27  H   UNL     1      -3.010  -3.245  -1.849  0.00  0.00    +0.146 HD
ATOM     28  H   UNL     1      -3.187  -2.447  -3.317  0.00  0.00    +0.146 HD
ENDBRANCH  21  22
BRANCH  21  29
ATOM     29  C   UNL     1       0.718  -0.497  -1.257  0.00  0.00    +0.031 C 
BRANCH  29  31
ATOM     30  C   UNL     1      -0.019   1.526   0.010  0.00  0.00    +0.004 C 
ATOM     31  C   UNL     1       0.002  -0.004   0.002  0.00  0.00    -0.001 C 
ENDBRANCH  29  31
ENDBRANCH  21  29
ENDBRANCH   1  21
TORSDOF 7
