REMARK  Name = ZINC24977371
REMARK  7 active torsions:
REMARK  status: ('A' for Active; 'I' for Inactive)
REMARK    1  A    between atoms: C_1  and  C_2
REMARK    2  A    between atoms: C_5  and  C_33
REMARK    3  A    between atoms: C_6  and  N_8
REMARK    4  A    between atoms: C_9  and  C_11
REMARK    5  A    between atoms: C_14  and  N_17
REMARK    6  A    between atoms: N_17  and  S_18
REMARK    7  A    between atoms: S_18  and  C_21
REMARK                            x       y       z     vdW  Elec       q    Type
REMARK                         _______ _______ _______ _____ _____    ______ ____
ROOT
ATOM      1  C   UNL     1      -0.245   4.023   0.143  0.00  0.00    +0.037 A 
ATOM      2  C   UNL     1       0.952   3.308   0.036  0.00  0.00    +0.015 A 
ATOM      3  C   UNL     1       0.932   1.932   0.030  0.00  0.00    +0.025 A 
ATOM      4  C   UNL     1      -0.279   1.252   0.131  0.00  0.00    +0.048 A 
ATOM      5  C   UNL     1      -1.473   1.961   0.231  0.00  0.00    +0.025 A 
ATOM      6  C   UNL     1      -1.459   3.337   0.243  0.00  0.00    +0.015 A 
ENDROOT
BRANCH   1   8
ATOM      7  N   UNL     1      -1.381   6.185   0.253  0.00  0.00    -0.281 N 
ATOM      8  C   UNL     1      -0.227   5.498   0.150  0.00  0.00    +0.248 C 
ATOM      9  O   UNL     1       0.830   6.093   0.063  0.00  0.00    -0.270 OA
ATOM     10  H   UNL     1      -2.342   5.651   0.240  0.00  0.00    +0.155 HD
BRANCH   7  16
ATOM     11  C   UNL     1       1.004  10.277   1.571  0.00  0.00    +0.044 C 
ATOM     12  C   UNL     1      -0.213   9.588   1.010  0.00  0.00    -0.049 A 
ATOM     13  C   UNL     1      -1.309  10.334   0.615  0.00  0.00    +0.004 A 
ATOM     14  C   UNL     1      -2.428   9.706   0.100  0.00  0.00    +0.005 A 
ATOM     15  C   UNL     1      -2.453   8.331  -0.027  0.00  0.00    -0.029 A 
ATOM     16  C   UNL     1      -1.357   7.578   0.374  0.00  0.00    +0.037 A 
ATOM     17  C   UNL     1      -0.234   8.212   0.891  0.00  0.00    +0.027 A 
ATOM     18  C   UNL     1      -3.671   7.648  -0.594  0.00  0.00    +0.045 C 
ENDBRANCH   7  16
ENDBRANCH   1   8
BRANCH   4  19
ATOM     19  N   UNL     1      -0.296  -0.138   0.125  0.00  0.00    -0.216 N 
ATOM     20  H   UNL     1       0.297  -0.693  -0.618  0.00  0.00    +0.174 HD
BRANCH  19  21
ATOM     21  S   UNL     1      -1.208  -0.960   1.236  0.00  0.00    +0.072 S 
ATOM     22  O   UNL     1      -2.525  -0.434   1.148  0.00  0.00    -0.150 OA
ATOM     23  O   UNL     1      -0.926  -2.341   1.052  0.00  0.00    -0.150 OA
BRANCH  21  24
ATOM     24  C   UNL     1      -0.599  -0.529   2.832  0.00  0.00    +0.111 A 
ATOM     25  C   UNL     1      -1.201   0.492   3.547  0.00  0.00    +0.031 A 
ATOM     26  C   UNL     1      -0.731   0.836   4.799  0.00  0.00    +0.030 A 
ATOM     27  C   UNL     1       0.349   0.157   5.342  0.00  0.00    +0.067 A 
ATOM     28  C   UNL     1       0.956  -0.873   4.620  0.00  0.00    +0.069 A 
ATOM     29  C   UNL     1       0.474  -1.216   3.366  0.00  0.00    +0.056 A 
ATOM     30  N   UNL     1       1.996  -1.359   5.410  0.00  0.00    -0.306 N 
ATOM     31  H   UNL     1       2.624  -2.185   5.045  0.00  0.00    +0.170 HD
ATOM     32  C   UNL     1       2.020  -0.657   6.558  0.00  0.00    +0.325 A 
ATOM     33  O   UNL     1       2.809  -0.830   7.469  0.00  0.00    -0.247 OA
ATOM     34  N   UNL     1       1.039   0.265   6.547  0.00  0.00    -0.306 N 
ATOM     35  H   UNL     1       0.736   1.019   7.288  0.00  0.00    +0.170 HD
ENDBRANCH  21  24
ENDBRANCH  19  21
ENDBRANCH   4  19
TORSDOF 5
