REMARK  Name = ZINC19862880
REMARK  1 active torsions:
REMARK  status: ('A' for Active; 'I' for Inactive)
REMARK    1  A    between atoms: C_2  and  S_9
REMARK                            x       y       z     vdW  Elec       q    Type
REMARK                         _______ _______ _______ _____ _____    ______ ____
ROOT
ATOM      1  C   UNL     1      -2.451   3.699   0.035  0.00  0.00    +0.049 A 
ATOM      2  C   UNL     1      -3.617   2.944   0.036  0.00  0.00    +0.139 A 
ATOM      3  C   UNL     1      -3.531   1.567   0.028  0.00  0.00    +0.142 A 
ATOM      4  N   UNL     1      -2.358   0.962   0.018  0.00  0.00    -0.238 NA
ATOM      5  C   UNL     1      -1.224   1.645   0.017  0.00  0.00    +0.130 A 
ATOM      6  C   UNL     1      -1.236   3.037   0.030  0.00  0.00    +0.059 A 
ATOM      7 BR   UNL     1       0.385   4.009   0.036  0.00  0.00    -0.047 Br
ATOM      8  N   UNL     1      -0.011   0.966   0.007  0.00  0.00    -0.342 N 
ATOM      9  H   UNL     1       0.934   1.529   0.006  0.00  0.00    +0.144 HD
ATOM     10  H   UNL     1       0.004  -0.134   0.001  0.00  0.00    +0.144 HD
ENDROOT
BRANCH   2  11
ATOM     11  S   UNL     1      -5.191   3.737   0.049  0.00  0.00    +0.141 S 
ATOM     12  O   UNL     1      -4.995   5.035  -0.495  0.00  0.00    -0.140 OA
ATOM     13  O   UNL     1      -6.117   2.812  -0.502  0.00  0.00    -0.140 OA
ATOM     14  O   UNL     1      -5.585   3.932   1.506  0.00  0.00    -0.043 OA
ENDBRANCH   2  11
TORSDOF 1
