REMARK  Name = ZINC15205714
REMARK  6 active torsions:
REMARK  status: ('A' for Active; 'I' for Inactive)
REMARK    1  A    between atoms: C_8  and  O_12
REMARK    2  A    between atoms: O_12  and  C_13
REMARK    3  A    between atoms: C_15  and  O_28
REMARK    4  A    between atoms: C_17  and  O_27
REMARK    5  A    between atoms: C_19  and  O_26
REMARK    6  A    between atoms: C_21  and  C_24
REMARK                            x       y       z     vdW  Elec       q    Type
REMARK                         _______ _______ _______ _____ _____    ______ ____
ROOT
ATOM      1  C   UNL     1      -4.513  -0.121   0.043  0.00  0.00    +0.340 C 
ATOM      2  C   UNL     1      -4.840  -1.611  -0.087  0.00  0.00    +0.214 C 
ATOM      3  C   UNL     1      -4.267  -2.359   1.121  0.00  0.00    +0.180 C 
ATOM      4  C   UNL     1      -4.837  -1.749   2.404  0.00  0.00    +0.186 C 
ATOM      5  C   UNL     1      -4.510  -0.254   2.438  0.00  0.00    +0.266 C 
ATOM      6  O   UNL     1      -5.045   0.377   1.273  0.00  0.00    -0.322 OA
ENDROOT
BRANCH   5   7
ATOM      7  C   UNL     1      -5.118   0.367   3.669  0.00  0.00    +0.387 C 
ATOM      8  O   UNL     1      -5.993   1.193   3.560  0.00  0.00    -0.243 OA
ATOM      9  O   UNL     1      -4.689   0.001   4.887  0.00  0.00    -0.243 OA
ENDBRANCH   5   7
BRANCH   4  10
ATOM     10  O   UNL     1      -6.255  -1.928   2.429  0.00  0.00    -0.386 OA
ATOM     11  H   UNL     1      -6.684  -1.560   3.214  0.00  0.00    +0.210 HD
ENDBRANCH   4  10
BRANCH   3  12
ATOM     12  O   UNL     1      -4.629  -3.740   1.046  0.00  0.00    -0.386 OA
ATOM     13  H   UNL     1      -4.300  -4.191   0.256  0.00  0.00    +0.210 HD
ENDBRANCH   3  12
BRANCH   2  14
ATOM     14  O   UNL     1      -6.258  -1.786  -0.128  0.00  0.00    -0.383 OA
ATOM     15  H   UNL     1      -6.689  -1.334  -0.866  0.00  0.00    +0.210 HD
ENDBRANCH   2  14
BRANCH   1  16
ATOM     16  O   UNL     1      -3.095   0.058   0.031  0.00  0.00    -0.459 OA
BRANCH  16  24
ATOM     17  C   UNL     1       1.154   3.173   0.009  0.00  0.00    +0.017 A 
ATOM     18  C   UNL     1      -0.038   3.863   0.023  0.00  0.00    +0.027 A 
ATOM     19  C   UNL     1      -1.242   3.168   0.031  0.00  0.00    +0.050 A 
ATOM     20  C   UNL     1      -1.229   1.761   0.017  0.00  0.00    +0.043 A 
ATOM     21  C   UNL     1      -0.013   1.076   0.008  0.00  0.00    +0.029 A 
ATOM     22  C   UNL     1       1.168   1.784   0.001  0.00  0.00    +0.019 A 
ATOM     23 BR   UNL     1       2.818   0.861  -0.020  0.00  0.00    -0.050 Br
ATOM     24  C   UNL     1      -2.634   1.339   0.034  0.00  0.00    +0.149 A 
ATOM     25  C   UNL     1      -3.380   2.458   0.046  0.00  0.00    +0.130 A 
ATOM     26  N   UNL     1      -2.562   3.563   0.045  0.00  0.00    -0.358 N 
ATOM     27  H   UNL     1      -2.868   4.483   0.052  0.00  0.00    +0.165 HD
ENDBRANCH  16  24
ENDBRANCH   1  16
TORSDOF 6
