REMARK  Name = ZINC21162809
REMARK  11 active torsions:
REMARK  status: ('A' for Active; 'I' for Inactive)
REMARK    1  A    between atoms: C_1  and  C_2
REMARK    2  A    between atoms: C_2  and  C_3
REMARK    3  A    between atoms: C_2  and  C_4
REMARK    4  A    between atoms: C_2  and  C_5
REMARK    5  A    between atoms: C_8  and  C_11
REMARK    6  A    between atoms: C_14  and  S_17
REMARK    7  A    between atoms: N_15  and  N_16
REMARK    8  A    between atoms: S_17  and  C_18
REMARK    9  A    between atoms: C_18  and  C_19
REMARK   10  A    between atoms: N_21  and  N_22
REMARK   11  A    between atoms: C_23  and  C_25
REMARK                            x       y       z     vdW  Elec       q    Type
REMARK                         _______ _______ _______ _____ _____    ______ ____
ROOT
ATOM      1  C   UNL     1     -10.544   4.847   0.284  0.00  0.00    +0.182 A 
ATOM      2  N   UNL     1      -9.627   5.776   0.146  0.00  0.00    -0.127 NA
ATOM      3  N   UNL     1      -8.483   5.233  -0.073  0.00  0.00    -0.121 NA
ATOM      4  C   UNL     1      -8.601   3.925  -0.099  0.00  0.00    +0.209 A 
ATOM      5  N   UNL     1      -9.915   3.632   0.131  0.00  0.00    -0.224 N 
ENDROOT
BRANCH   1   9
ATOM      6  C   UNL     1     -14.675   5.471   1.055  0.00  0.00    -0.042 A 
ATOM      7  C   UNL     1     -14.114   4.225   1.272  0.00  0.00    +0.005 A 
ATOM      8  C   UNL     1     -12.773   4.015   1.024  0.00  0.00    +0.012 A 
ATOM      9  C   UNL     1     -11.982   5.064   0.552  0.00  0.00    +0.021 A 
ATOM     10  C   UNL     1     -12.552   6.320   0.341  0.00  0.00    +0.012 A 
ATOM     11  C   UNL     1     -13.896   6.515   0.588  0.00  0.00    +0.005 A 
BRANCH   6  13
ATOM     12  C   UNL     1     -16.433   5.405   2.803  0.00  0.00    +0.015 C 
ATOM     13  C   UNL     1     -16.140   5.692   1.329  0.00  0.00    -0.013 C 
ATOM     14  C   UNL     1     -16.504   7.144   1.010  0.00  0.00    +0.015 C 
ATOM     15  C   UNL     1     -16.970   4.753   0.451  0.00  0.00    +0.015 C 
ENDBRANCH   6  13
ENDBRANCH   1   9
BRANCH   5  16
ATOM     16  N   UNL     1     -10.487   2.393   0.195  0.00  0.00    -0.295 N 
ATOM     17  H   UNL     1      -9.868   1.495   0.054  0.00  0.00    +0.163 HD
ATOM     18  H   UNL     1     -11.565   2.294   0.388  0.00  0.00    +0.163 HD
ENDBRANCH   5  16
BRANCH   4  19
ATOM     19  S   UNL     1      -7.305   2.763  -0.371  0.00  0.00    -0.075 S 
BRANCH  19  20
ATOM     20  C   UNL     1      -5.909   3.895  -0.589  0.00  0.00    +0.174 C 
BRANCH  20  21
ATOM     21  C   UNL     1      -4.653   3.101  -0.842  0.00  0.00    +0.239 C 
ATOM     22  O   UNL     1      -4.697   1.890  -0.872  0.00  0.00    -0.273 OA
ATOM     23  N   UNL     1      -3.481   3.738  -1.034  0.00  0.00    -0.233 N 
ATOM     24  H   UNL     1      -3.441   4.837  -1.007  0.00  0.00    +0.173 HD
BRANCH  23  25
ATOM     25  N   UNL     1      -2.314   3.000  -1.270  0.00  0.00    -0.230 N 
ATOM     26  C   UNL     1      -1.142   3.637  -1.463  0.00  0.00    +0.267 C 
ATOM     27  O   UNL     1      -1.097   4.853  -1.432  0.00  0.00    -0.268 OA
ATOM     28  H   UNL     1      -2.354   1.901  -1.297  0.00  0.00    +0.173 HD
BRANCH  26  29
ATOM     29  C   UNL     1       0.080   2.865  -1.709  0.00  0.00    +0.075 A 
ATOM     30  C   UNL     1       1.370   3.319  -1.935  0.00  0.00    +0.021 A 
ATOM     31  C   UNL     1       2.339   2.370  -2.144  0.00  0.00    +0.008 A 
ATOM     32  C   UNL     1       1.996   1.056  -2.122  0.00  0.00    +0.046 A 
ATOM     33  S   UNL     1       0.293   1.096  -1.804  0.00  0.00    -0.092 S 
ENDBRANCH  26  29
ENDBRANCH  23  25
ENDBRANCH  20  21
ENDBRANCH  19  20
ENDBRANCH   4  19
TORSDOF 8
