REMARK  Name = ZINC27664431
REMARK  10 active torsions:
REMARK  status: ('A' for Active; 'I' for Inactive)
REMARK    1  A    between atoms: C_1  and  C_2
REMARK    2  A    between atoms: C_2  and  O_3
REMARK    3  A    between atoms: O_3  and  C_4
REMARK    4  A    between atoms: C_6  and  C_11
REMARK    5  A    between atoms: C_9  and  O_10
REMARK    6  A    between atoms: C_13  and  C_25
REMARK    7  A    between atoms: C_15  and  C_20
REMARK    8  A    between atoms: C_15  and  O_24
REMARK    9  A    between atoms: C_25  and  C_27
REMARK   10  A    between atoms: C_30  and  C_33
REMARK                            x       y       z     vdW  Elec       q    Type
REMARK                         _______ _______ _______ _____ _____    ______ ____
ROOT
ATOM      1  C   UNL     1      -4.816   0.830   0.920  0.00  0.00    +0.120 C 
ATOM      2  C   UNL     1      -3.844   1.715   0.134  0.00  0.00    +0.144 C 
ATOM      3  C   UNL     1      -4.410   1.931  -1.274  0.00  0.00    +0.243 C 
ATOM      4  N   UNL     1      -4.658   0.629  -1.896  0.00  0.00    -0.264 N 
ATOM      5  C   UNL     1      -4.959  -0.450  -1.160  0.00  0.00    +0.302 C 
ATOM      6  O   UNL     1      -5.165  -1.506  -1.727  0.00  0.00    -0.253 OA
ATOM      7  N   UNL     1      -5.042  -0.412   0.179  0.00  0.00    -0.292 N 
ATOM      8  H   UNL     1      -4.598   0.522  -2.990  0.00  0.00    +0.153 HD
ATOM      9  H   UNL     1      -5.285  -1.339   0.719  0.00  0.00    +0.151 HD
ENDROOT
BRANCH   1  12
ATOM     10  C   UNL     1      -4.020   0.989   4.610  0.00  0.00    +0.162 A 
ATOM     11  C   UNL     1      -4.561   1.282   3.368  0.00  0.00    +0.055 A 
ATOM     12  C   UNL     1      -4.228   0.510   2.270  0.00  0.00    -0.023 A 
ATOM     13  C   UNL     1      -3.360  -0.557   2.409  0.00  0.00    +0.009 A 
ATOM     14  C   UNL     1      -2.812  -0.850   3.644  0.00  0.00    +0.049 A 
ATOM     15  C   UNL     1      -3.142  -0.081   4.748  0.00  0.00    +0.158 A 
BRANCH  15  16
ATOM     16  O   UNL     1      -2.608  -0.372   5.965  0.00  0.00    -0.503 OA
ATOM     17  H   UNL     1      -1.915  -1.219   6.073  0.00  0.00    +0.292 HD
ENDBRANCH  15  16
BRANCH  10  18
ATOM     18  O   UNL     1      -4.346   1.748   5.691  0.00  0.00    -0.489 OA
BRANCH  18  20
ATOM     19  C   UNL     1      -5.499   3.562   6.794  0.00  0.00    +0.048 C 
ATOM     20  C   UNL     1      -5.253   2.830   5.473  0.00  0.00    +0.226 C 
ENDBRANCH  18  20
ENDBRANCH  10  18
ENDBRANCH   1  12
BRANCH   3  21
ATOM     21  C   UNL     1      -3.402   2.717  -2.115  0.00  0.00    +0.436 C 
ATOM     22  F   UNL     1      -2.253   1.943  -2.309  0.00  0.00    -0.166 F 
ATOM     23  F   UNL     1      -3.971   3.025  -3.356  0.00  0.00    -0.166 F 
ATOM     24  F   UNL     1      -3.062   3.900  -1.451  0.00  0.00    -0.166 F 
ENDBRANCH   3  21
BRANCH   3  25
ATOM     25  O   UNL     1      -5.636   2.661  -1.190  0.00  0.00    -0.364 OA
ATOM     26  H   UNL     1      -6.191   2.911  -2.105  0.00  0.00    +0.212 HD
ENDBRANCH   3  25
BRANCH   2  27
ATOM     27  C   UNL     1      -2.502   1.036   0.041  0.00  0.00    +0.173 C 
ATOM     28  O   UNL     1      -2.394  -0.013  -0.558  0.00  0.00    -0.292 OA
BRANCH  27  29
ATOM     29  C   UNL     1      -1.323   1.644   0.678  0.00  0.00    +0.018 A 
ATOM     30  C   UNL     1      -0.101   0.966   0.687  0.00  0.00    +0.011 A 
ATOM     31  C   UNL     1       1.001   1.546   1.281  0.00  0.00    +0.004 A 
ATOM     32  C   UNL     1       0.896   2.792   1.873  0.00  0.00    -0.050 A 
ATOM     33  C   UNL     1      -0.312   3.468   1.873  0.00  0.00    +0.004 A 
ATOM     34  C   UNL     1      -1.422   2.902   1.283  0.00  0.00    +0.011 A 
ATOM     35  C   UNL     1       2.105   3.418   2.520  0.00  0.00    +0.044 C 
ENDBRANCH  27  29
ENDBRANCH   2  27
TORSDOF 8
