REMARK  Name = ZINC33597591
REMARK  10 active torsions:
REMARK  status: ('A' for Active; 'I' for Inactive)
REMARK    1  A    between atoms: C_1  and  C_2
REMARK    2  A    between atoms: C_2  and  C_4
REMARK    3  A    between atoms: C_7  and  N_10
REMARK    4  A    between atoms: C_15  and  C_34
REMARK    5  A    between atoms: C_18  and  C_23
REMARK    6  A    between atoms: C_18  and  C_31
REMARK    7  A    between atoms: C_23  and  C_24
REMARK    8  A    between atoms: C_27  and  O_30
REMARK    9  A    between atoms: C_39  and  O_40
REMARK   10  A    between atoms: O_40  and  C_41
REMARK                            x       y       z     vdW  Elec       q    Type
REMARK                         _______ _______ _______ _____ _____    ______ ____
ROOT
ATOM      1  N   UNL     1      -5.179  -2.866   0.208  0.00  0.00    -0.210 N 
ATOM      2  C   UNL     1      -6.446  -2.433  -0.093  0.00  0.00    +0.229 C 
ATOM      3  O   UNL     1      -6.783  -1.326  -0.457  0.00  0.00    -0.275 OA
ATOM      4  C   UNL     1      -7.289  -3.583   0.118  0.00  0.00    +0.077 C 
ATOM      5  C   UNL     1      -8.610  -4.111  -0.264  0.00  0.00    -0.023 C 
ATOM      6  N   UNL     1      -8.541  -5.527   0.238  0.00  0.00    +0.396 N 
ATOM      7  C   UNL     1      -7.100  -5.905   0.340  0.00  0.00    +0.052 C 
ATOM      8  C   UNL     1      -6.341  -4.760  -0.347  0.00  0.00    +0.086 C 
ATOM      9  C   UNL     1      -5.095  -4.226   0.303  0.00  0.00    +0.229 C 
ATOM     10  O   UNL     1      -4.201  -4.871   0.808  0.00  0.00    -0.275 OA
ATOM     11  H   UNL     1      -8.976  -5.589   1.146  0.00  0.00    -0.083 HD
ATOM     12  H   UNL     1      -9.011  -6.142  -0.410  0.00  0.00    -0.083 HD
ENDROOT
BRANCH   1  16
ATOM     13  C   UNL     1      -1.934  -0.308   0.762  0.00  0.00    +0.017 A 
ATOM     14  C   UNL     1      -3.198   0.215   0.462  0.00  0.00    +0.013 A 
ATOM     15  C   UNL     1      -4.266  -0.633   0.280  0.00  0.00    +0.024 A 
ATOM     16  C   UNL     1      -4.092  -2.009   0.394  0.00  0.00    +0.044 A 
ATOM     17  C   UNL     1      -2.838  -2.534   0.692  0.00  0.00    +0.024 A 
ATOM     18  C   UNL     1      -1.763  -1.694   0.870  0.00  0.00    +0.013 A 
BRANCH  13  20
ATOM     19  C   UNL     1      -0.978   2.084   0.842  0.00  0.00    +0.091 C 
ATOM     20  C   UNL     1      -0.791   0.593   0.958  0.00  0.00    +0.160 C 
ATOM     21  O   UNL     1       0.304   0.138   1.213  0.00  0.00    -0.292 OA
ENDBRANCH  13  20
ENDBRANCH   1  16
BRANCH   5  22
ATOM     22  C   UNL     1      -9.713  -3.349   0.425  0.00  0.00    -0.019 A 
ATOM     23  C   UNL     1      -9.425  -2.549   1.514  0.00  0.00    +0.005 A 
ATOM     24  C   UNL     1     -10.436  -1.850   2.146  0.00  0.00    +0.000 A 
ATOM     25  C   UNL     1     -11.738  -1.949   1.690  0.00  0.00    +0.004 A 
ATOM     26  C   UNL     1     -12.031  -2.747   0.602  0.00  0.00    +0.046 A 
ATOM     27  C   UNL     1     -11.017  -3.445  -0.038  0.00  0.00    +0.122 A 
BRANCH  27  28
ATOM     28  O   UNL     1     -11.302  -4.226  -1.113  0.00  0.00    -0.495 OA
ATOM     29  C   UNL     1     -12.667  -4.278  -1.534  0.00  0.00    +0.277 C 
ENDBRANCH  27  28
ENDBRANCH   5  22
BRANCH   7  30
ATOM     30  C   UNL     1      -6.847  -7.197  -0.394  0.00  0.00    +0.347 C 
ATOM     31  O   UNL     1      -7.770  -7.782  -0.935  0.00  0.00    -0.248 OA
ATOM     32  O   UNL     1      -5.719  -7.657  -0.447  0.00  0.00    -0.248 OA
ENDBRANCH   7  30
BRANCH   7  33
ATOM     33  C   UNL     1      -6.691  -6.040   1.808  0.00  0.00    +0.035 C 
BRANCH  33  34
ATOM     34  C   UNL     1      -7.541  -7.092   2.472  0.00  0.00    -0.048 A 
ATOM     35  C   UNL     1      -8.673  -6.722   3.174  0.00  0.00    +0.007 A 
ATOM     36  C   UNL     1      -9.454  -7.685   3.785  0.00  0.00    +0.045 A 
ATOM     37  C   UNL     1      -9.101  -9.023   3.692  0.00  0.00    +0.117 A 
ATOM     38  C   UNL     1      -7.965  -9.392   2.987  0.00  0.00    +0.045 A 
ATOM     39  C   UNL     1      -7.191  -8.426   2.374  0.00  0.00    +0.007 A 
BRANCH  37  40
ATOM     40  O   UNL     1      -9.868  -9.972   4.292  0.00  0.00    -0.507 OA
ATOM     41  H   UNL     1     -10.572 -10.322   3.729  0.00  0.00    +0.292 HD
ENDBRANCH  37  40
ENDBRANCH  33  34
ENDBRANCH   7  33
TORSDOF 8
