REMARK  Name = ZINC04192563
REMARK  5 active torsions:
REMARK  status: ('A' for Active; 'I' for Inactive)
REMARK    1  A    between atoms: C_3  and  C_6
REMARK    2  A    between atoms: C_15  and  C_16
REMARK    3  A    between atoms: C_21  and  N_30
REMARK    4  A    between atoms: C_22  and  C_24
REMARK    5  A    between atoms: N_26  and  C_27
REMARK                            x       y       z     vdW  Elec       q    Type
REMARK                         _______ _______ _______ _____ _____    ______ ____
ROOT
ATOM      1  C   UNL     1       3.686   0.863   0.248  0.00  0.00    +0.052 C 
ATOM      2  C   UNL     1       4.365  -0.303   0.290  0.00  0.00    -0.018 C 
ATOM      3  C   UNL     1       5.851  -0.454   0.506  0.00  0.00    +0.042 C 
ATOM      4  C   UNL     1       6.116  -1.965   0.468  0.00  0.00    +0.043 C 
ATOM      5  C   UNL     1       4.777  -2.624   0.233  0.00  0.00    -0.010 A 
ATOM      6  C   UNL     1       3.785  -1.646   0.140  0.00  0.00    +0.072 A 
ATOM      7  N   UNL     1       2.512  -2.008  -0.064  0.00  0.00    -0.239 NA
ATOM      8  C   UNL     1       2.155  -3.264  -0.177  0.00  0.00    +0.112 A 
ATOM      9  C   UNL     1       3.076  -4.334  -0.094  0.00  0.00    +0.040 A 
ATOM     10  C   UNL     1       4.446  -3.968   0.114  0.00  0.00    +0.034 A 
ATOM     11  C   UNL     1       2.533  -5.623  -0.237  0.00  0.00    +0.054 A 
ATOM     12  C   UNL     1       1.174  -5.764  -0.443  0.00  0.00    +0.097 A 
ATOM     13  S   UNL     1       0.597  -4.077  -0.445  0.00  0.00    -0.062 S 
ENDROOT
BRANCH   1  16
ATOM     14  C   UNL     1       0.091   1.484   0.133  0.00  0.00    +0.042 A 
ATOM     15  C   UNL     1       1.412   1.954   0.225  0.00  0.00    +0.049 A 
ATOM     16  C   UNL     1       2.224   0.855   0.183  0.00  0.00    +0.128 A 
ATOM     17  O   UNL     1       1.441  -0.237   0.070  0.00  0.00    -0.464 OA
ATOM     18  C   UNL     1       0.153   0.139   0.039  0.00  0.00    +0.195 A 
ENDBRANCH   1  16
BRANCH  10  19
ATOM     19  C   UNL     1       5.488  -5.005   0.218  0.00  0.00    +0.136 A 
ATOM     20  C   UNL     1       5.633  -5.894   1.239  0.00  0.00    +0.050 A 
ATOM     21  C   UNL     1       6.749  -6.692   0.927  0.00  0.00    +0.042 A 
ATOM     22  C   UNL     1       7.227  -6.258  -0.257  0.00  0.00    +0.196 A 
ATOM     23  O   UNL     1       6.460  -5.243  -0.685  0.00  0.00    -0.463 OA
ENDBRANCH  10  19
BRANCH  12  24
ATOM     24  C   UNL     1       0.425  -6.953  -0.611  0.00  0.00    +0.253 C 
ATOM     25  O   UNL     1       0.985  -8.035  -0.581  0.00  0.00    -0.270 OA
ATOM     26  N   UNL     1      -0.907  -6.889  -0.803  0.00  0.00    -0.308 N 
ATOM     27  H   UNL     1      -1.353  -6.028  -0.826  0.00  0.00    +0.149 HD
BRANCH  26  28
ATOM     28  C   UNL     1      -1.682  -8.120  -0.976  0.00  0.00    +0.073 C 
ATOM     29  C   UNL     1      -3.013  -8.229  -0.229  0.00  0.00    +0.024 C 
ATOM     30  C   UNL     1      -3.001  -8.022  -1.745  0.00  0.00    +0.024 C 
ENDBRANCH  26  28
ENDBRANCH  12  24
BRANCH  11  31
ATOM     31  N   UNL     1       3.353  -6.742  -0.172  0.00  0.00    -0.356 N 
ATOM     32  H   UNL     1       3.010  -7.575   0.188  0.00  0.00    +0.142 HD
ATOM     33  H   UNL     1       4.269  -6.691  -0.487  0.00  0.00    +0.142 HD
ENDBRANCH  11  31
TORSDOF 5
