REMARK  Name = ZINC58643877
REMARK  7 active torsions:
REMARK  status: ('A' for Active; 'I' for Inactive)
REMARK    1  A    between atoms: C_8  and  C_10
REMARK    2  A    between atoms: N_12  and  C_13
REMARK    3  A    between atoms: C_13  and  C_14
REMARK    4  A    between atoms: N_16  and  C_17
REMARK    5  A    between atoms: C_20  and  C_23
REMARK    6  A    between atoms: C_23  and  S_24
REMARK    7  A    between atoms: S_24  and  N_27
REMARK                            x       y       z     vdW  Elec       q    Type
REMARK                         _______ _______ _______ _____ _____    ______ ____
ROOT
ATOM      1  C   UNL     1       6.369  -5.787  -0.091  0.00  0.00    +0.234 C 
ATOM      2  O   UNL     1       7.021  -4.764  -0.100  0.00  0.00    -0.274 OA
ATOM      3  N   UNL     1       6.990  -6.982  -0.101  0.00  0.00    -0.284 N 
ATOM      4  H   UNL     1       6.472  -7.799  -0.025  0.00  0.00    +0.155 HD
ENDROOT
BRANCH   3   5
ATOM      5  C   UNL     1       8.383  -7.046  -0.220  0.00  0.00    +0.033 A 
ATOM      6  C   UNL     1       8.973  -8.082  -0.932  0.00  0.00    +0.023 A 
ATOM      7  C   UNL     1      10.348  -8.143  -1.048  0.00  0.00    +0.007 A 
ATOM      8  C   UNL     1      11.137  -7.173  -0.456  0.00  0.00    -0.025 A 
ATOM      9  C   UNL     1      10.552  -6.141   0.254  0.00  0.00    +0.007 A 
ATOM     10  C   UNL     1       9.177  -6.071   0.368  0.00  0.00    +0.023 A 
BRANCH   8  11
ATOM     11  C   UNL     1      12.636  -7.242  -0.585  0.00  0.00    +0.219 C 
BRANCH  11  12
ATOM     12  S   UNL     1      13.159  -6.333  -2.065  0.00  0.00    +0.031 S 
ATOM     13  O   UNL     1      12.713  -7.005  -3.235  0.00  0.00    -0.158 OA
ATOM     14  O   UNL     1      12.923  -4.942  -1.894  0.00  0.00    -0.158 OA
BRANCH  12  15
ATOM     15  N   UNL     1      14.808  -6.481  -2.095  0.00  0.00    -0.208 NA
ATOM     16  H   UNL     1      15.280  -6.480  -2.943  0.00  0.00    +0.144 HD
ATOM     17  H   UNL     1      15.303  -6.568  -1.265  0.00  0.00    +0.144 HD
ENDBRANCH  12  15
ENDBRANCH  11  12
ENDBRANCH   8  11
ENDBRANCH   3   5
BRANCH   1  18
ATOM     18  C   UNL     1       4.863  -5.720  -0.067  0.00  0.00    +0.200 C 
BRANCH  18  21
ATOM     19  C   UNL     1       3.124  -4.013  -0.039  0.00  0.00    +0.253 C 
ATOM     20  O   UNL     1       2.293  -4.902  -0.027  0.00  0.00    -0.270 OA
ATOM     21  N   UNL     1       4.437  -4.318  -0.060  0.00  0.00    -0.302 N 
ATOM     22  H   UNL     1       5.099  -3.609  -0.070  0.00  0.00    +0.150 HD
BRANCH  19  30
ATOM     23  C   UNL     1      -0.017   1.353   0.013  0.00  0.00    +0.001 A 
ATOM     24  C   UNL     1       1.156   2.098  -0.004  0.00  0.00    +0.001 A 
ATOM     25  C   UNL     1       2.373   1.448  -0.024  0.00  0.00    +0.016 A 
ATOM     26  C   UNL     1       2.408   0.070  -0.025  0.00  0.00    +0.021 A 
ATOM     27  C   UNL     1       1.230  -0.714  -0.008  0.00  0.00    +0.008 A 
ATOM     28  C   UNL     1       0.001  -0.005   0.012  0.00  0.00    +0.010 A 
ATOM     29  C   UNL     1       1.432  -2.107  -0.012  0.00  0.00    +0.068 A 
ATOM     30  C   UNL     1       2.697  -2.608  -0.032  0.00  0.00    +0.093 A 
ATOM     31  S   UNL     1       3.708  -1.138  -0.046  0.00  0.00    -0.082 S 
ATOM     32 CL   UNL     1       0.070  -3.183   0.009  0.00  0.00    -0.082 Cl
ENDBRANCH  19  30
ENDBRANCH  18  21
ENDBRANCH   1  18
TORSDOF 7
