REMARK  Name = ZINC14668668
REMARK  13 active torsions:
REMARK  status: ('A' for Active; 'I' for Inactive)
REMARK    1  A    between atoms: C_1  and  C_2
REMARK    2  A    between atoms: C_2  and  C_3
REMARK    3  A    between atoms: C_3  and  C_4
REMARK    4  A    between atoms: N_6  and  C_7
REMARK    5  A    between atoms: C_10  and  C_13
REMARK    6  A    between atoms: N_15  and  N_16
REMARK    7  A    between atoms: N_16  and  C_17
REMARK    8  A    between atoms: C_17  and  N_19
REMARK    9  A    between atoms: C_20  and  C_22
REMARK   10  A    between atoms: C_27  and  O_28
REMARK   11  A    between atoms: O_28  and  C_29
REMARK   12  A    between atoms: C_29  and  C_30
REMARK   13  A    between atoms: C_29  and  C_31
REMARK                            x       y       z     vdW  Elec       q    Type
REMARK                         _______ _______ _______ _____ _____    ______ ____
ROOT
ATOM      1  N   UNL     1       1.800   0.607   0.340  0.00  0.00    -0.245 N 
ATOM      2  H   UNL     1       1.866  -0.345   0.516  0.00  0.00    +0.172 HD
ENDROOT
BRANCH   1   5
ATOM      3  C   UNL     1      -0.571   0.504   0.529  0.00  0.00    +0.260 C 
ATOM      4  O   UNL     1      -0.488  -0.689   0.750  0.00  0.00    -0.269 OA
ATOM      5  N   UNL     1       0.544   1.228   0.311  0.00  0.00    -0.231 N 
ATOM      6  H   UNL     1       0.478   2.180   0.135  0.00  0.00    +0.173 HD
BRANCH   3  10
ATOM      7  C   UNL     1      -4.378   2.384   0.426  0.00  0.00    +0.033 A 
ATOM      8  C   UNL     1      -4.285   1.020   0.680  0.00  0.00    +0.024 A 
ATOM      9  C   UNL     1      -3.052   0.407   0.714  0.00  0.00    +0.015 A 
ATOM     10  C   UNL     1      -1.894   1.157   0.494  0.00  0.00    +0.038 A 
ATOM     11  C   UNL     1      -1.991   2.529   0.245  0.00  0.00    +0.015 A 
ATOM     12  C   UNL     1      -3.227   3.135   0.207  0.00  0.00    +0.024 A 
BRANCH   7  15
ATOM     13  C   UNL     1      -6.699   2.329  -0.070  0.00  0.00    +0.217 C 
ATOM     14  O   UNL     1      -6.561   1.221  -0.544  0.00  0.00    -0.275 OA
ATOM     15  N   UNL     1      -5.628   3.002   0.393  0.00  0.00    -0.285 N 
ATOM     16  H   UNL     1      -5.726   3.916   0.703  0.00  0.00    +0.155 HD
BRANCH  13  17
ATOM     17  C   UNL     1      -8.069   2.953   0.000  0.00  0.00    +0.096 C 
BRANCH  17  19
ATOM     18  C   UNL     1     -10.491   2.621  -0.516  0.00  0.00    +0.004 C 
ATOM     19  C   UNL     1      -9.101   1.987  -0.588  0.00  0.00    +0.006 C 
ENDBRANCH  17  19
ENDBRANCH  13  17
ENDBRANCH   7  15
ENDBRANCH   3  10
ENDBRANCH   1   5
BRANCH   1  20
ATOM     20  C   UNL     1       2.915   1.331   0.122  0.00  0.00    +0.153 C 
ATOM     21  S   UNL     1       4.449   0.572   0.156  0.00  0.00    -0.017 S 
BRANCH  20  22
ATOM     22  N   UNL     1       2.823   2.653  -0.123  0.00  0.00    -0.263 N 
ATOM     23  C   UNL     1       3.939   3.378  -0.341  0.00  0.00    +0.253 C 
ATOM     24  O   UNL     1       5.028   2.838  -0.317  0.00  0.00    -0.270 OA
ATOM     25  H   UNL     1       1.954   3.084  -0.143  0.00  0.00    +0.157 HD
BRANCH  23  26
ATOM     26  C   UNL     1       3.838   4.824  -0.609  0.00  0.00    +0.080 A 
ATOM     27  C   UNL     1       2.587   5.447  -0.644  0.00  0.00    +0.032 A 
ATOM     28  C   UNL     1       2.501   6.801  -0.889  0.00  0.00    +0.019 A 
ATOM     29  C   UNL     1       3.648   7.546  -1.113  0.00  0.00    +0.019 A 
ATOM     30  C   UNL     1       4.889   6.941  -1.087  0.00  0.00    +0.047 A 
ATOM     31  C   UNL     1       4.995   5.581  -0.836  0.00  0.00    +0.133 A 
ATOM     32 BR   UNL     1       0.808   7.644  -0.928  0.00  0.00    -0.050 Br
BRANCH  31  33
ATOM     33  O   UNL     1       6.214   4.986  -0.811  0.00  0.00    -0.489 OA
BRANCH  33  34
ATOM     34  C   UNL     1       7.344   5.810  -1.106  0.00  0.00    +0.167 C 
ATOM     35  C   UNL     1       8.599   5.196  -0.482  0.00  0.00    +0.051 C 
ATOM     36  C   UNL     1       7.523   5.906  -2.622  0.00  0.00    +0.051 C 
ENDBRANCH  33  34
ENDBRANCH  31  33
ENDBRANCH  23  26
ENDBRANCH  20  22
ENDBRANCH   1  20
TORSDOF 10
