REMARK  Name = ZINC00801317
REMARK  11 active torsions:
REMARK  status: ('A' for Active; 'I' for Inactive)
REMARK    1  A    between atoms: C_1  and  C_2
REMARK    2  A    between atoms: C_5  and  C_8
REMARK    3  A    between atoms: N_12  and  C_13
REMARK    4  A    between atoms: C_13  and  C_14
REMARK    5  A    between atoms: C_13  and  C_16
REMARK    6  A    between atoms: C_13  and  C_18
REMARK    7  A    between atoms: C_14  and  O_15
REMARK    8  A    between atoms: C_16  and  O_17
REMARK    9  A    between atoms: C_18  and  O_19
REMARK   10  A    between atoms: N_20  and  C_27
REMARK   11  A    between atoms: N_23  and  C_26
REMARK                            x       y       z     vdW  Elec       q    Type
REMARK                         _______ _______ _______ _____ _____    ______ ____
ROOT
ATOM      1  C   UNL     1      -1.401   3.334   2.397  0.00  0.00    +0.064 A 
ATOM      2  C   UNL     1      -1.759   4.533   1.807  0.00  0.00    +0.089 A 
ATOM      3  C   UNL     1      -0.769   4.781   0.746  0.00  0.00    +0.076 A 
ATOM      4  C   UNL     1       0.090   3.747   0.775  0.00  0.00    +0.113 A 
ATOM      5  N   UNL     1      -0.287   2.874   1.761  0.00  0.00    -0.331 N 
ATOM      6  N   UNL     1      -0.905   5.947  -0.015  0.00  0.00    -0.295 N 
ATOM      7  C   UNL     1      -1.914   6.801   0.232  0.00  0.00    +0.332 A 
ATOM      8  O   UNL     1      -1.998   7.804  -0.452  0.00  0.00    -0.246 OA
ATOM      9  N   UNL     1      -2.833   6.609   1.188  0.00  0.00    -0.263 N 
ATOM     10  C   UNL     1      -2.819   5.526   1.994  0.00  0.00    +0.266 A 
ATOM     11  O   UNL     1      -3.666   5.379   2.855  0.00  0.00    -0.267 OA
ATOM     12  C   UNL     1      -3.889   7.610   1.365  0.00  0.00    +0.157 C 
ATOM     13  C   UNL     1       0.054   6.239  -1.082  0.00  0.00    +0.154 C 
ENDROOT
BRANCH   1  18
ATOM     14  C   UNL     1      -4.129   0.755   6.757  0.00  0.00    +0.044 C 
ATOM     15  C   UNL     1      -3.414   1.430   5.615  0.00  0.00    -0.050 A 
ATOM     16  C   UNL     1      -2.506   2.442   5.873  0.00  0.00    +0.004 A 
ATOM     17  C   UNL     1      -1.848   3.065   4.832  0.00  0.00    +0.010 A 
ATOM     18  C   UNL     1      -2.101   2.672   3.516  0.00  0.00    -0.001 A 
ATOM     19  C   UNL     1      -3.024   1.655   3.263  0.00  0.00    +0.010 A 
ATOM     20  C   UNL     1      -3.670   1.037   4.313  0.00  0.00    +0.004 A 
ENDBRANCH   1  18
BRANCH   5  21
ATOM     21  C   UNL     1       0.409   1.627   2.087  0.00  0.00    +0.114 C 
BRANCH  21  22
ATOM     22  C   UNL     1       0.558   0.779   0.823  0.00  0.00    +0.188 C 
BRANCH  22  23
ATOM     23  O   UNL     1      -0.736   0.478   0.296  0.00  0.00    -0.393 OA
ATOM     24  H   UNL     1      -0.719  -0.058  -0.508  0.00  0.00    +0.209 HD
ENDBRANCH  22  23
ENDBRANCH  21  22
BRANCH  21  25
ATOM     25  C   UNL     1      -0.397   0.851   3.130  0.00  0.00    +0.188 C 
BRANCH  25  26
ATOM     26  O   UNL     1       0.322  -0.325   3.509  0.00  0.00    -0.393 OA
ATOM     27  H   UNL     1      -0.131  -0.867   4.169  0.00  0.00    +0.209 HD
ENDBRANCH  25  26
ENDBRANCH  21  25
BRANCH  21  28
ATOM     28  C   UNL     1       1.795   1.950   2.651  0.00  0.00    +0.188 C 
BRANCH  28  29
ATOM     29  O   UNL     1       1.662   2.841   3.760  0.00  0.00    -0.393 OA
ATOM     30  H   UNL     1       2.503   3.090   4.168  0.00  0.00    +0.209 HD
ENDBRANCH  28  29
ENDBRANCH  21  28
ENDBRANCH   5  21
TORSDOF 8
