REMARK  Name = ZINC47872132
REMARK  7 active torsions:
REMARK  status: ('A' for Active; 'I' for Inactive)
REMARK    1  A    between atoms: C_1  and  C_2
REMARK    2  A    between atoms: C_7  and  N_12
REMARK    3  A    between atoms: C_9  and  C_11
REMARK    4  A    between atoms: N_12  and  C_13
REMARK    5  A    between atoms: C_13  and  N_15
REMARK    6  A    between atoms: N_15  and  N_16
REMARK    7  A    between atoms: C_17  and  C_19
REMARK                            x       y       z     vdW  Elec       q    Type
REMARK                         _______ _______ _______ _____ _____    ______ ____
ROOT
ATOM      1  C   UNL     1      -0.873  -3.776   1.733  0.00  0.00    +0.147 C 
ATOM      2  S   UNL     1       0.401  -4.744   2.342  0.00  0.00    -0.017 S 
ENDROOT
BRANCH   1   3
ATOM      3  N   UNL     1      -0.612  -2.548   1.244  0.00  0.00    -0.322 N 
ATOM      4  H   UNL     1      -1.333  -2.000   0.898  0.00  0.00    +0.148 HD
BRANCH   3  10
ATOM      5  C   UNL     1      -0.019   1.526   0.010  0.00  0.00    +0.008 C 
ATOM      6  C   UNL     1       0.002  -0.004   0.002  0.00  0.00    -0.009 C 
ATOM      7  C   UNL     1       0.718  -0.497  -1.257  0.00  0.00    +0.003 C 
ATOM      8  C   UNL     1       0.739  -2.027  -1.265  0.00  0.00    +0.002 C 
ATOM      9  C   UNL     1       1.479  -2.534  -0.026  0.00  0.00    +0.022 C 
ATOM     10  C   UNL     1       0.763  -2.041   1.233  0.00  0.00    +0.075 C 
ATOM     11  C   UNL     1       0.742  -0.511   1.242  0.00  0.00    +0.009 C 
ATOM     12  C   UNL     1       0.026  -0.018   2.500  0.00  0.00    +0.009 C 
ENDBRANCH   3  10
ENDBRANCH   1   3
BRANCH   1  13
ATOM     13  N   UNL     1      -2.137  -4.243   1.742  0.00  0.00    -0.246 N 
ATOM     14  H   UNL     1      -2.325  -5.127   2.094  0.00  0.00    +0.172 HD
BRANCH  13  15
ATOM     15  N   UNL     1      -3.180  -3.451   1.244  0.00  0.00    -0.229 N 
ATOM     16  C   UNL     1      -4.444  -3.917   1.253  0.00  0.00    +0.295 C 
ATOM     17  O   UNL     1      -4.681  -5.027   1.695  0.00  0.00    -0.265 OA
ATOM     18  H   UNL     1      -2.992  -2.567   0.892  0.00  0.00    +0.173 HD
BRANCH  16  19
ATOM     19  C   UNL     1      -5.535  -3.089   0.732  0.00  0.00    +0.192 A 
ATOM     20  C   UNL     1      -6.856  -3.436   0.687  0.00  0.00    +0.056 A 
ATOM     21  C   UNL     1      -7.539  -2.352   0.115  0.00  0.00    +0.058 A 
ATOM     22  C   UNL     1      -6.617  -1.401  -0.162  0.00  0.00    +0.171 A 
ATOM     23  O   UNL     1      -5.411  -1.847   0.217  0.00  0.00    -0.444 OA
ATOM     24 BR   UNL     1      -6.971   0.282  -0.947  0.00  0.00    -0.008 Br
ENDBRANCH  16  19
ENDBRANCH  13  15
ENDBRANCH   1  13
TORSDOF 5
