REMARK  Name = ZINC09515439
REMARK  3 active torsions:
REMARK  status: ('A' for Active; 'I' for Inactive)
REMARK    1  A    between atoms: C_10  and  C_11
REMARK    2  A    between atoms: C_14  and  C_16
REMARK    3  A    between atoms: N_18  and  N_19
REMARK                            x       y       z     vdW  Elec       q    Type
REMARK                         _______ _______ _______ _____ _____    ______ ____
ROOT
ATOM      1  C   UNL     1      -1.391   5.996   0.046  0.00  0.00    +0.021 A 
ATOM      2  C   UNL     1      -1.795   7.027   0.882  0.00  0.00    +0.017 A 
ATOM      3  C   UNL     1      -3.041   7.561   0.711  0.00  0.00    +0.021 A 
ATOM      4  C   UNL     1      -3.853   7.051  -0.292  0.00  0.00    +0.076 A 
ATOM      5  S   UNL     1      -2.815   5.788  -1.010  0.00  0.00    -0.084 S 
ENDROOT
BRANCH   1  15
ATOM      6  C   UNL     1      -0.013   1.076   0.008  0.00  0.00    +0.001 A 
ATOM      7  C   UNL     1      -1.234   1.746   0.017  0.00  0.00    +0.001 A 
ATOM      8  C   UNL     1      -1.286   3.107   0.030  0.00  0.00    +0.009 A 
ATOM      9  C   UNL     1      -0.096   3.847   0.023  0.00  0.00    -0.010 A 
ATOM     10  C   UNL     1       1.147   3.168   0.008  0.00  0.00    -0.017 A 
ATOM     11  C   UNL     1       1.163   1.763   0.000  0.00  0.00    +0.008 A 
ATOM     12  C   UNL     1       2.341   3.910  -0.000  0.00  0.00    +0.008 A 
ATOM     13  C   UNL     1       2.301   5.272   0.006  0.00  0.00    +0.001 A 
ATOM     14  C   UNL     1       1.092   5.955   0.021  0.00  0.00    +0.009 A 
ATOM     15  C   UNL     1      -0.111   5.265   0.030  0.00  0.00    -0.004 A 
ENDBRANCH   1  15
BRANCH   4  16
ATOM     16  C   UNL     1      -5.211   7.450  -0.668  0.00  0.00    +0.269 C 
ATOM     17  O   UNL     1      -5.772   8.346  -0.064  0.00  0.00    -0.268 OA
ATOM     18  N   UNL     1      -5.840   6.825  -1.683  0.00  0.00    -0.215 N 
ATOM     19  H   UNL     1      -5.394   6.111  -2.164  0.00  0.00    +0.176 HD
BRANCH  18  20
ATOM     20  N   UNL     1      -7.139   7.207  -2.043  0.00  0.00    -0.223 N 
ATOM     21  C   UNL     1      -7.880   8.197  -1.447  0.00  0.00    +0.243 A 
ATOM     22  N   UNL     1      -9.029   8.272  -2.038  0.00  0.00    -0.160 NA
ATOM     23  N   UNL     1      -9.060   7.309  -3.055  0.00  0.00    -0.253 N 
ATOM     24  H   UNL     1      -9.798   7.137  -3.662  0.00  0.00    +0.191 HD
ATOM     25  C   UNL     1      -7.873   6.668  -3.038  0.00  0.00    +0.193 A 
ATOM     26  S   UNL     1      -7.388   5.403  -4.084  0.00  0.00    -0.010 S 
ENDBRANCH  18  20
ENDBRANCH   4  16
TORSDOF 3
