REMARK  Name = ZINC64164819
REMARK  7 active torsions:
REMARK  status: ('A' for Active; 'I' for Inactive)
REMARK    1  A    between atoms: C_1  and  C_2
REMARK    2  A    between atoms: C_2  and  C_4
REMARK    3  A    between atoms: C_2  and  O_32
REMARK    4  A    between atoms: C_7  and  C_21
REMARK    5  A    between atoms: N_23  and  C_24
REMARK    6  A    between atoms: C_27  and  O_30
REMARK    7  A    between atoms: O_30  and  C_31
REMARK                            x       y       z     vdW  Elec       q    Type
REMARK                         _______ _______ _______ _____ _____    ______ ____
ROOT
ATOM      1  C   UNL     1       0.656  -0.366   1.455  0.00  0.00    +0.084 C 
ATOM      2  C   UNL     1       0.567  -1.909   1.347  0.00  0.00    +0.036 C 
ATOM      3  C   UNL     1       0.924  -2.378   2.779  0.00  0.00    +0.110 C 
ATOM      4  C   UNL     1       0.635  -1.166   3.672  0.00  0.00    +0.135 C 
ATOM      5  N   UNL     1       0.125  -0.082   2.815  0.00  0.00    -0.294 NA
ATOM      6  C   UNL     1      -0.350  -1.515   4.755  0.00  0.00    +0.005 A 
ATOM      7  C   UNL     1      -1.649  -1.973   4.739  0.00  0.00    +0.008 A 
ATOM      8  C   UNL     1      -2.314  -2.209   5.929  0.00  0.00    +0.002 A 
ATOM      9  C   UNL     1      -1.672  -1.984   7.133  0.00  0.00    +0.022 A 
ATOM     10  C   UNL     1      -0.371  -1.524   7.154  0.00  0.00    +0.062 A 
ATOM     11  C   UNL     1       0.306  -1.285   5.959  0.00  0.00    +0.057 A 
ATOM     12  N   UNL     1       1.605  -0.828   5.722  0.00  0.00    -0.282 N 
ATOM     13  C   UNL     1       1.877  -0.731   4.407  0.00  0.00    +0.243 C 
ATOM     14  O   UNL     1       2.920  -0.364   3.910  0.00  0.00    -0.273 OA
ATOM     15 CL   UNL     1       0.425  -1.245   8.671  0.00  0.00    -0.082 Cl
ATOM     16  H   UNL     1       0.437   0.820   3.144  0.00  0.00    +0.124 HD
ATOM     17  H   UNL     1       2.237  -0.606   6.423  0.00  0.00    +0.155 HD
ENDROOT
BRANCH   3  18
ATOM     18  C   UNL     1       0.060  -3.546   3.179  0.00  0.00    +0.223 C 
ATOM     19  O   UNL     1      -1.010  -3.723   2.636  0.00  0.00    -0.275 OA
ATOM     20  N   UNL     1       0.477  -4.394   4.141  0.00  0.00    -0.285 N 
ATOM     21  H   UNL     1       1.298  -4.214   4.623  0.00  0.00    +0.155 HD
BRANCH  20  22
ATOM     22  C   UNL     1      -0.278  -5.535   4.443  0.00  0.00    +0.034 A 
ATOM     23  C   UNL     1      -0.979  -6.190   3.439  0.00  0.00    +0.027 A 
ATOM     24  C   UNL     1      -1.722  -7.315   3.738  0.00  0.00    +0.047 A 
ATOM     25  C   UNL     1      -1.768  -7.791   5.040  0.00  0.00    +0.120 A 
ATOM     26  C   UNL     1      -1.068  -7.136   6.044  0.00  0.00    +0.047 A 
ATOM     27  C   UNL     1      -0.320  -6.015   5.745  0.00  0.00    +0.027 A 
BRANCH  25  28
ATOM     28  O   UNL     1      -2.500  -8.899   5.334  0.00  0.00    -0.495 OA
ATOM     29  C   UNL     1      -2.503  -9.332   6.695  0.00  0.00    +0.277 C 
ENDBRANCH  25  28
ENDBRANCH  20  22
ENDBRANCH   3  18
BRANCH   1  31
ATOM     30  C   UNL     1      -0.150   1.820   0.553  0.00  0.00    +0.039 C 
ATOM     31  C   UNL     1      -0.213   0.301   0.387  0.00  0.00    +0.128 C 
BRANCH  31  32
ATOM     32  O   UNL     1      -1.566  -0.138   0.531  0.00  0.00    -0.391 OA
ATOM     33  H   UNL     1      -1.958   0.071   1.390  0.00  0.00    +0.210 HD
ENDBRANCH  31  32
ENDBRANCH   1  31
TORSDOF 5
