REMARK  Name = ZINC20713348
REMARK  6 active torsions:
REMARK  status: ('A' for Active; 'I' for Inactive)
REMARK    1  A    between atoms: C_4  and  N_7
REMARK    2  A    between atoms: N_7  and  C_8
REMARK    3  A    between atoms: C_11  and  N_14
REMARK    4  A    between atoms: C_15  and  C_17
REMARK    5  A    between atoms: C_24  and  C_33
REMARK    6  A    between atoms: C_38  and  N_39
REMARK                            x       y       z     vdW  Elec       q    Type
REMARK                         _______ _______ _______ _____ _____    ______ ____
ROOT
ATOM      1  C   UNL     1       8.194   6.179  -0.058  0.00  0.00    +0.058 A 
ATOM      2  C   UNL     1       9.421   5.526  -0.171  0.00  0.00    +0.015 A 
ATOM      3  C   UNL     1      10.578   6.266  -0.286  0.00  0.00    +0.001 A 
ATOM      4  C   UNL     1      10.524   7.648  -0.289  0.00  0.00    +0.006 A 
ATOM      5  C   UNL     1       9.313   8.316  -0.176  0.00  0.00    -0.019 A 
ATOM      6  C   UNL     1       8.141   7.587  -0.068  0.00  0.00    +0.044 A 
ATOM      7  N   UNL     1       6.899   8.192   0.035  0.00  0.00    -0.336 N 
ATOM      8  C   UNL     1       6.982   9.536   0.610  0.00  0.00    +0.107 C 
ATOM      9  C   UNL     1       7.906  10.401  -0.250  0.00  0.00    +0.029 C 
ATOM     10  C   UNL     1       9.335   9.816  -0.180  0.00  0.00    +0.049 C 
ATOM     11  C   UNL     1       9.897  10.349   1.106  0.00  0.00    -0.023 C 
ATOM     12  C   UNL     1       9.235  11.411   1.492  0.00  0.00    -0.030 C 
ATOM     13  C   UNL     1       8.137  11.742   0.500  0.00  0.00    +0.033 C 
ATOM     14  H   UNL     1       5.922   7.779  -0.258  0.00  0.00    +0.147 HD
ENDROOT
BRANCH   8  15
ATOM     15  C   UNL     1       5.607  10.152   0.646  0.00  0.00    +0.003 A 
ATOM     16  C   UNL     1       5.269  11.142  -0.258  0.00  0.00    +0.008 A 
ATOM     17  C   UNL     1       4.008  11.707  -0.224  0.00  0.00    +0.000 A 
ATOM     18  C   UNL     1       3.085  11.283   0.714  0.00  0.00    +0.002 A 
ATOM     19  C   UNL     1       3.423  10.294   1.618  0.00  0.00    +0.033 A 
ATOM     20  C   UNL     1       4.683   9.725   1.581  0.00  0.00    +0.131 A 
BRANCH  20  21
ATOM     21  N   UNL     1       5.043   8.661   2.545  0.00  0.00    +0.057 N 
ATOM     22  O   UNL     1       4.200   8.214   3.302  0.00  0.00    -0.126 OA
ATOM     23  O   UNL     1       6.182   8.232   2.581  0.00  0.00    -0.126 OA
ENDBRANCH  20  21
ENDBRANCH   8  15
BRANCH   1  25
ATOM     24  N   UNL     1       7.001   4.050   0.069  0.00  0.00    -0.281 N 
ATOM     25  C   UNL     1       6.951   5.396   0.065  0.00  0.00    +0.250 C 
ATOM     26  O   UNL     1       5.881   5.966   0.164  0.00  0.00    -0.270 OA
ATOM     27  H   UNL     1       7.960   3.534  -0.084  0.00  0.00    +0.155 HD
BRANCH  24  31
ATOM     28  C   UNL     1       3.516   1.836   0.659  0.00  0.00    +0.031 A 
ATOM     29  C   UNL     1       3.468   3.032  -0.046  0.00  0.00    +0.025 A 
ATOM     30  C   UNL     1       4.621   3.768  -0.237  0.00  0.00    +0.025 A 
ATOM     31  C   UNL     1       5.830   3.306   0.267  0.00  0.00    +0.034 A 
ATOM     32  C   UNL     1       5.879   2.108   0.967  0.00  0.00    +0.025 A 
ATOM     33  C   UNL     1       4.725   1.375   1.163  0.00  0.00    +0.025 A 
BRANCH  28  34
ATOM     34  N   UNL     1       2.347   1.093   0.856  0.00  0.00    -0.314 N 
ATOM     35  H   UNL     1       2.378  -0.005   0.807  0.00  0.00    +0.152 HD
BRANCH  34  39
ATOM     36  C   UNL     1      -1.252   3.041   1.629  0.00  0.00    +0.000 A 
ATOM     37  C   UNL     1      -1.258   1.770   1.084  0.00  0.00    +0.002 A 
ATOM     38  C   UNL     1      -0.067   1.119   0.832  0.00  0.00    +0.023 A 
ATOM     39  C   UNL     1       1.140   1.747   1.116  0.00  0.00    +0.031 A 
ATOM     40  C   UNL     1       1.143   3.026   1.657  0.00  0.00    +0.023 A 
ATOM     41  C   UNL     1      -0.052   3.669   1.912  0.00  0.00    +0.002 A 
ENDBRANCH  34  39
ENDBRANCH  28  34
ENDBRANCH  24  31
ENDBRANCH   1  25
TORSDOF 6
