REMARK  Name = ZINC08709362
REMARK  8 active torsions:
REMARK  status: ('A' for Active; 'I' for Inactive)
REMARK    1  A    between atoms: C_1  and  C_2
REMARK    2  A    between atoms: C_2  and  C_3
REMARK    3  A    between atoms: C_3  and  C_5
REMARK    4  A    between atoms: C_3  and  C_6
REMARK    5  A    between atoms: C_9  and  N_12
REMARK    6  A    between atoms: C_22  and  S_23
REMARK    7  A    between atoms: S_23  and  C_24
REMARK    8  A    between atoms: C_24  and  C_25
REMARK                            x       y       z     vdW  Elec       q    Type
REMARK                         _______ _______ _______ _____ _____    ______ ____
ROOT
ATOM      1  N   UNL     1      -2.990   4.945   6.155  0.00  0.00    -0.255 N 
ATOM      2  C   UNL     1      -2.224   5.643   7.025  0.00  0.00    +0.267 A 
ATOM      3  O   UNL     1      -1.057   5.887   6.782  0.00  0.00    -0.267 OA
ATOM      4  C   UNL     1      -2.853   6.096   8.273  0.00  0.00    +0.067 A 
ATOM      5  C   UNL     1      -2.147   6.822   9.231  0.00  0.00    +0.035 A 
ATOM      6  C   UNL     1      -2.787   7.221  10.385  0.00  0.00    +0.042 A 
ATOM      7  C   UNL     1      -4.125   6.906  10.596  0.00  0.00    +0.022 A 
ATOM      8  C   UNL     1      -4.834   6.196   9.670  0.00  0.00    +0.030 A 
ATOM      9  C   UNL     1      -4.213   5.777   8.490  0.00  0.00    +0.079 A 
ATOM     10  N   UNL     1      -4.883   5.071   7.548  0.00  0.00    -0.223 NA
ATOM     11  C   UNL     1      -4.302   4.683   6.440  0.00  0.00    +0.177 A 
ATOM     12 CL   UNL     1      -1.917   8.126  11.584  0.00  0.00    -0.084 Cl
ENDROOT
BRANCH   1  16
ATOM     13  C   UNL     1      -1.343   3.596   2.572  0.00  0.00    -0.044 A 
ATOM     14  C   UNL     1      -1.932   4.845   2.633  0.00  0.00    +0.006 A 
ATOM     15  C   UNL     1      -2.485   5.292   3.818  0.00  0.00    +0.026 A 
ATOM     16  C   UNL     1      -2.437   4.491   4.951  0.00  0.00    +0.052 A 
ATOM     17  C   UNL     1      -1.839   3.239   4.888  0.00  0.00    +0.026 A 
ATOM     18  C   UNL     1      -1.294   2.795   3.699  0.00  0.00    +0.006 A 
BRANCH  13  19
ATOM     19  C   UNL     1      -0.747   3.108   1.277  0.00  0.00    +0.016 C 
ATOM     20  C   UNL     1       0.359   4.067   0.831  0.00  0.00    +0.012 C 
BRANCH  19  22
ATOM     21  C   UNL     1      -1.260   2.439  -1.075  0.00  0.00    +0.004 C 
ATOM     22  C   UNL     1      -1.836   3.051   0.204  0.00  0.00    +0.004 C 
ENDBRANCH  19  22
ENDBRANCH  13  19
ENDBRANCH   1  16
BRANCH  11  23
ATOM     23  S   UNL     1      -5.252   3.776   5.266  0.00  0.00    -0.079 S 
BRANCH  23  24
ATOM     24  C   UNL     1      -6.845   3.724   6.124  0.00  0.00    +0.153 C 
BRANCH  24  25
ATOM     25  C   UNL     1      -7.845   2.974   5.282  0.00  0.00    +0.146 A 
ATOM     26  N   UNL     1      -8.592   3.626   4.409  0.00  0.00    -0.199 NA
ATOM     27  C   UNL     1      -9.473   2.966   3.660  0.00  0.00    +0.217 A 
ATOM     28  N   UNL     1      -9.608   1.652   3.800  0.00  0.00    -0.181 NA
ATOM     29  C   UNL     1      -8.859   1.000   4.682  0.00  0.00    +0.217 A 
ATOM     30  N   UNL     1      -7.976   1.667   5.424  0.00  0.00    -0.199 NA
ATOM     31  N   UNL     1      -8.995  -0.365   4.831  0.00  0.00    -0.327 N 
ATOM     32  N   UNL     1     -10.249   3.647   2.745  0.00  0.00    -0.327 N 
ATOM     33  H   UNL     1      -8.448  -0.840   5.476  0.00  0.00    +0.145 HD
ATOM     34  H   UNL     1      -9.639  -0.850   4.290  0.00  0.00    +0.145 HD
ATOM     35  H   UNL     1     -10.893   3.166   2.202  0.00  0.00    +0.145 HD
ATOM     36  H   UNL     1     -10.150   4.607   2.643  0.00  0.00    +0.145 HD
ENDBRANCH  24  25
ENDBRANCH  23  24
ENDBRANCH  11  23
TORSDOF 6
