REMARK  Name = ZINC20518360
REMARK  7 active torsions:
REMARK  status: ('A' for Active; 'I' for Inactive)
REMARK    1  A    between atoms: C_1  and  C_2
REMARK    2  A    between atoms: C_16  and  C_19
REMARK    3  A    between atoms: C_19  and  C_20
REMARK    4  A    between atoms: C_20  and  C_21
REMARK    5  A    between atoms: N_26  and  C_29
REMARK    6  A    between atoms: C_32  and  C_35
REMARK    7  A    between atoms: C_35  and  C_37
REMARK                            x       y       z     vdW  Elec       q    Type
REMARK                         _______ _______ _______ _____ _____    ______ ____
ROOT
ATOM      1  C   UNL     1      -1.300   1.141   0.089  0.00  0.00    +0.047 C 
ATOM      2  C   UNL     1      -1.065  -0.347   0.114  0.00  0.00    -0.011 A 
ATOM      3  C   UNL     1      -1.147  -1.077  -1.055  0.00  0.00    +0.046 A 
ATOM      4  C   UNL     1      -0.932  -2.444  -1.041  0.00  0.00    +0.021 A 
ATOM      5  C   UNL     1      -0.635  -3.083   0.150  0.00  0.00    +0.009 A 
ATOM      6  C   UNL     1      -0.552  -2.359   1.318  0.00  0.00    +0.004 A 
ATOM      7  C   UNL     1      -0.759  -0.982   1.315  0.00  0.00    +0.043 A 
ATOM      8  N   UNL     1      -0.615  -0.469   2.607  0.00  0.00    -0.283 N 
ATOM      9  C   UNL     1      -0.314  -1.429   3.502  0.00  0.00    +0.243 C 
ATOM     10  O   UNL     1      -0.131  -1.277   4.692  0.00  0.00    -0.273 OA
ATOM     11  C   UNL     1      -0.257  -2.727   2.744  0.00  0.00    +0.136 C 
ATOM     12  C   UNL     1       1.121  -3.385   2.885  0.00  0.00    +0.123 C 
ATOM     13  C   UNL     1       0.935  -4.445   4.006  0.00  0.00    +0.107 C 
ATOM     14  C   UNL     1      -0.538  -4.302   4.445  0.00  0.00    +0.068 C 
ATOM     15  N   UNL     1      -1.228  -3.709   3.261  0.00  0.00    -0.295 NA
ATOM     16  C   UNL     1       1.130  -5.758   3.283  0.00  0.00    +0.232 C 
ATOM     17  O   UNL     1       1.061  -6.856   3.792  0.00  0.00    -0.274 OA
ATOM     18  N   UNL     1       1.390  -5.520   1.992  0.00  0.00    -0.210 N 
ATOM     19  C   UNL     1       1.418  -4.210   1.653  0.00  0.00    +0.233 C 
ATOM     20  O   UNL     1       1.641  -3.764   0.548  0.00  0.00    -0.274 OA
ATOM     21 CL   UNL     1      -1.521  -0.276  -2.549  0.00  0.00    -0.083 Cl
ATOM     22  H   UNL     1      -0.721   0.468   2.832  0.00  0.00    +0.155 HD
ATOM     23  H   UNL     1      -2.087  -3.257   3.538  0.00  0.00    +0.123 HD
ENDROOT
BRANCH  18  24
ATOM     24  C   UNL     1       1.621  -6.540   1.067  0.00  0.00    +0.044 A 
ATOM     25  C   UNL     1       2.883  -6.693   0.503  0.00  0.00    +0.024 A 
ATOM     26  C   UNL     1       3.115  -7.697  -0.409  0.00  0.00    +0.013 A 
ATOM     27  C   UNL     1       2.078  -8.566  -0.769  0.00  0.00    +0.017 A 
ATOM     28  C   UNL     1       0.809  -8.409  -0.199  0.00  0.00    +0.013 A 
ATOM     29  C   UNL     1       0.588  -7.405   0.717  0.00  0.00    +0.024 A 
BRANCH  27  30
ATOM     30  C   UNL     1       2.321  -9.639  -1.743  0.00  0.00    +0.160 C 
ATOM     31  O   UNL     1       3.420  -9.773  -2.236  0.00  0.00    -0.292 OA
ATOM     32  C   UNL     1       1.202 -10.573  -2.129  0.00  0.00    +0.091 C 
ENDBRANCH  27  30
ENDBRANCH  18  24
BRANCH  14  33
ATOM     33  C   UNL     1      -1.135  -5.676   4.760  0.00  0.00    +0.028 C 
BRANCH  33  34
ATOM     34  C   UNL     1      -2.551  -5.502   5.311  0.00  0.00    +0.097 C 
BRANCH  34  35
ATOM     35  C   UNL     1      -3.139  -6.854   5.620  0.00  0.00    +0.211 C 
ATOM     36  O   UNL     1      -2.489  -7.858   5.420  0.00  0.00    -0.276 OA
ATOM     37  N   UNL     1      -4.388  -6.948   6.120  0.00  0.00    -0.329 N 
ATOM     38  H   UNL     1      -4.907  -6.145   6.280  0.00  0.00    +0.145 HD
ATOM     39  H   UNL     1      -4.766  -7.819   6.319  0.00  0.00    +0.145 HD
ENDBRANCH  34  35
ENDBRANCH  33  34
ENDBRANCH  14  33
TORSDOF 5
