REMARK  Name = ZINC36917809
REMARK  3 active torsions:
REMARK  status: ('A' for Active; 'I' for Inactive)
REMARK    1  A    between atoms: C_3  and  C_18
REMARK    2  A    between atoms: N_4  and  C_15
REMARK    3  A    between atoms: C_5  and  C_6
REMARK                            x       y       z     vdW  Elec       q    Type
REMARK                         _______ _______ _______ _____ _____    ______ ____
ROOT
ATOM      1  C   UNL     1      -0.006   1.318  -0.316  0.00  0.00    +0.029 A 
ATOM      2  C   UNL     1       1.278   1.819  -0.127  0.00  0.00    +0.035 A 
ATOM      3  C   UNL     1       2.089   0.756   0.233  0.00  0.00    +0.132 A 
ATOM      4  N   UNL     1       1.308  -0.382   0.264  0.00  0.00    -0.331 N 
ATOM      5  C   UNL     1       0.032  -0.040  -0.070  0.00  0.00    +0.054 A 
ENDROOT
BRANCH   5   6
ATOM      6  C   UNL     1      -1.116  -0.965  -0.155  0.00  0.00    +0.048 A 
ATOM      7  C   UNL     1      -1.027  -2.126  -0.932  0.00  0.00    +0.136 A 
ATOM      8  C   UNL     1      -2.104  -2.986  -1.006  0.00  0.00    +0.077 A 
ATOM      9  C   UNL     1      -3.271  -2.702  -0.315  0.00  0.00    +0.127 A 
ATOM     10  C   UNL     1      -3.364  -1.554   0.456  0.00  0.00    +0.054 A 
ATOM     11  C   UNL     1      -2.293  -0.689   0.544  0.00  0.00    +0.032 A 
ATOM     12 BR   UNL     1      -2.421   0.873   1.602  0.00  0.00    -0.049 Br
ATOM     13  F   UNL     1      -4.322  -3.548  -0.392  0.00  0.00    -0.205 F 
ATOM     14  F   UNL     1       0.110  -2.403  -1.607  0.00  0.00    -0.205 F 
ENDBRANCH   5   6
BRANCH   4  15
ATOM     15  C   UNL     1       1.773  -1.730   0.600  0.00  0.00    +0.088 C 
ATOM     16  C   UNL     1       0.919  -2.552   1.567  0.00  0.00    +0.027 C 
ATOM     17  C   UNL     1       2.257  -1.974   2.031  0.00  0.00    +0.027 C 
ENDBRANCH   4  15
BRANCH   3  18
ATOM     18  C   UNL     1       3.474   0.824   0.520  0.00  0.00    +0.403 C 
ATOM     19  O   UNL     1       4.076   1.883   0.383  0.00  0.00    -0.239 OA
ATOM     20  O   UNL     1       4.070  -0.175   0.904  0.00  0.00    -0.239 OA
ENDBRANCH   3  18
TORSDOF 3
