REMARK  Name = ZINC17106132
REMARK  4 active torsions:
REMARK  status: ('A' for Active; 'I' for Inactive)
REMARK    1  A    between atoms: C_1  and  C_2
REMARK    2  A    between atoms: C_2  and  S_3
REMARK    3  A    between atoms: S_3  and  C_4
REMARK    4  A    between atoms: C_11  and  N_16
REMARK                            x       y       z     vdW  Elec       q    Type
REMARK                         _______ _______ _______ _____ _____    ______ ____
ROOT
ATOM      1  C   UNL     1      -1.508  -2.383   0.004  0.00  0.00    +0.164 A 
ATOM      2  C   UNL     1      -2.649  -3.215   0.004  0.00  0.00    +0.304 A 
ATOM      3  O   UNL     1      -3.886  -2.660   0.013  0.00  0.00    -0.263 OA
ATOM      4  N   UNL     1      -2.521  -4.527  -0.004  0.00  0.00    -0.185 NA
ATOM      5  C   UNL     1      -1.300  -5.073  -0.014  0.00  0.00    +0.189 A 
ATOM      6  C   UNL     1      -0.158  -4.239  -0.014  0.00  0.00    +0.149 A 
ATOM      7  N   UNL     1      -0.299  -2.911  -0.011  0.00  0.00    -0.228 NA
ATOM      8  C   UNL     1       1.120  -4.851  -0.024  0.00  0.00    +0.149 A 
ATOM      9  N   UNL     1       1.185  -6.175  -0.033  0.00  0.00    -0.198 NA
ATOM     10  C   UNL     1       0.085  -6.921  -0.033  0.00  0.00    +0.216 A 
ATOM     11  N   UNL     1      -1.128  -6.402  -0.023  0.00  0.00    -0.193 NA
ATOM     12  N   UNL     1       0.218  -8.298  -0.043  0.00  0.00    -0.327 N 
ATOM     13  H   UNL     1       1.101  -8.700  -0.050  0.00  0.00    +0.145 HD
ATOM     14  H   UNL     1      -0.571  -8.861  -0.043  0.00  0.00    +0.145 HD
ENDROOT
BRANCH   8  15
ATOM     15  N   UNL     1       2.269  -4.087  -0.025  0.00  0.00    -0.341 N 
ATOM     16  H   UNL     1       2.207  -3.119  -0.019  0.00  0.00    +0.144 HD
ATOM     17  H   UNL     1       3.138  -4.518  -0.032  0.00  0.00    +0.144 HD
ENDBRANCH   8  15
BRANCH   1  18
ATOM     18  S   UNL     1      -1.700  -0.632   0.015  0.00  0.00    -0.101 S 
BRANCH  18  20
ATOM     19  C   UNL     1      -0.019   1.526   0.010  0.00  0.00    +0.015 C 
ATOM     20  C   UNL     1       0.002  -0.004   0.002  0.00  0.00    +0.073 C 
ENDBRANCH  18  20
ENDBRANCH   1  18
TORSDOF 3
