REMARK  Name = ZINC01026796
REMARK  8 active torsions:
REMARK  status: ('A' for Active; 'I' for Inactive)
REMARK    1  A    between atoms: C_3  and  O_24
REMARK    2  A    between atoms: C_6  and  C_7
REMARK    3  A    between atoms: C_7  and  C_8
REMARK    4  A    between atoms: C_8  and  C_9
REMARK    5  A    between atoms: N_11  and  N_12
REMARK    6  A    between atoms: N_12  and  C_13
REMARK    7  A    between atoms: C_13  and  N_15
REMARK    8  A    between atoms: N_15  and  C_16
REMARK                            x       y       z     vdW  Elec       q    Type
REMARK                         _______ _______ _______ _____ _____    ______ ____
ROOT
ATOM      1  C   UNL     1       2.324   4.407   0.046  0.00  0.00    +0.229 C 
ATOM      2  O   UNL     1       3.340   3.836   0.383  0.00  0.00    -0.274 OA
ATOM      3  N   UNL     1       1.150   3.744   0.035  0.00  0.00    -0.235 N 
ATOM      4  H   UNL     1       0.338   4.201  -0.235  0.00  0.00    +0.173 HD
ENDROOT
BRANCH   3   5
ATOM      5  N   UNL     1       1.104   2.396   0.412  0.00  0.00    -0.246 N 
ATOM      6  H   UNL     1       1.916   1.939   0.681  0.00  0.00    +0.172 HD
BRANCH   5   7
ATOM      7  C   UNL     1      -0.070   1.733   0.400  0.00  0.00    +0.151 C 
ATOM      8  S   UNL     1      -0.127   0.085   0.861  0.00  0.00    -0.017 S 
BRANCH   7   9
ATOM      9  N   UNL     1      -1.197   2.366   0.021  0.00  0.00    -0.296 N 
ATOM     10  H   UNL     1      -1.177   3.314  -0.181  0.00  0.00    +0.154 HD
BRANCH   9  11
ATOM     11  C   UNL     1      -2.398   1.654  -0.083  0.00  0.00    +0.034 A 
ATOM     12  C   UNL     1      -3.217   1.829  -1.192  0.00  0.00    +0.025 A 
ATOM     13  C   UNL     1      -4.398   1.122  -1.295  0.00  0.00    +0.023 A 
ATOM     14  C   UNL     1      -4.774   0.248  -0.289  0.00  0.00    +0.059 A 
ATOM     15  C   UNL     1      -3.962   0.075   0.819  0.00  0.00    +0.061 A 
ATOM     16  C   UNL     1      -2.775   0.777   0.924  0.00  0.00    +0.044 A 
ATOM     17 CL   UNL     1      -4.435  -1.023   2.078  0.00  0.00    -0.082 Cl
ATOM     18 CL   UNL     1      -6.263  -0.633  -0.419  0.00  0.00    -0.082 Cl
ENDBRANCH   9  11
ENDBRANCH   7   9
ENDBRANCH   5   7
ENDBRANCH   3   5
BRANCH   1  19
ATOM     19  C   UNL     1       2.374   5.857  -0.360  0.00  0.00    +0.102 C 
BRANCH  19  20
ATOM     20  C   UNL     1       3.813   6.366  -0.259  0.00  0.00    +0.044 C 
BRANCH  20  26
ATOM     21  C   UNL     1       4.087   8.156  -1.986  0.00  0.00    +0.007 A 
ATOM     22  C   UNL     1       4.127   9.485  -2.361  0.00  0.00    +0.045 A 
ATOM     23  C   UNL     1       3.955  10.479  -1.409  0.00  0.00    +0.117 A 
ATOM     24  C   UNL     1       3.737  10.136  -0.083  0.00  0.00    +0.045 A 
ATOM     25  C   UNL     1       3.692   8.805   0.287  0.00  0.00    +0.007 A 
ATOM     26  C   UNL     1       3.864   7.816  -0.664  0.00  0.00    -0.047 A 
BRANCH  23  27
ATOM     27  O   UNL     1       4.000  11.787  -1.775  0.00  0.00    -0.507 OA
ATOM     28  H   UNL     1       4.884  12.177  -1.735  0.00  0.00    +0.292 HD
ENDBRANCH  23  27
ENDBRANCH  20  26
ENDBRANCH  19  20
ENDBRANCH   1  19
TORSDOF 8
