REMARK  Name = ZINC36523158
REMARK  14 active torsions:
REMARK  status: ('A' for Active; 'I' for Inactive)
REMARK    1  A    between atoms: C_1  and  C_2
REMARK    2  A    between atoms: C_2  and  C_3
REMARK    3  A    between atoms: C_2  and  C_4
REMARK    4  A    between atoms: C_2  and  N_5
REMARK    5  A    between atoms: C_6  and  C_8
REMARK    6  A    between atoms: C_8  and  C_10
REMARK    7  A    between atoms: C_8  and  N_19
REMARK    8  A    between atoms: C_11  and  O_18
REMARK    9  A    between atoms: C_13  and  O_17
REMARK   10  A    between atoms: C_15  and  O_16
REMARK   11  A    between atoms: N_19  and  C_20
REMARK   12  A    between atoms: C_21  and  C_23
REMARK   13  A    between atoms: C_23  and  C_31
REMARK   14  A    between atoms: C_24  and  C_25
REMARK                            x       y       z     vdW  Elec       q    Type
REMARK                         _______ _______ _______ _____ _____    ______ ____
ROOT
ATOM      1  C   UNL     1       3.004  -0.959  -2.645  0.00  0.00    +0.199 C 
ENDROOT
BRANCH   1   2
ATOM      2  C   UNL     1       2.901  -2.419  -3.005  0.00  0.00    +0.065 A 
ATOM      3  C   UNL     1       3.919  -3.293  -2.654  0.00  0.00    +0.129 A 
ATOM      4  C   UNL     1       3.824  -4.636  -2.984  0.00  0.00    +0.091 A 
ATOM      5  C   UNL     1       2.711  -5.106  -3.665  0.00  0.00    +0.124 A 
ATOM      6  C   UNL     1       1.693  -4.232  -4.015  0.00  0.00    +0.091 A 
ATOM      7  C   UNL     1       1.786  -2.889  -3.681  0.00  0.00    +0.129 A 
BRANCH   7   8
ATOM      8  O   UNL     1       0.785  -2.034  -4.020  0.00  0.00    -0.506 OA
ATOM      9  H   UNL     1       0.895  -1.625  -4.889  0.00  0.00    +0.292 HD
ENDBRANCH   7   8
BRANCH   5  10
ATOM     10  O   UNL     1       2.619  -6.422  -3.990  0.00  0.00    -0.507 OA
ATOM     11  H   UNL     1       2.190  -6.965  -3.315  0.00  0.00    +0.292 HD
ENDBRANCH   5  10
BRANCH   3  12
ATOM     12  O   UNL     1       5.010  -2.832  -1.986  0.00  0.00    -0.506 OA
ATOM     13  H   UNL     1       4.956  -2.937  -1.026  0.00  0.00    +0.292 HD
ENDBRANCH   3  12
ENDBRANCH   1   2
BRANCH   1  15
ATOM     14  N   UNL     1       2.470  -1.326  -0.258  0.00  0.00    -0.309 N 
ATOM     15  C   UNL     1       3.317  -0.824  -1.177  0.00  0.00    +0.239 C 
ATOM     16  O   UNL     1       4.333  -0.263  -0.824  0.00  0.00    -0.273 OA
ATOM     17  H   UNL     1       1.658  -1.775  -0.541  0.00  0.00    +0.149 HD
BRANCH  14  19
ATOM     18  C   UNL     1       2.879   0.287   1.534  0.00  0.00    +0.031 C 
ATOM     19  C   UNL     1       2.775  -1.195   1.169  0.00  0.00    +0.026 C 
ATOM     20  C   UNL     1       4.104  -1.890   1.472  0.00  0.00    +0.031 C 
ATOM     21  C   UNL     1       1.660  -1.845   1.991  0.00  0.00    +0.031 C 
ENDBRANCH  14  19
ENDBRANCH   1  15
BRANCH   1  22
ATOM     22  N   UNL     1       4.071  -0.336  -3.432  0.00  0.00    -0.285 N 
ATOM     23  C   UNL     1       5.464  -0.739  -3.224  0.00  0.00    +0.133 C 
ATOM     24  C   UNL     1       3.772   0.607  -4.347  0.00  0.00    +0.248 C 
ATOM     25  O   UNL     1       2.628   1.007  -4.456  0.00  0.00    -0.270 OA
BRANCH  24  26
ATOM     26  C   UNL     1       4.828   1.152  -5.215  0.00  0.00    +0.045 C 
ATOM     27  C   UNL     1       5.317   0.406  -6.241  0.00  0.00    +0.021 C 
BRANCH  27  28
ATOM     28  C   UNL     1       4.687  -0.877  -6.583  0.00  0.00    -0.024 A 
ATOM     29  C   UNL     1       3.300  -1.029  -6.477  0.00  0.00    +0.008 A 
ATOM     30  C   UNL     1       2.716  -2.236  -6.800  0.00  0.00    +0.001 A 
ATOM     31  C   UNL     1       3.498  -3.295  -7.228  0.00  0.00    +0.000 A 
ATOM     32  C   UNL     1       4.871  -3.152  -7.335  0.00  0.00    +0.001 A 
ATOM     33  C   UNL     1       5.470  -1.951  -7.022  0.00  0.00    +0.008 A 
ENDBRANCH  27  28
BRANCH  26  34
ATOM     34  C   UNL     1       5.357   2.513  -4.971  0.00  0.00    -0.013 A 
ATOM     35  C   UNL     1       6.095   2.781  -3.817  0.00  0.00    +0.008 A 
ATOM     36  C   UNL     1       6.585   4.052  -3.596  0.00  0.00    +0.001 A 
ATOM     37  C   UNL     1       6.348   5.058  -4.514  0.00  0.00    +0.000 A 
ATOM     38  C   UNL     1       5.617   4.799  -5.660  0.00  0.00    +0.001 A 
ATOM     39  C   UNL     1       5.126   3.531  -5.896  0.00  0.00    +0.008 A 
ENDBRANCH  26  34
ENDBRANCH  24  26
ENDBRANCH   1  22
TORSDOF 10
