REMARK  Name = ZINC44169847
REMARK  6 active torsions:
REMARK  status: ('A' for Active; 'I' for Inactive)
REMARK    1  A    between atoms: C_1  and  O_2
REMARK    2  A    between atoms: O_2  and  C_3
REMARK    3  A    between atoms: C_5  and  O_19
REMARK    4  A    between atoms: C_7  and  O_18
REMARK    5  A    between atoms: C_9  and  O_17
REMARK    6  A    between atoms: C_11  and  C_14
REMARK                            x       y       z     vdW  Elec       q    Type
REMARK                         _______ _______ _______ _____ _____    ______ ____
ROOT
ATOM      1  C   UNL     1       0.673  -0.582   1.123  0.00  0.00    +0.282 C 
ATOM      2  C   UNL     1       0.526  -2.106   1.076  0.00  0.00    +0.201 C 
ATOM      3  C   UNL     1       1.298  -2.722   2.247  0.00  0.00    +0.179 C 
ATOM      4  C   UNL     1       2.762  -2.276   2.169  0.00  0.00    +0.185 C 
ATOM      5  C   UNL     1       2.823  -0.747   2.174  0.00  0.00    +0.265 C 
ATOM      6  O   UNL     1       2.059  -0.237   1.079  0.00  0.00    -0.331 OA
ENDROOT
BRANCH   5   7
ATOM      7  C   UNL     1       4.256  -0.301   2.038  0.00  0.00    +0.387 C 
ATOM      8  O   UNL     1       4.612   0.313   1.047  0.00  0.00    -0.243 OA
ATOM      9  O   UNL     1       5.059  -0.553   2.921  0.00  0.00    -0.243 OA
ENDBRANCH   5   7
BRANCH   1  11
ATOM     10  C   UNL     1      -0.017   1.425   0.010  0.00  0.00    +0.197 C 
ATOM     11  O   UNL     1       0.002  -0.004   0.002  0.00  0.00    -0.352 OA
ENDBRANCH   1  11
BRANCH   4  12
ATOM     12  O   UNL     1       3.350  -2.776   0.966  0.00  0.00    -0.386 OA
ATOM     13  H   UNL     1       4.278  -2.531   0.851  0.00  0.00    +0.210 HD
ENDBRANCH   4  12
BRANCH   3  14
ATOM     14  O   UNL     1       1.226  -4.147   2.171  0.00  0.00    -0.386 OA
ATOM     15  H   UNL     1       0.325  -4.497   2.208  0.00  0.00    +0.210 HD
ENDBRANCH   3  14
BRANCH   2  16
ATOM     16  O   UNL     1      -0.856  -2.455   1.178  0.00  0.00    -0.384 OA
ATOM     17  H   UNL     1      -1.406  -2.094   0.469  0.00  0.00    +0.210 HD
ENDBRANCH   2  16
TORSDOF 5
