REMARK  Name = ZINC39935064
REMARK  6 active torsions:
REMARK  status: ('A' for Active; 'I' for Inactive)
REMARK    1  A    between atoms: C_4  and  N_7
REMARK    2  A    between atoms: C_8  and  C_28
REMARK    3  A    between atoms: C_12  and  S_14
REMARK    4  A    between atoms: S_14  and  C_15
REMARK    5  A    between atoms: C_15  and  C_16
REMARK    6  A    between atoms: C_33  and  O_34
REMARK                            x       y       z     vdW  Elec       q    Type
REMARK                         _______ _______ _______ _____ _____    ______ ____
ROOT
ATOM      1  N   UNL     1       4.681  -3.463  -4.465  0.00  0.00    -0.284 N 
ATOM      2  C   UNL     1       3.575  -4.410  -4.238  0.00  0.00    +0.192 C 
ATOM      3  N   UNL     1       2.320  -3.645  -4.414  0.00  0.00    -0.230 NA
ATOM      4  N   UNL     1       2.706  -2.248  -4.160  0.00  0.00    -0.226 NA
ATOM      5  C   UNL     1       4.059  -2.157  -4.762  0.00  0.00    +0.218 C 
ATOM      6  H   UNL     1       1.957  -3.755  -5.349  0.00  0.00    +0.143 HD
ATOM      7  H   UNL     1       2.065  -1.609  -4.607  0.00  0.00    +0.143 HD
ENDROOT
BRANCH   1  11
ATOM      8  C   UNL     1       8.756  -4.299  -4.282  0.00  0.00    +0.000 A 
ATOM      9  C   UNL     1       8.326  -3.048  -4.685  0.00  0.00    +0.002 A 
ATOM     10  C   UNL     1       6.975  -2.768  -4.747  0.00  0.00    +0.023 A 
ATOM     11  C   UNL     1       6.048  -3.744  -4.404  0.00  0.00    +0.033 A 
ATOM     12  C   UNL     1       6.484  -4.999  -3.998  0.00  0.00    +0.023 A 
ATOM     13  C   UNL     1       7.836  -5.273  -3.939  0.00  0.00    +0.002 A 
ENDBRANCH   1  11
BRANCH   2  14
ATOM     14  C   UNL     1       3.642  -5.532  -5.243  0.00  0.00    +0.030 A 
ATOM     15  C   UNL     1       4.256  -5.330  -6.464  0.00  0.00    +0.010 A 
ATOM     16  C   UNL     1       4.317  -6.358  -7.387  0.00  0.00    +0.001 A 
ATOM     17  C   UNL     1       3.765  -7.590  -7.090  0.00  0.00    +0.004 A 
ATOM     18  C   UNL     1       3.151  -7.797  -5.870  0.00  0.00    +0.046 A 
ATOM     19  C   UNL     1       3.092  -6.769  -4.941  0.00  0.00    +0.123 A 
BRANCH  19  20
ATOM     20  O   UNL     1       2.493  -6.971  -3.738  0.00  0.00    -0.506 OA
ATOM     21  H   UNL     1       1.548  -6.770  -3.731  0.00  0.00    +0.292 HD
ENDBRANCH  19  20
ENDBRANCH   2  14
BRANCH   5  22
ATOM     22  S   UNL     1       3.935  -1.907  -6.555  0.00  0.00    -0.114 S 
BRANCH  22  23
ATOM     23  C   UNL     1       3.599  -0.133  -6.728  0.00  0.00    +0.146 C 
BRANCH  23  24
ATOM     24  C   UNL     1       3.594   0.237  -8.189  0.00  0.00    +0.120 A 
ATOM     25  N   UNL     1       3.364   1.533  -8.525  0.00  0.00    -0.310 N 
ATOM     26  H   UNL     1       3.209   2.190  -7.828  0.00  0.00    +0.170 HD
ATOM     27  C   UNL     1       3.349   1.916  -9.823  0.00  0.00    +0.259 A 
ATOM     28  O   UNL     1       3.145   3.074 -10.138  0.00  0.00    -0.267 OA
ATOM     29  C   UNL     1       3.590   0.880 -10.838  0.00  0.00    +0.065 A 
ATOM     30  C   UNL     1       3.595   1.169 -12.200  0.00  0.00    +0.015 A 
ATOM     31  C   UNL     1       3.825   0.159 -13.108  0.00  0.00    +0.001 A 
ATOM     32  C   UNL     1       4.052  -1.141 -12.676  0.00  0.00    +0.002 A 
ATOM     33  C   UNL     1       4.050  -1.448 -11.334  0.00  0.00    +0.028 A 
ATOM     34  C   UNL     1       3.819  -0.442 -10.394  0.00  0.00    +0.078 A 
ATOM     35  N   UNL     1       3.815  -0.699  -9.062  0.00  0.00    -0.233 NA
ENDBRANCH  23  24
ENDBRANCH  22  23
ENDBRANCH   5  22
TORSDOF 6
