REMARK  Name = ZINC21705689
REMARK  5 active torsions:
REMARK  status: ('A' for Active; 'I' for Inactive)
REMARK    1  A    between atoms: C_6  and  N_7
REMARK    2  A    between atoms: C_8  and  C_10
REMARK    3  A    between atoms: C_12  and  S_21
REMARK    4  A    between atoms: C_15  and  N_16
REMARK    5  A    between atoms: S_21  and  N_24
REMARK                            x       y       z     vdW  Elec       q    Type
REMARK                         _______ _______ _______ _____ _____    ______ ____
ROOT
ATOM      1  C   UNL     1       5.382  -1.144  -2.050  0.00  0.00    +0.060 A 
ATOM      2  C   UNL     1       4.910  -0.567  -0.868  0.00  0.00    +0.043 A 
ATOM      3  C   UNL     1       3.932  -1.202  -0.136  0.00  0.00    +0.106 A 
ATOM      4  C   UNL     1       3.415  -2.416  -0.562  0.00  0.00    +0.030 A 
ATOM      5  C   UNL     1       3.867  -2.996  -1.730  0.00  0.00    +0.026 A 
ATOM      6  C   UNL     1       4.853  -2.370  -2.482  0.00  0.00    +0.042 A 
ENDROOT
BRANCH   6   7
ATOM      7  N   UNL     1       5.312  -2.954  -3.655  0.00  0.00    -0.329 N 
ATOM      8  C   UNL     1       5.745  -4.355  -3.418  0.00  0.00    +0.105 C 
ATOM      9  C   UNL     1       5.708  -4.982  -4.835  0.00  0.00    +0.020 C 
ATOM     10  C   UNL     1       4.463  -4.323  -5.472  0.00  0.00    +0.020 C 
ATOM     11  C   UNL     1       4.236  -3.030  -4.667  0.00  0.00    +0.105 C 
ENDBRANCH   6   7
BRANCH   1  13
ATOM     12  N   UNL     1       6.856   0.758  -2.481  0.00  0.00    -0.281 N 
ATOM     13  C   UNL     1       6.428  -0.468  -2.839  0.00  0.00    +0.250 C 
ATOM     14  O   UNL     1       6.906  -1.018  -3.813  0.00  0.00    -0.270 OA
ATOM     15  H   UNL     1       6.484   1.222  -1.555  0.00  0.00    +0.155 HD
BRANCH  12  21
ATOM     16  C   UNL     1       8.712   2.289  -2.706  0.00  0.00    +0.025 A 
ATOM     17  C   UNL     1       9.623   2.962  -3.495  0.00  0.00    +0.029 A 
ATOM     18  C   UNL     1       9.595   2.804  -4.872  0.00  0.00    +0.067 A 
ATOM     19  C   UNL     1       8.651   1.960  -5.459  0.00  0.00    +0.069 A 
ATOM     20  C   UNL     1       7.741   1.280  -4.664  0.00  0.00    +0.051 A 
ATOM     21  C   UNL     1       7.774   1.443  -3.287  0.00  0.00    +0.036 A 
ATOM     22  N   UNL     1       8.869   2.005  -6.834  0.00  0.00    -0.306 N 
ATOM     23  H   UNL     1       8.237   1.412  -7.511  0.00  0.00    +0.170 HD
ATOM     24  C   UNL     1       9.899   2.839  -7.073  0.00  0.00    +0.325 A 
ATOM     25  O   UNL     1      10.345   3.103  -8.174  0.00  0.00    -0.247 OA
ATOM     26  N   UNL     1      10.359   3.337  -5.910  0.00  0.00    -0.306 N 
ATOM     27  H   UNL     1      11.176   4.039  -5.688  0.00  0.00    +0.170 HD
ENDBRANCH  12  21
ENDBRANCH   1  13
BRANCH   3  28
ATOM     28  S   UNL     1       3.339  -0.473   1.354  0.00  0.00    +0.061 S 
ATOM     29  O   UNL     1       4.369   0.386   1.824  0.00  0.00    -0.153 OA
ATOM     30  O   UNL     1       2.811  -1.530   2.142  0.00  0.00    -0.153 OA
BRANCH  28  31
ATOM     31  N   UNL     1       2.061   0.499   0.949  0.00  0.00    -0.177 NA
ATOM     32  C   UNL     1       0.692  -0.034   0.927  0.00  0.00    +0.109 C 
ATOM     33  C   UNL     1       0.068   0.264  -0.440  0.00  0.00    +0.017 C 
ATOM     34  C   UNL     1       0.162   1.765  -0.723  0.00  0.00    +0.003 C 
ATOM     35  C   UNL     1       1.633   2.188  -0.760  0.00  0.00    +0.017 C 
ATOM     36  C   UNL     1       2.274   1.911   0.603  0.00  0.00    +0.109 C 
ENDBRANCH  28  31
ENDBRANCH   3  28
TORSDOF 5
