REMARK  Name = ZINC04101965
REMARK  6 active torsions:
REMARK  status: ('A' for Active; 'I' for Inactive)
REMARK    1  A    between atoms: C_1  and  C_2
REMARK    2  A    between atoms: C_5  and  C_7
REMARK    3  A    between atoms: C_9  and  C_21
REMARK    4  A    between atoms: C_11  and  C_16
REMARK    5  A    between atoms: C_11  and  O_20
REMARK    6  A    between atoms: C_21  and  C_23
REMARK                            x       y       z     vdW  Elec       q    Type
REMARK                         _______ _______ _______ _____ _____    ______ ____
ROOT
ATOM      1  C   UNL     1      -3.672   2.610   3.127  0.00  0.00    +0.156 C 
ATOM      2  C   UNL     1      -4.019   4.032   2.675  0.00  0.00    +0.148 C 
ATOM      3  C   UNL     1      -4.129   4.045   1.147  0.00  0.00    +0.243 C 
ATOM      4  N   UNL     1      -5.104   3.037   0.727  0.00  0.00    -0.264 N 
ATOM      5  C   UNL     1      -5.319   1.929   1.452  0.00  0.00    +0.302 C 
ATOM      6  O   UNL     1      -6.133   1.119   1.053  0.00  0.00    -0.253 OA
ATOM      7  N   UNL     1      -4.672   1.680   2.600  0.00  0.00    -0.289 N 
ATOM      8  H   UNL     1      -5.605   3.173  -0.093  0.00  0.00    +0.153 HD
ATOM      9  H   UNL     1      -4.870   0.867   3.091  0.00  0.00    +0.151 HD
ENDROOT
BRANCH   1  14
ATOM     10  C   UNL     1      -0.013   1.086   0.008  0.00  0.00    +0.086 C 
ATOM     11  C   UNL     1      -0.718   1.572   1.248  0.00  0.00    +0.102 A 
ATOM     12  C   UNL     1      -0.136   1.835   2.432  0.00  0.00    +0.045 A 
ATOM     13  C   UNL     1      -1.162   2.263   3.306  0.00  0.00    +0.047 A 
ATOM     14  C   UNL     1      -2.309   2.234   2.604  0.00  0.00    +0.126 A 
ATOM     15  O   UNL     1      -2.033   1.821   1.357  0.00  0.00    -0.463 OA
ENDBRANCH   1  14
BRANCH   3  16
ATOM     16  C   UNL     1      -4.589   5.427   0.678  0.00  0.00    +0.436 C 
ATOM     17  F   UNL     1      -3.660   6.390   1.086  0.00  0.00    -0.166 F 
ATOM     18  F   UNL     1      -4.688   5.437  -0.717  0.00  0.00    -0.166 F 
ATOM     19  F   UNL     1      -5.838   5.718   1.237  0.00  0.00    -0.166 F 
ENDBRANCH   3  16
BRANCH   3  20
ATOM     20  O   UNL     1      -2.855   3.746   0.574  0.00  0.00    -0.364 OA
ATOM     21  H   UNL     1      -2.850   3.736  -0.393  0.00  0.00    +0.212 HD
ENDBRANCH   3  20
BRANCH   2  22
ATOM     22  C   UNL     1      -5.335   4.448   3.280  0.00  0.00    +0.180 C 
ATOM     23  O   UNL     1      -6.373   4.226   2.689  0.00  0.00    -0.291 OA
BRANCH  22  24
ATOM     24  C   UNL     1      -5.362   5.096   4.535  0.00  0.00    +0.055 A 
ATOM     25  C   UNL     1      -6.456   5.562   5.258  0.00  0.00    +0.019 A 
ATOM     26  C   UNL     1      -6.196   6.156   6.465  0.00  0.00    +0.008 A 
ATOM     27  C   UNL     1      -4.907   6.271   6.886  0.00  0.00    +0.046 A 
ATOM     28  S   UNL     1      -4.002   5.538   5.602  0.00  0.00    -0.094 S 
ENDBRANCH  22  24
ENDBRANCH   2  22
TORSDOF 5
