REMARK  Name = ZINC39353246
REMARK  7 active torsions:
REMARK  status: ('A' for Active; 'I' for Inactive)
REMARK    1  A    between atoms: C_1  and  C_2
REMARK    2  A    between atoms: C_5  and  C_20
REMARK    3  A    between atoms: C_6  and  C_19
REMARK    4  A    between atoms: N_8  and  C_9
REMARK    5  A    between atoms: C_13  and  C_15
REMARK    6  A    between atoms: C_21  and  C_22
REMARK    7  A    between atoms: C_21  and  C_24
REMARK                            x       y       z     vdW  Elec       q    Type
REMARK                         _______ _______ _______ _____ _____    ______ ____
ROOT
ATOM      1  C   UNL     1       0.242   1.675  -0.166  0.00  0.00    +0.032 C 
ATOM      2  C   UNL     1       0.116   0.151  -0.122  0.00  0.00    +0.094 C 
ATOM      3  C   UNL     1       0.864  -0.458  -1.278  0.00  0.00    +0.000 C 
ATOM      4  C   UNL     1       1.822  -1.258  -0.821  0.00  0.00    -0.028 C 
ATOM      5  C   UNL     1       1.806  -1.260   0.685  0.00  0.00    +0.101 C 
ATOM      6  N   UNL     1       0.719  -0.365   1.114  0.00  0.00    -0.317 N 
ATOM      7  C   UNL     1       1.548  -2.678   1.200  0.00  0.00    +0.033 C 
ENDROOT
BRANCH   6   8
ATOM      8  C   UNL     1       0.338  -0.065   2.425  0.00  0.00    +0.031 A 
ATOM      9  C   UNL     1       1.020  -0.636   3.494  0.00  0.00    +0.024 A 
ATOM     10  C   UNL     1       0.650  -0.344   4.793  0.00  0.00    +0.022 A 
ATOM     11  C   UNL     1      -0.402   0.517   5.039  0.00  0.00    +0.055 A 
ATOM     12  C   UNL     1      -1.094   1.097   3.971  0.00  0.00    +0.083 A 
ATOM     13  C   UNL     1      -0.714   0.805   2.659  0.00  0.00    +0.039 A 
ATOM     14 CL   UNL     1      -0.864   0.879   6.673  0.00  0.00    -0.083 Cl
BRANCH  12  15
ATOM     15  C   UNL     1      -2.217   2.017   4.229  0.00  0.00    +0.388 C 
ATOM     16  O   UNL     1      -2.821   2.522   3.293  0.00  0.00    -0.241 OA
ATOM     17  O   UNL     1      -2.545   2.274   5.379  0.00  0.00    -0.241 OA
ENDBRANCH  12  15
ENDBRANCH   6   8
BRANCH   4  18
ATOM     18  C   UNL     1       2.752  -2.021  -1.654  0.00  0.00    +0.023 C 
ATOM     19  C   UNL     1       2.277  -2.876  -2.587  0.00  0.00    +0.072 C 
BRANCH  19  20
ATOM     20  C   UNL     1       3.231  -3.739  -3.373  0.00  0.00    +0.216 C 
ATOM     21  N   UNL     1       3.057  -3.501  -4.811  0.00  0.00    -0.359 N 
ATOM     22  C   UNL     1       2.701  -4.630  -5.354  0.00  0.00    +0.060 A 
ATOM     23  C   UNL     1       2.386  -5.019  -6.735  0.00  0.00    +0.027 A 
ATOM     24  C   UNL     1       2.039  -6.294  -7.004  0.00  0.00    +0.002 A 
ATOM     25  C   UNL     1       1.962  -7.285  -6.009  0.00  0.00    +0.002 A 
ATOM     26  C   UNL     1       2.230  -7.035  -4.712  0.00  0.00    +0.027 A 
ATOM     27  C   UNL     1       2.620  -5.679  -4.301  0.00  0.00    +0.060 A 
ATOM     28  N   UNL     1       2.929  -5.158  -3.148  0.00  0.00    -0.359 N 
ATOM     29  H   UNL     1       3.183  -2.658  -5.273  0.00  0.00    +0.162 HD
ATOM     30  H   UNL     1       2.955  -5.623  -2.297  0.00  0.00    +0.162 HD
ENDBRANCH  19  20
BRANCH  19  31
ATOM     31  C   UNL     1       0.869  -2.963  -2.828  0.00  0.00    +0.099 C 
ATOM     32  N   UNL     1      -0.249  -3.032  -3.020  0.00  0.00    -0.191 NA
ENDBRANCH  19  31
ENDBRANCH   4  18
TORSDOF 5
