REMARK  Name = ZINC22742145
REMARK  7 active torsions:
REMARK  status: ('A' for Active; 'I' for Inactive)
REMARK    1  A    between atoms: C_1  and  C_2
REMARK    2  A    between atoms: C_2  and  C_23
REMARK    3  A    between atoms: N_5  and  C_9
REMARK    4  A    between atoms: C_9  and  C_10
REMARK    5  A    between atoms: N_12  and  N_13
REMARK    6  A    between atoms: C_14  and  C_16
REMARK    7  A    between atoms: N_20  and  C_21
REMARK                            x       y       z     vdW  Elec       q    Type
REMARK                         _______ _______ _______ _____ _____    ______ ____
ROOT
ATOM      1  C   UNL     1      -2.747   5.311   0.210  0.00  0.00    +0.247 C 
ATOM      2  O   UNL     1      -1.719   5.955   0.222  0.00  0.00    -0.273 OA
ATOM      3  N   UNL     1      -2.700   3.967   0.121  0.00  0.00    -0.233 N 
ATOM      4  H   UNL     1      -3.632   3.383   0.110  0.00  0.00    +0.173 HD
ENDROOT
BRANCH   3   5
ATOM      5  N   UNL     1      -1.463   3.313   0.043  0.00  0.00    -0.229 N 
ATOM      6  C   UNL     1      -1.416   1.970  -0.046  0.00  0.00    +0.277 C 
ATOM      7  O   UNL     1      -2.446   1.330  -0.152  0.00  0.00    -0.267 OA
ATOM      8  H   UNL     1      -0.531   3.897   0.054  0.00  0.00    +0.173 HD
BRANCH   6   9
ATOM      9  C   UNL     1      -0.123   1.278  -0.015  0.00  0.00    +0.107 A 
ATOM     10  C   UNL     1       1.121   1.874  -0.010  0.00  0.00    +0.047 A 
ATOM     11  C   UNL     1       2.069   0.846   0.029  0.00  0.00    +0.036 A 
ATOM     12  C   UNL     1       1.403  -0.333   0.048  0.00  0.00    +0.101 A 
ATOM     13  N   UNL     1       0.070  -0.085   0.021  0.00  0.00    -0.345 N 
ATOM     14  C   UNL     1      -0.988  -1.098   0.030  0.00  0.00    +0.149 C 
ATOM     15 BR   UNL     1       3.947   1.065   0.053  0.00  0.00    -0.049 Br
ENDBRANCH   6   9
ENDBRANCH   3   5
BRANCH   1  16
ATOM     16  C   UNL     1      -4.077   6.014   0.294  0.00  0.00    +0.215 C 
BRANCH  16  21
ATOM     17  C   UNL     1      -2.219  10.236  -0.603  0.00  0.00    +0.042 C 
ATOM     18  C   UNL     1      -3.555   9.668  -0.119  0.00  0.00    +0.113 C 
ATOM     19  C   UNL     1      -3.781   8.280  -0.685  0.00  0.00    +0.247 C 
ATOM     20  O   UNL     1      -3.870   7.971  -1.854  0.00  0.00    -0.273 OA
ATOM     21  N   UNL     1      -3.861   7.460   0.382  0.00  0.00    -0.215 N 
ATOM     22  C   UNL     1      -3.723   8.132   1.531  0.00  0.00    +0.310 C 
ATOM     23  O   UNL     1      -3.764   7.609   2.627  0.00  0.00    -0.252 OA
ATOM     24  N   UNL     1      -3.532   9.449   1.337  0.00  0.00    -0.285 N 
ATOM     25  H   UNL     1      -3.377  10.298   2.019  0.00  0.00    +0.151 HD
BRANCH  18  26
ATOM     26  C   UNL     1      -4.705  10.600  -0.505  0.00  0.00    +0.021 C 
ATOM     27  C   UNL     1      -4.430  11.655  -1.579  0.00  0.00    +0.006 C 
ATOM     28  C   UNL     1      -4.582  12.074  -0.115  0.00  0.00    +0.006 C 
ENDBRANCH  18  26
ENDBRANCH  16  21
ENDBRANCH   1  16
TORSDOF 5
