REMARK  Name = ZINC23632395
REMARK  11 active torsions:
REMARK  status: ('A' for Active; 'I' for Inactive)
REMARK    1  A    between atoms: C_1  and  C_2
REMARK    2  A    between atoms: C_8  and  N_10
REMARK    3  A    between atoms: C_14  and  C_16
REMARK    4  A    between atoms: C_16  and  S_17
REMARK    5  A    between atoms: S_17  and  C_18
REMARK    6  A    between atoms: C_21  and  C_24
REMARK    7  A    between atoms: N_22  and  N_23
REMARK    8  A    between atoms: C_27  and  C_30
REMARK    9  A    between atoms: C_30  and  C_31
REMARK   10  A    between atoms: C_30  and  C_32
REMARK   11  A    between atoms: C_30  and  C_33
REMARK                            x       y       z     vdW  Elec       q    Type
REMARK                         _______ _______ _______ _____ _____    ______ ____
ROOT
ATOM      1  C   UNL     1      -8.368   1.873   4.856  0.00  0.00    +0.209 A 
ATOM      2  N   UNL     1      -7.737   2.187   5.966  0.00  0.00    -0.121 NA
ATOM      3  N   UNL     1      -8.581   2.361   6.919  0.00  0.00    -0.127 NA
ATOM      4  C   UNL     1      -9.801   2.160   6.480  0.00  0.00    +0.182 A 
ATOM      5  N   UNL     1      -9.703   1.841   5.145  0.00  0.00    -0.224 N 
ENDROOT
BRANCH   4   6
ATOM      6  C   UNL     1     -11.047   2.257   7.271  0.00  0.00    +0.021 A 
ATOM      7  C   UNL     1     -11.047   2.919   8.500  0.00  0.00    +0.012 A 
ATOM      8  C   UNL     1     -12.214   3.010   9.230  0.00  0.00    +0.005 A 
ATOM      9  C   UNL     1     -13.380   2.439   8.751  0.00  0.00    -0.042 A 
ATOM     10  C   UNL     1     -13.385   1.777   7.536  0.00  0.00    +0.005 A 
ATOM     11  C   UNL     1     -12.226   1.683   6.793  0.00  0.00    +0.012 A 
BRANCH   9  12
ATOM     12  C   UNL     1     -14.649   2.538   9.557  0.00  0.00    -0.013 C 
ATOM     13  C   UNL     1     -15.145   1.132   9.902  0.00  0.00    +0.015 C 
ATOM     14  C   UNL     1     -14.375   3.313  10.848  0.00  0.00    +0.015 C 
ATOM     15  C   UNL     1     -15.716   3.269   8.740  0.00  0.00    +0.015 C 
ENDBRANCH   9  12
ENDBRANCH   4   6
BRANCH   5  16
ATOM     16  N   UNL     1     -10.726   1.553   4.288  0.00  0.00    -0.295 N 
ATOM     17  H   UNL     1     -11.765   1.561   4.649  0.00  0.00    +0.163 HD
ATOM     18  H   UNL     1     -10.511   1.313   3.236  0.00  0.00    +0.163 HD
ENDBRANCH   5  16
BRANCH   1  19
ATOM     19  S   UNL     1      -7.630   1.546   3.290  0.00  0.00    -0.075 S 
BRANCH  19  20
ATOM     20  C   UNL     1      -5.885   1.783   3.710  0.00  0.00    +0.173 C 
BRANCH  20  25
ATOM     21  N   UNL     1      -1.600   1.582   1.541  0.00  0.00    -0.296 N 
ATOM     22  C   UNL     1      -2.940   1.460   1.466  0.00  0.00    +0.306 C 
ATOM     23  O   UNL     1      -3.465   1.162   0.412  0.00  0.00    -0.252 OA
ATOM     24  N   UNL     1      -3.698   1.670   2.561  0.00  0.00    -0.239 N 
ATOM     25  C   UNL     1      -5.038   1.549   2.486  0.00  0.00    +0.231 C 
ATOM     26  O   UNL     1      -5.562   1.251   1.434  0.00  0.00    -0.274 OA
ATOM     27  H   UNL     1      -1.124   1.852   2.496  0.00  0.00    +0.151 HD
ATOM     28  H   UNL     1      -3.222   1.940   3.515  0.00  0.00    +0.159 HD
BRANCH  21  35
ATOM     29  C   UNL     1       0.252   3.614   0.630  0.00  0.00    +0.009 C 
ATOM     30  C   UNL     1       0.542   2.118   0.489  0.00  0.00    +0.006 C 
ATOM     31  C   UNL     1       1.290   1.625   1.730  0.00  0.00    +0.005 C 
ATOM     32  C   UNL     1       1.580   0.130   1.589  0.00  0.00    +0.000 C 
ATOM     33  C   UNL     1       0.262  -0.635   1.451  0.00  0.00    +0.002 C 
ATOM     34  C   UNL     1      -0.486  -0.142   0.211  0.00  0.00    +0.022 C 
ATOM     35  C   UNL     1      -0.776   1.354   0.351  0.00  0.00    +0.077 C 
ENDBRANCH  21  35
ENDBRANCH  20  25
ENDBRANCH  19  20
ENDBRANCH   1  19
TORSDOF 7
