REMARK  Name = ZINC15086117
REMARK  5 active torsions:
REMARK  status: ('A' for Active; 'I' for Inactive)
REMARK    1  A    between atoms: C_3  and  N_8
REMARK    2  A    between atoms: N_8  and  C_9
REMARK    3  A    between atoms: C_11  and  O_21
REMARK    4  A    between atoms: C_13  and  O_20
REMARK    5  A    between atoms: C_15  and  O_19
REMARK                            x       y       z     vdW  Elec       q    Type
REMARK                         _______ _______ _______ _____ _____    ______ ____
ROOT
ATOM      1  C   UNL     1       3.245   3.203  -1.343  0.00  0.00    +0.236 C 
ATOM      2  C   UNL     1       2.539   3.717  -0.086  0.00  0.00    +0.192 C 
ATOM      3  C   UNL     1       1.146   3.087   0.004  0.00  0.00    +0.178 C 
ATOM      4  C   UNL     1       1.286   1.562  -0.002  0.00  0.00    +0.171 C 
ATOM      5  C   UNL     1       2.040   1.130  -1.263  0.00  0.00    +0.196 C 
ATOM      6  O   UNL     1       3.314   1.776  -1.298  0.00  0.00    -0.354 OA
ENDROOT
BRANCH   1   7
ATOM      7  N   UNL     1       2.493   3.618  -2.530  0.00  0.00    -0.302 N 
ATOM      8  H   UNL     1       1.395   3.671  -2.494  0.00  0.00    +0.150 HD
BRANCH   7  11
ATOM      9  C   UNL     1       5.214   4.206  -4.910  0.00  0.00    +0.020 A 
ATOM     10  C   UNL     1       4.556   3.882  -3.737  0.00  0.00    +0.044 A 
ATOM     11  C   UNL     1       3.167   3.946  -3.701  0.00  0.00    +0.121 A 
ATOM     12  N   UNL     1       2.481   4.321  -4.770  0.00  0.00    -0.239 NA
ATOM     13  C   UNL     1       3.082   4.640  -5.900  0.00  0.00    +0.128 A 
ATOM     14  C   UNL     1       4.458   4.594  -6.009  0.00  0.00    +0.036 A 
ATOM     15 BR   UNL     1       5.304   5.054  -7.636  0.00  0.00    -0.049 Br
ENDBRANCH   7  11
ENDBRANCH   1   7
BRANCH   4  16
ATOM     16  O   UNL     1      -0.011   0.963   0.007  0.00  0.00    -0.387 OA
ATOM     17  H   UNL     1      -0.111  -0.133   0.004  0.00  0.00    +0.210 HD
ENDBRANCH   4  16
BRANCH   3  18
ATOM     18  O   UNL     1       0.509   3.503   1.214  0.00  0.00    -0.386 OA
ATOM     19  H   UNL     1      -0.505   3.149   1.452  0.00  0.00    +0.210 HD
ENDBRANCH   3  18
BRANCH   2  20
ATOM     20  O   UNL     1       2.418   5.139  -0.154  0.00  0.00    -0.385 OA
ATOM     21  H   UNL     1       1.934   5.691   0.666  0.00  0.00    +0.210 HD
ENDBRANCH   2  20
TORSDOF 5
