REMARK  Name = ZINC66121833
REMARK  7 active torsions:
REMARK  status: ('A' for Active; 'I' for Inactive)
REMARK    1  A    between atoms: C_1  and  C_2
REMARK    2  A    between atoms: C_2  and  C_4
REMARK    3  A    between atoms: C_2  and  N_13
REMARK    4  A    between atoms: C_4  and  C_5
REMARK    5  A    between atoms: C_20  and  C_23
REMARK    6  A    between atoms: C_23  and  C_24
REMARK    7  A    between atoms: C_24  and  C_25
REMARK                            x       y       z     vdW  Elec       q    Type
REMARK                         _______ _______ _______ _____ _____    ______ ____
ROOT
ATOM      1  N   UNL     1      -1.259  -0.327   2.431  0.00  0.00    -0.296 N 
ATOM      2  C   UNL     1       0.051  -0.633   2.355  0.00  0.00    +0.302 C 
ATOM      3  O   UNL     1       0.624  -0.595   1.284  0.00  0.00    -0.253 OA
ATOM      4  N   UNL     1       0.727  -0.983   3.468  0.00  0.00    -0.285 N 
ATOM      5  C   UNL     1       2.179  -1.203   3.424  0.00  0.00    +0.109 C 
ATOM      6  C   UNL     1       2.485  -2.587   4.005  0.00  0.00    +0.019 C 
ATOM      7  C   UNL     1       1.875  -2.696   5.404  0.00  0.00    +0.006 C 
ATOM      8  C   UNL     1       0.356  -2.535   5.314  0.00  0.00    +0.007 C 
ATOM      9  C   UNL     1       0.026  -1.145   4.749  0.00  0.00    +0.112 C 
ATOM     10  H   UNL     1      -1.733  -0.427   3.271  0.00  0.00    +0.151 HD
ENDROOT
BRANCH   1  12
ATOM     11  C   UNL     1      -2.445  -1.034   0.412  0.00  0.00    +0.028 C 
ATOM     12  C   UNL     1      -1.967   0.158   1.244  0.00  0.00    +0.076 C 
BRANCH  12  13
ATOM     13  C   UNL     1      -3.174   0.995   1.675  0.00  0.00    +0.058 C 
BRANCH  13  14
ATOM     14  C   UNL     1      -2.696   2.233   2.389  0.00  0.00    -0.027 A 
ATOM     15  C   UNL     1      -2.605   2.245   3.768  0.00  0.00    +0.006 A 
ATOM     16  C   UNL     1      -2.167   3.381   4.423  0.00  0.00    +0.020 A 
ATOM     17  C   UNL     1      -1.820   4.507   3.698  0.00  0.00    +0.042 A 
ATOM     18  C   UNL     1      -1.911   4.496   2.318  0.00  0.00    +0.040 A 
ATOM     19  C   UNL     1      -2.345   3.357   1.662  0.00  0.00    +0.046 A 
ATOM     20 CL   UNL     1      -2.453   3.341  -0.070  0.00  0.00    -0.083 Cl
ATOM     21 CL   UNL     1      -1.271   5.934   4.520  0.00  0.00    -0.083 Cl
ENDBRANCH  13  14
ENDBRANCH  12  13
ENDBRANCH   1  12
BRANCH   8  22
ATOM     22  C   UNL     1      -0.257  -2.677   6.709  0.00  0.00    +0.014 C 
BRANCH  22  23
ATOM     23  C   UNL     1      -1.783  -2.642   6.602  0.00  0.00    +0.096 C 
BRANCH  23  24
ATOM     24  C   UNL     1      -2.386  -2.782   7.976  0.00  0.00    +0.210 C 
ATOM     25  O   UNL     1      -1.666  -2.898   8.945  0.00  0.00    -0.276 OA
ATOM     26  N   UNL     1      -3.725  -2.777   8.128  0.00  0.00    -0.329 N 
ATOM     27  H   UNL     1      -4.301  -2.684   7.353  0.00  0.00    +0.145 HD
ATOM     28  H   UNL     1      -4.113  -2.867   9.012  0.00  0.00    +0.145 HD
ENDBRANCH  23  24
ENDBRANCH  22  23
ENDBRANCH   8  22
TORSDOF 6
