REMARK  Name = ZINC54381878
REMARK  6 active torsions:
REMARK  status: ('A' for Active; 'I' for Inactive)
REMARK    1  A    between atoms: C_1  and  C_2
REMARK    2  A    between atoms: C_6  and  C_19
REMARK    3  A    between atoms: C_7  and  O_8
REMARK    4  A    between atoms: O_8  and  C_9
REMARK    5  A    between atoms: C_10  and  C_15
REMARK    6  A    between atoms: N_16  and  O_17
REMARK                            x       y       z     vdW  Elec       q    Type
REMARK                         _______ _______ _______ _____ _____    ______ ____
ROOT
ATOM      1  C   UNL     1      -1.171   0.265   2.945  0.00  0.00    +0.250 A 
ATOM      2  C   UNL     1      -1.221   0.963   4.161  0.00  0.00    +0.168 A 
ATOM      3  N   UNL     1      -2.398   1.250   4.707  0.00  0.00    -0.245 NA
ATOM      4  C   UNL     1      -3.513   0.880   4.104  0.00  0.00    +0.131 A 
ATOM      5  C   UNL     1      -3.462   0.192   2.904  0.00  0.00    +0.134 A 
ATOM      6  N   UNL     1      -2.297  -0.096   2.348  0.00  0.00    -0.218 NA
ENDROOT
BRANCH   2   7
ATOM      7  C   UNL     1       0.031   1.375   4.834  0.00  0.00    +0.186 C 
ATOM      8  N   UNL     1       1.181   1.092   4.297  0.00  0.00    -0.070 NA
ATOM      9  N   UNL     1      -0.023   2.064   6.035  0.00  0.00    -0.339 N 
ATOM     10  H   UNL     1      -0.881   2.275   6.435  0.00  0.00    +0.144 HD
ATOM     11  H   UNL     1       0.797   2.334   6.476  0.00  0.00    +0.144 HD
BRANCH   8  12
ATOM     12  O   UNL     1       2.379   1.487   4.941  0.00  0.00    -0.408 OA
ATOM     13  H   UNL     1       3.183   1.232   4.467  0.00  0.00    +0.328 HD
ENDBRANCH   8  12
ENDBRANCH   2   7
BRANCH   1  14
ATOM     14  O   UNL     1       0.025  -0.033   2.381  0.00  0.00    -0.436 OA
BRANCH  14  21
ATOM     15  C   UNL     1      -0.018   1.503   0.010  0.00  0.00    +0.047 C 
ATOM     16  C   UNL     1       0.002  -0.004   0.002  0.00  0.00    -0.006 A 
ATOM     17  C   UNL     1       0.006  -0.689  -1.198  0.00  0.00    +0.027 A 
ATOM     18  C   UNL     1       0.025  -2.072  -1.206  0.00  0.00    +0.042 A 
ATOM     19  C   UNL     1       0.041  -2.773  -0.013  0.00  0.00    +0.027 A 
ATOM     20  C   UNL     1       0.036  -2.092   1.189  0.00  0.00    -0.006 A 
ATOM     21  C   UNL     1       0.023  -0.705   1.199  0.00  0.00    +0.136 A 
ATOM     22  C   UNL     1       0.053  -2.856   2.488  0.00  0.00    +0.047 C 
ATOM     23 CL   UNL     1       0.029  -2.930  -2.715  0.00  0.00    -0.084 Cl
ENDBRANCH  14  21
ENDBRANCH   1  14
TORSDOF 4
