REMARK  Name = ZINC12573464
REMARK  11 active torsions:
REMARK  status: ('A' for Active; 'I' for Inactive)
REMARK    1  A    between atoms: C_1  and  C_2
REMARK    2  A    between atoms: C_2  and  C_3
REMARK    3  A    between atoms: N_5  and  C_6
REMARK    4  A    between atoms: C_9  and  C_12
REMARK    5  A    between atoms: N_14  and  N_15
REMARK    6  A    between atoms: N_15  and  C_16
REMARK    7  A    between atoms: C_16  and  N_18
REMARK    8  A    between atoms: C_19  and  C_21
REMARK    9  A    between atoms: C_21  and  O_22
REMARK   10  A    between atoms: O_22  and  C_23
REMARK   11  A    between atoms: C_27  and  C_29
REMARK                            x       y       z     vdW  Elec       q    Type
REMARK                         _______ _______ _______ _____ _____    ______ ____
ROOT
ATOM      1  N   UNL     1      -6.391   5.448  -0.329  0.00  0.00    -0.245 N 
ATOM      2  H   UNL     1      -7.200   4.917  -0.274  0.00  0.00    +0.172 HD
ENDROOT
BRANCH   1   5
ATOM      3  C   UNL     1      -5.057   3.483  -0.167  0.00  0.00    +0.260 C 
ATOM      4  O   UNL     1      -6.071   2.817  -0.097  0.00  0.00    -0.269 OA
ATOM      5  N   UNL     1      -5.138   4.823  -0.285  0.00  0.00    -0.231 N 
ATOM      6  H   UNL     1      -4.328   5.355  -0.341  0.00  0.00    +0.173 HD
BRANCH   3  10
ATOM      7  C   UNL     1      -1.258   1.588  -0.035  0.00  0.00    +0.033 A 
ATOM      8  C   UNL     1      -1.340   2.972  -0.152  0.00  0.00    +0.024 A 
ATOM      9  C   UNL     1      -2.570   3.589  -0.201  0.00  0.00    +0.015 A 
ATOM     10  C   UNL     1      -3.737   2.825  -0.120  0.00  0.00    +0.038 A 
ATOM     11  C   UNL     1      -3.651   1.435   0.003  0.00  0.00    +0.015 A 
ATOM     12  C   UNL     1      -2.418   0.824   0.045  0.00  0.00    +0.024 A 
BRANCH   7  15
ATOM     13  C   UNL     1       1.025   1.575   0.617  0.00  0.00    +0.217 C 
ATOM     14  O   UNL     1       0.894   2.696   1.060  0.00  0.00    -0.275 OA
ATOM     15  N   UNL     1      -0.011   0.966   0.007  0.00  0.00    -0.286 N 
ATOM     16  H   UNL     1       0.112   0.097  -0.405  0.00  0.00    +0.155 HD
BRANCH  13  18
ATOM     17  C   UNL     1       3.345   1.767   1.474  0.00  0.00    +0.013 C 
ATOM     18  C   UNL     1       2.347   0.862   0.748  0.00  0.00    +0.093 C 
ENDBRANCH  13  18
ENDBRANCH   7  15
ENDBRANCH   3  10
ENDBRANCH   1   5
BRANCH   1  19
ATOM     19  C   UNL     1      -6.471   6.788  -0.448  0.00  0.00    +0.153 C 
ATOM     20  S   UNL     1      -8.003   7.552  -0.502  0.00  0.00    -0.017 S 
BRANCH  19  21
ATOM     21  N   UNL     1      -5.347   7.527  -0.525  0.00  0.00    -0.264 N 
ATOM     22  C   UNL     1      -5.428   8.867  -0.644  0.00  0.00    +0.256 C 
ATOM     23  O   UNL     1      -6.512   9.408  -0.682  0.00  0.00    -0.272 OA
ATOM     24  H   UNL     1      -4.479   7.094  -0.495  0.00  0.00    +0.157 HD
BRANCH  22  25
ATOM     25  C   UNL     1      -4.170   9.693  -0.730  0.00  0.00    +0.324 C 
BRANCH  25  26
ATOM     26  O   UNL     1      -4.515  11.075  -0.851  0.00  0.00    -0.483 OA
BRANCH  26  27
ATOM     27  C   UNL     1      -3.489  11.961  -0.940  0.00  0.00    +0.122 A 
ATOM     28  C   UNL     1      -2.177  11.511  -0.906  0.00  0.00    +0.047 A 
ATOM     29  C   UNL     1      -1.135  12.413  -1.003  0.00  0.00    +0.019 A 
ATOM     30  C   UNL     1      -1.400  13.766  -1.122  0.00  0.00    +0.021 A 
ATOM     31  C   UNL     1      -2.707  14.218  -1.149  0.00  0.00    -0.033 A 
ATOM     32  C   UNL     1      -3.752  13.318  -1.059  0.00  0.00    +0.050 A 
ATOM     33  C   UNL     1      -2.992  15.692  -1.279  0.00  0.00    +0.045 C 
ATOM     34 BR   UNL     1       0.028  15.000  -1.246  0.00  0.00    -0.050 Br
ENDBRANCH  26  27
ENDBRANCH  25  26
ENDBRANCH  22  25
ENDBRANCH  19  21
ENDBRANCH   1  19
TORSDOF 9
