REMARK  Name = ZINC12490133
REMARK  12 active torsions:
REMARK  status: ('A' for Active; 'I' for Inactive)
REMARK    1  A    between atoms: C_1  and  C_2
REMARK    2  A    between atoms: C_2  and  C_3
REMARK    3  A    between atoms: C_3  and  C_4
REMARK    4  A    between atoms: C_4  and  N_5
REMARK    5  A    between atoms: N_5  and  C_6
REMARK    6  A    between atoms: N_5  and  S_8
REMARK    7  A    between atoms: C_6  and  C_7
REMARK    8  A    between atoms: S_8  and  C_11
REMARK    9  A    between atoms: C_14  and  C_17
REMARK   10  A    between atoms: C_17  and  O_19
REMARK   11  A    between atoms: O_19  and  C_20
REMARK   12  A    between atoms: C_34  and  N_67
REMARK                            x       y       z     vdW  Elec       q    Type
REMARK                         _______ _______ _______ _____ _____    ______ ____
ROOT
ATOM      1  C   UNL     1      -3.147   3.083   4.857  0.00  0.00    +0.344 C 
ATOM      2  O   UNL     1      -3.980   2.334   5.325  0.00  0.00    -0.245 OA
ENDROOT
BRANCH   1   6
ATOM      3  C   UNL     1      -0.950   1.929   1.411  0.00  0.00    +0.106 A 
ATOM      4  C   UNL     1      -0.710   3.157   2.001  0.00  0.00    +0.029 A 
ATOM      5  C   UNL     1      -1.424   3.541   3.118  0.00  0.00    +0.017 A 
ATOM      6  C   UNL     1      -2.382   2.682   3.659  0.00  0.00    +0.060 A 
ATOM      7  C   UNL     1      -2.616   1.441   3.061  0.00  0.00    +0.017 A 
ATOM      8  C   UNL     1      -1.899   1.073   1.942  0.00  0.00    +0.029 A 
BRANCH   3   9
ATOM      9  S   UNL     1      -0.039   1.450  -0.019  0.00  0.00    +0.061 S 
ATOM     10  O   UNL     1      -0.059   0.030  -0.057  0.00  0.00    -0.153 OA
ATOM     11  O   UNL     1       1.171   2.195   0.002  0.00  0.00    -0.153 OA
BRANCH   9  12
ATOM     12  N   UNL     1      -0.892   1.970  -1.340  0.00  0.00    -0.177 NA
BRANCH  12  13
ATOM     13  C   UNL     1      -0.643   3.303  -1.895  0.00  0.00    +0.106 C 
ATOM     14  C   UNL     1       0.363   3.198  -3.042  0.00  0.00    +0.022 C 
ENDBRANCH  12  13
BRANCH  12  15
ATOM     15  C   UNL     1      -1.896   1.097  -1.954  0.00  0.00    +0.109 C 
BRANCH  15  16
ATOM     16  C   UNL     1      -3.277   1.430  -1.387  0.00  0.00    +0.017 C 
BRANCH  16  18
ATOM     17  C   UNL     1      -5.707   0.852  -1.461  0.00  0.00    +0.004 C 
ATOM     18  C   UNL     1      -4.325   0.519  -2.028  0.00  0.00    -0.002 C 
ENDBRANCH  16  18
ENDBRANCH  15  16
ENDBRANCH  12  15
ENDBRANCH   9  12
ENDBRANCH   3   9
ENDBRANCH   1   6
BRANCH   1  19
ATOM     19  O   UNL     1      -2.919   4.280   5.431  0.00  0.00    -0.422 OA
BRANCH  19  20
ATOM     20  C   UNL     1      -3.726   4.631   6.468  0.00  0.00    +0.133 A 
ATOM     21  C   UNL     1      -3.532   4.079   7.730  0.00  0.00    +0.048 A 
ATOM     22  C   UNL     1      -4.332   4.417   8.789  0.00  0.00    +0.032 A 
ATOM     23  C   UNL     1      -5.388   5.345   8.632  0.00  0.00    +0.081 A 
ATOM     24  C   UNL     1      -5.557   5.886   7.338  0.00  0.00    +0.044 A 
ATOM     25  C   UNL     1      -4.750   5.549   6.281  0.00  0.00    +0.063 A 
ATOM     26  S   UNL     1      -6.946   6.973   7.560  0.00  0.00    -0.052 S 
ATOM     27  C   UNL     1      -7.207   6.651   9.299  0.00  0.00    +0.162 A 
ATOM     28  N   UNL     1      -6.261   5.781   9.568  0.00  0.00    -0.225 NA
ATOM     29  N   UNL     1      -8.160   7.183  10.144  0.00  0.00    -0.313 N 
ATOM     30  C   UNL     1      -8.096   8.651  10.153  0.00  0.00    +0.088 C 
ATOM     31  C   UNL     1      -9.217   9.202  11.037  0.00  0.00    -0.060 C 
ATOM     32  C   UNL     1      -9.139   7.195  12.388  0.00  0.00    -0.060 C 
ATOM     33  C   UNL     1      -8.018   6.644  11.503  0.00  0.00    +0.088 C 
ATOM     34  C   UNL     1     -10.089   9.229  13.296  0.00  0.00    -0.096 C 
ATOM     35  N   UNL     1      -9.049   8.670  12.406  0.00  0.00    +0.380 N 
ATOM     36  H   UNL     1      -8.125   8.944  12.760  0.00  0.00    -0.082 HD
ENDBRANCH  19  20
ENDBRANCH   1  19
TORSDOF 9
