REMARK  Name = ZINC48336345
REMARK  5 active torsions:
REMARK  status: ('A' for Active; 'I' for Inactive)
REMARK    1  A    between atoms: C_1  and  O_2
REMARK    2  A    between atoms: O_2  and  C_3
REMARK    3  A    between atoms: C_6  and  O_12
REMARK    4  A    between atoms: C_7  and  N_9
REMARK    5  A    between atoms: O_12  and  C_13
REMARK                            x       y       z     vdW  Elec       q    Type
REMARK                         _______ _______ _______ _____ _____    ______ ____
ROOT
ATOM      1  C   UNL     1      -1.218  -0.625  -0.236  0.00  0.00    +0.122 A 
ATOM      2  C   UNL     1      -2.376   0.103  -0.008  0.00  0.00    +0.049 A 
ATOM      3  C   UNL     1      -3.592  -0.545   0.083  0.00  0.00    +0.052 A 
ATOM      4  C   UNL     1      -3.656  -1.924  -0.054  0.00  0.00    +0.159 A 
ATOM      5  C   UNL     1      -2.497  -2.652  -0.282  0.00  0.00    +0.172 A 
ATOM      6  C   UNL     1      -1.282  -2.003  -0.379  0.00  0.00    +0.082 A 
ENDROOT
BRANCH   5   7
ATOM      7  N   UNL     1      -2.565  -4.124  -0.429  0.00  0.00    +0.060 N 
ATOM      8  O   UNL     1      -1.555  -4.758  -0.627  0.00  0.00    -0.126 OA
ATOM      9  O   UNL     1      -3.630  -4.691  -0.349  0.00  0.00    -0.126 OA
ENDBRANCH   5   7
BRANCH   1  11
ATOM     10  C   UNL     1      -0.028   1.433  -0.168  0.00  0.00    +0.277 C 
ATOM     11  O   UNL     1      -0.020   0.012  -0.325  0.00  0.00    -0.495 OA
ENDBRANCH   1  11
BRANCH   4  12
ATOM     12  O   UNL     1      -4.853  -2.562   0.035  0.00  0.00    -0.453 OA
BRANCH  12  13
ATOM     13  C   UNL     1      -5.974  -1.802   0.149  0.00  0.00    +0.142 A 
ATOM     14  C   UNL     1      -6.489  -1.507   1.403  0.00  0.00    +0.047 A 
ATOM     15  C   UNL     1      -7.628  -0.734   1.517  0.00  0.00    +0.004 A 
ATOM     16  C   UNL     1      -8.255  -0.253   0.382  0.00  0.00    +0.001 A 
ATOM     17  C   UNL     1      -7.744  -0.545  -0.869  0.00  0.00    +0.018 A 
ATOM     18  C   UNL     1      -6.602  -1.314  -0.988  0.00  0.00    +0.056 A 
ATOM     19  I   UNL     1      -5.824  -1.749  -2.884  0.00  0.00    -0.040 I 
ENDBRANCH  12  13
ENDBRANCH   4  12
TORSDOF 4
