REMARK  Name = ZINC20457636
REMARK  7 active torsions:
REMARK  status: ('A' for Active; 'I' for Inactive)
REMARK    1  A    between atoms: C_3  and  O_29
REMARK    2  A    between atoms: C_6  and  C_7
REMARK    3  A    between atoms: C_10  and  C_21
REMARK    4  A    between atoms: C_16  and  N_20
REMARK    5  A    between atoms: C_17  and  C_18
REMARK    6  A    between atoms: O_29  and  C_30
REMARK    7  A    between atoms: C_30  and  C_31
REMARK                            x       y       z     vdW  Elec       q    Type
REMARK                         _______ _______ _______ _____ _____    ______ ____
ROOT
ATOM      1  C   UNL     1      -1.293  -0.774   0.011  0.00  0.00    +0.102 C 
ATOM      2  C   UNL     1      -1.373  -1.648  -1.214  0.00  0.00    +0.054 A 
ATOM      3  C   UNL     1      -1.586  -1.285  -2.547  0.00  0.00    +0.100 A 
ATOM      4  N   UNL     1      -1.576  -2.386  -3.274  0.00  0.00    -0.171 NA
ATOM      5  N   UNL     1      -1.357  -3.478  -2.420  0.00  0.00    -0.246 N 
ATOM      6  H   UNL     1      -1.302  -4.409  -2.687  0.00  0.00    +0.192 HD
ATOM      7  C   UNL     1      -1.236  -3.005  -1.162  0.00  0.00    +0.223 A 
ATOM      8  O   UNL     1      -1.020  -3.675  -0.003  0.00  0.00    -0.423 OA
ATOM      9  C   UNL     1      -1.213  -3.005   1.151  0.00  0.00    +0.200 C 
ATOM     10  C   UNL     1      -1.349  -1.662   1.229  0.00  0.00    +0.098 C 
ENDROOT
BRANCH   3  11
ATOM     11  C   UNL     1      -1.788   0.095  -3.055  0.00  0.00    +0.004 A 
ATOM     12  C   UNL     1      -2.472   1.031  -2.283  0.00  0.00    +0.011 A 
ATOM     13  C   UNL     1      -2.658   2.312  -2.758  0.00  0.00    +0.022 A 
ATOM     14  C   UNL     1      -2.166   2.670  -4.002  0.00  0.00    +0.059 A 
ATOM     15  C   UNL     1      -1.485   1.743  -4.774  0.00  0.00    +0.060 A 
ATOM     16  C   UNL     1      -1.289   0.459  -4.304  0.00  0.00    +0.031 A 
ATOM     17 CL   UNL     1      -0.870   2.198  -6.333  0.00  0.00    -0.082 Cl
ATOM     18 CL   UNL     1      -2.403   4.284  -4.595  0.00  0.00    -0.082 Cl
ENDBRANCH   3  11
BRANCH   1  24
ATOM     19  C   UNL     1      -0.017   1.378   0.010  0.00  0.00    +0.008 A 
ATOM     20  C   UNL     1       1.169   2.087   0.002  0.00  0.00    +0.046 A 
ATOM     21  C   UNL     1       2.380   1.409  -0.013  0.00  0.00    +0.121 A 
ATOM     22  C   UNL     1       2.396   0.022  -0.021  0.00  0.00    +0.046 A 
ATOM     23  C   UNL     1       1.207  -0.681  -0.013  0.00  0.00    +0.008 A 
ATOM     24  C   UNL     1       0.002  -0.004   0.002  0.00  0.00    -0.034 A 
BRANCH  21  25
ATOM     25  O   UNL     1       3.548   2.104  -0.021  0.00  0.00    -0.483 OA
BRANCH  25  26
ATOM     26  C   UNL     1       4.756   1.341  -0.036  0.00  0.00    +0.324 C 
BRANCH  26  27
ATOM     27  C   UNL     1       5.940   2.274  -0.043  0.00  0.00    +0.248 C 
ATOM     28  O   UNL     1       5.766   3.474  -0.036  0.00  0.00    -0.272 OA
ATOM     29  N   UNL     1       7.192   1.774  -0.058  0.00  0.00    -0.327 N 
ATOM     30  H   UNL     1       7.331   0.814  -0.064  0.00  0.00    +0.145 HD
ATOM     31  H   UNL     1       7.953   2.375  -0.062  0.00  0.00    +0.145 HD
ENDBRANCH  26  27
ENDBRANCH  25  26
ENDBRANCH  21  25
ENDBRANCH   1  24
BRANCH   9  32
ATOM     32  N   UNL     1      -1.274  -3.729   2.316  0.00  0.00    -0.328 N 
ATOM     33  H   UNL     1      -1.179  -4.694   2.293  0.00  0.00    +0.145 HD
ATOM     34  H   UNL     1      -1.412  -3.275   3.163  0.00  0.00    +0.145 HD
ENDBRANCH   9  32
BRANCH  10  35
ATOM     35  C   UNL     1      -1.555  -1.061   2.512  0.00  0.00    +0.101 C 
ATOM     36  N   UNL     1      -1.718  -0.584   3.530  0.00  0.00    -0.191 NA
ENDBRANCH  10  35
TORSDOF 7
