REMARK  Name = ZINC36604664
REMARK  12 active torsions:
REMARK  status: ('A' for Active; 'I' for Inactive)
REMARK    1  A    between atoms: C_1  and  C_2
REMARK    2  A    between atoms: C_2  and  C_3
REMARK    3  A    between atoms: C_2  and  C_4
REMARK    4  A    between atoms: C_2  and  N_5
REMARK    5  A    between atoms: C_6  and  C_8
REMARK    6  A    between atoms: C_8  and  C_10
REMARK    7  A    between atoms: C_8  and  N_19
REMARK    8  A    between atoms: C_11  and  O_18
REMARK    9  A    between atoms: C_13  and  O_17
REMARK   10  A    between atoms: C_15  and  O_16
REMARK   11  A    between atoms: N_19  and  C_20
REMARK   12  A    between atoms: C_26  and  C_28
REMARK                            x       y       z     vdW  Elec       q    Type
REMARK                         _______ _______ _______ _____ _____    ______ ____
ROOT
ATOM      1  C   UNL     1       2.606  -0.815  -2.387  0.00  0.00    +0.204 C 
ENDROOT
BRANCH   1   2
ATOM      2  C   UNL     1       1.558  -0.424  -3.397  0.00  0.00    +0.065 A 
ATOM      3  C   UNL     1       1.433   0.900  -3.790  0.00  0.00    +0.129 A 
ATOM      4  C   UNL     1       0.469   1.260  -4.719  0.00  0.00    +0.091 A 
ATOM      5  C   UNL     1      -0.370   0.295  -5.256  0.00  0.00    +0.124 A 
ATOM      6  C   UNL     1      -0.245  -1.029  -4.864  0.00  0.00    +0.091 A 
ATOM      7  C   UNL     1       0.722  -1.389  -3.938  0.00  0.00    +0.129 A 
BRANCH   7   8
ATOM      8  O   UNL     1       0.848  -2.688  -3.557  0.00  0.00    -0.506 OA
ATOM      9  H   UNL     1       0.305  -2.928  -2.793  0.00  0.00    +0.292 HD
ENDBRANCH   7   8
BRANCH   5  10
ATOM     10  O   UNL     1      -1.316   0.648  -6.166  0.00  0.00    -0.507 OA
ATOM     11  H   UNL     1      -1.012   0.611  -7.083  0.00  0.00    +0.292 HD
ENDBRANCH   5  10
BRANCH   3  12
ATOM     12  O   UNL     1       2.256   1.845  -3.264  0.00  0.00    -0.506 OA
ATOM     13  H   UNL     1       3.066   1.988  -3.772  0.00  0.00    +0.292 HD
ENDBRANCH   3  12
ENDBRANCH   1   2
BRANCH   1  15
ATOM     14  N   UNL     1       0.864  -0.234  -0.730  0.00  0.00    -0.309 N 
ATOM     15  C   UNL     1       2.175  -0.365  -1.015  0.00  0.00    +0.239 C 
ATOM     16  O   UNL     1       3.007  -0.119  -0.168  0.00  0.00    -0.273 OA
ATOM     17  H   UNL     1       0.198  -0.430  -1.408  0.00  0.00    +0.149 HD
BRANCH  14  19
ATOM     18  C   UNL     1       1.025   1.589   0.891  0.00  0.00    +0.031 C 
ATOM     19  C   UNL     1       0.444   0.203   0.604  0.00  0.00    +0.026 C 
ATOM     20  C   UNL     1       0.953  -0.790   1.650  0.00  0.00    +0.031 C 
ATOM     21  C   UNL     1      -1.083   0.268   0.662  0.00  0.00    +0.031 C 
ENDBRANCH  14  19
ENDBRANCH   1  15
BRANCH   1  22
ATOM     22  N   UNL     1       3.879  -0.177  -2.733  0.00  0.00    -0.255 N 
ATOM     23  C   UNL     1       4.373  -0.292  -3.981  0.00  0.00    +0.224 C 
ATOM     24  O   UNL     1       3.733  -0.866  -4.837  0.00  0.00    -0.275 OA
BRANCH  22  25
ATOM     25  C   UNL     1       4.582   0.551  -1.766  0.00  0.00    +0.037 A 
ATOM     26  C   UNL     1       5.854   0.150  -1.381  0.00  0.00    +0.023 A 
ATOM     27  C   UNL     1       6.545   0.872  -0.428  0.00  0.00    +0.002 A 
ATOM     28  C   UNL     1       5.971   1.992   0.144  0.00  0.00    +0.000 A 
ATOM     29  C   UNL     1       4.704   2.394  -0.237  0.00  0.00    +0.002 A 
ATOM     30  C   UNL     1       4.010   1.680  -1.194  0.00  0.00    +0.023 A 
ENDBRANCH  22  25
BRANCH  23  31
ATOM     31  C   UNL     1       5.722   0.292  -4.314  0.00  0.00    +0.076 C 
ATOM     32  C   UNL     1       5.617   1.818  -4.373  0.00  0.00    +0.013 C 
ATOM     33  C   UNL     1       6.986   2.411  -4.711  0.00  0.00    +0.001 C 
ATOM     34  C   UNL     1       7.450   1.879  -6.068  0.00  0.00    +0.000 C 
ATOM     35  C   UNL     1       7.556   0.354  -6.010  0.00  0.00    +0.001 C 
ATOM     36  C   UNL     1       6.187  -0.239  -5.672  0.00  0.00    +0.013 C 
ENDBRANCH  23  31
ENDBRANCH   1  22
TORSDOF 9
