REMARK  Name = ZINC39590239
REMARK  4 active torsions:
REMARK  status: ('A' for Active; 'I' for Inactive)
REMARK    1  A    between atoms: C_6  and  N_7
REMARK    2  A    between atoms: C_8  and  C_10
REMARK    3  A    between atoms: C_13  and  N_17
REMARK    4  A    between atoms: C_18  and  C_20
REMARK                            x       y       z     vdW  Elec       q    Type
REMARK                         _______ _______ _______ _____ _____    ______ ____
ROOT
ATOM      1  C   UNL     1      -2.425  -2.765  -0.224  0.00  0.00    +0.087 C 
ATOM      2  C   UNL     1      -2.402  -4.111  -0.323  0.00  0.00    +0.021 C 
ATOM      3  N   UNL     1      -3.539  -4.830  -0.426  0.00  0.00    -0.320 N 
ATOM      4  C   UNL     1      -3.430  -6.166  -1.053  0.00  0.00    +0.219 C 
ATOM      5  S   UNL     1      -1.698  -6.608  -0.598  0.00  0.00    -0.114 S 
ATOM      6  C   UNL     1      -1.095  -4.887  -0.332  0.00  0.00    +0.123 C 
ATOM      7  H   UNL     1      -4.388  -4.488  -0.104  0.00  0.00    +0.148 HD
ENDROOT
BRANCH   1   9
ATOM      8  N   UNL     1      -1.235  -0.700  -0.024  0.00  0.00    -0.282 N 
ATOM      9  C   UNL     1      -1.213  -2.044  -0.124  0.00  0.00    +0.243 C 
ATOM     10  O   UNL     1      -0.149  -2.636  -0.128  0.00  0.00    -0.270 OA
ATOM     11  H   UNL     1      -2.083  -0.233   0.043  0.00  0.00    +0.155 HD
BRANCH   8  17
ATOM     12  C   UNL     1       0.028   1.270  -0.624  0.00  0.00    +0.025 A 
ATOM     13  C   UNL     1       1.212   1.979  -0.616  0.00  0.00    +0.022 A 
ATOM     14  C   UNL     1       2.335   1.448  -0.006  0.00  0.00    +0.041 A 
ATOM     15  C   UNL     1       2.274   0.204   0.598  0.00  0.00    +0.022 A 
ATOM     16  C   UNL     1       1.092  -0.510   0.593  0.00  0.00    +0.025 A 
ATOM     17  C   UNL     1      -0.036   0.021  -0.018  0.00  0.00    +0.034 A 
ATOM     18 CL   UNL     1       3.823   2.342   0.001  0.00  0.00    -0.084 Cl
ENDBRANCH   8  17
ENDBRANCH   1   9
BRANCH   4  19
ATOM     19  N   UNL     1      -4.390  -7.106  -0.468  0.00  0.00    -0.284 N 
ATOM     20  C   UNL     1      -4.660  -8.270  -1.093  0.00  0.00    +0.251 C 
ATOM     21  O   UNL     1      -4.042  -8.580  -2.094  0.00  0.00    -0.270 OA
ATOM     22  H   UNL     1      -4.830  -6.892   0.369  0.00  0.00    +0.152 HD
BRANCH  20  23
ATOM     23  C   UNL     1      -5.703  -9.163  -0.566  0.00  0.00    +0.101 A 
ATOM     24  C   UNL     1      -6.073 -10.310  -1.264  0.00  0.00    +0.020 A 
ATOM     25  C   UNL     1      -7.066 -11.133  -0.733  0.00  0.00    +0.018 A 
ATOM     26  C   UNL     1      -7.657 -10.813   0.447  0.00  0.00    +0.086 A 
ATOM     27  N   UNL     1      -7.302  -9.700   1.131  0.00  0.00    -0.328 N 
ATOM     28  C   UNL     1      -6.345  -8.874   0.666  0.00  0.00    +0.261 A 
ATOM     29  O   UNL     1      -6.036  -7.879   1.298  0.00  0.00    -0.267 OA
ATOM     30  H   UNL     1      -7.742  -9.495   1.971  0.00  0.00    +0.168 HD
ENDBRANCH  20  23
ENDBRANCH   4  19
TORSDOF 4
