REMARK  Name = ZINC20527726
REMARK  14 active torsions:
REMARK  status: ('A' for Active; 'I' for Inactive)
REMARK    1  A    between atoms: C_1  and  C_2
REMARK    2  A    between atoms: C_2  and  N_3
REMARK    3  A    between atoms: N_3  and  C_4
REMARK    4  A    between atoms: N_3  and  C_6
REMARK    5  A    between atoms: C_4  and  C_5
REMARK    6  A    between atoms: C_9  and  C_12
REMARK    7  A    between atoms: N_13  and  N_14
REMARK    8  A    between atoms: C_18  and  S_21
REMARK    9  A    between atoms: N_19  and  N_20
REMARK   10  A    between atoms: S_21  and  C_22
REMARK   11  A    between atoms: C_22  and  C_23
REMARK   12  A    between atoms: N_25  and  C_26
REMARK   13  A    between atoms: C_31  and  S_32
REMARK   14  A    between atoms: S_32  and  C_33
REMARK                            x       y       z     vdW  Elec       q    Type
REMARK                         _______ _______ _______ _____ _____    ______ ____
ROOT
ATOM      1  N   UNL     1      -0.012   1.383   0.077  0.00  0.00    -0.204 N 
ATOM      2  C   UNL     1       0.006  -0.004   0.059  0.00  0.00    +0.254 A 
ATOM      3  N   UNL     1      -1.045  -0.789   0.068  0.00  0.00    -0.109 NA
ATOM      4  N   UNL     1      -0.594  -2.115   0.039  0.00  0.00    -0.119 NA
ATOM      5  C   UNL     1       0.717  -2.098   0.023  0.00  0.00    +0.210 A 
ATOM      6  N   UNL     1       1.122  -0.793   0.035  0.00  0.00    -0.211 N 
ATOM      7  H   UNL     1       0.933   1.945   0.076  0.00  0.00    +0.177 HD
ENDROOT
BRANCH   6   8
ATOM      8  N   UNL     1       2.416  -0.354   0.023  0.00  0.00    -0.294 N 
ATOM      9  H   UNL     1       3.243  -1.079   0.003  0.00  0.00    +0.163 HD
ATOM     10  H   UNL     1       2.630   0.725   0.034  0.00  0.00    +0.163 HD
ENDBRANCH   6   8
BRANCH   1  12
ATOM     11  C   UNL     1      -1.252   3.366   0.112  0.00  0.00    +0.138 C 
ATOM     12  N   UNL     1      -1.235   2.067   0.095  0.00  0.00    -0.188 NA
BRANCH  11  16
ATOM     13  C   UNL     1      -4.956   5.440   0.166  0.00  0.00    +0.030 A 
ATOM     14  C   UNL     1      -3.762   6.153   0.167  0.00  0.00    +0.024 A 
ATOM     15  C   UNL     1      -2.558   5.483   0.149  0.00  0.00    +0.011 A 
ATOM     16  C   UNL     1      -2.538   4.086   0.131  0.00  0.00    -0.005 A 
ATOM     17  C   UNL     1      -3.740   3.373   0.126  0.00  0.00    +0.011 A 
ATOM     18  C   UNL     1      -4.940   4.049   0.148  0.00  0.00    +0.024 A 
BRANCH  13  19
ATOM     19  N   UNL     1      -6.174   6.122   0.183  0.00  0.00    -0.330 N 
BRANCH  19  21
ATOM     20  C   UNL     1      -7.861   5.093   1.625  0.00  0.00    +0.024 C 
ATOM     21  C   UNL     1      -7.433   5.372   0.183  0.00  0.00    +0.102 C 
ENDBRANCH  19  21
BRANCH  19  22
ATOM     22  C   UNL     1      -6.193   7.586   0.202  0.00  0.00    +0.102 C 
ATOM     23  C   UNL     1      -6.210   8.115  -1.233  0.00  0.00    +0.024 C 
ENDBRANCH  19  22
ENDBRANCH  13  19
ENDBRANCH  11  16
ENDBRANCH   1  12
BRANCH   5  24
ATOM     24  S   UNL     1       1.771  -3.509  -0.008  0.00  0.00    -0.075 S 
BRANCH  24  25
ATOM     25  C   UNL     1       0.624  -4.914  -0.012  0.00  0.00    +0.173 C 
BRANCH  25  26
ATOM     26  C   UNL     1       1.406  -6.202  -0.038  0.00  0.00    +0.228 C 
ATOM     27  O   UNL     1       2.619  -6.175  -0.053  0.00  0.00    -0.275 OA
ATOM     28  N   UNL     1       0.759  -7.384  -0.045  0.00  0.00    -0.284 N 
ATOM     29  H   UNL     1      -0.337  -7.411   0.043  0.00  0.00    +0.155 HD
BRANCH  28  30
ATOM     30  C   UNL     1       1.482  -8.578  -0.164  0.00  0.00    +0.047 A 
ATOM     31  C   UNL     1       2.737  -8.692   0.414  0.00  0.00    +0.024 A 
ATOM     32  C   UNL     1       3.447  -9.873   0.299  0.00  0.00    +0.002 A 
ATOM     33  C   UNL     1       2.913 -10.940  -0.399  0.00  0.00    +0.001 A 
ATOM     34  C   UNL     1       1.665 -10.835  -0.983  0.00  0.00    +0.016 A 
ATOM     35  C   UNL     1       0.943  -9.655  -0.869  0.00  0.00    +0.029 A 
BRANCH  35  36
ATOM     36  S   UNL     1      -0.648  -9.517  -1.613  0.00  0.00    -0.127 S 
ATOM     37  C   UNL     1      -0.908 -11.133  -2.395  0.00  0.00    +0.090 C 
ENDBRANCH  35  36
ENDBRANCH  28  30
ENDBRANCH  25  26
ENDBRANCH  24  25
ENDBRANCH   5  24
TORSDOF 11
