REMARK  Name = ZINC13977417
REMARK  7 active torsions:
REMARK  status: ('A' for Active; 'I' for Inactive)
REMARK    1  A    between atoms: C_3  and  S_17
REMARK    2  A    between atoms: C_6  and  N_7
REMARK    3  A    between atoms: C_8  and  C_9
REMARK    4  A    between atoms: C_12  and  O_16
REMARK    5  A    between atoms: C_14  and  O_15
REMARK    6  A    between atoms: S_17  and  N_20
REMARK    7  A    between atoms: N_20  and  C_21
REMARK                            x       y       z     vdW  Elec       q    Type
REMARK                         _______ _______ _______ _____ _____    ______ ____
ROOT
ATOM      1  C   UNL     1      -0.017   1.392   0.010  0.00  0.00    +0.029 A 
ATOM      2  C   UNL     1       1.170   2.095   0.002  0.00  0.00    +0.030 A 
ATOM      3  C   UNL     1       2.378   1.419  -0.013  0.00  0.00    +0.105 A 
ATOM      4  C   UNL     1       2.404   0.036  -0.021  0.00  0.00    +0.030 A 
ATOM      5  C   UNL     1       1.224  -0.679  -0.014  0.00  0.00    +0.029 A 
ATOM      6  C   UNL     1       0.002  -0.004   0.002  0.00  0.00    +0.064 A 
ENDROOT
BRANCH   3   7
ATOM      7  S   UNL     1       3.889   2.325  -0.023  0.00  0.00    +0.059 S 
ATOM      8  O   UNL     1       4.872   1.469  -0.587  0.00  0.00    -0.153 OA
ATOM      9  O   UNL     1       3.592   3.605  -0.564  0.00  0.00    -0.153 OA
BRANCH   7  10
ATOM     10  N   UNL     1       4.324   2.568   1.557  0.00  0.00    -0.187 NA
ATOM     11  H   UNL     1       4.350   3.468   1.920  0.00  0.00    +0.148 HD
BRANCH  10  12
ATOM     12  C   UNL     1       4.670   1.426   2.405  0.00  0.00    +0.077 C 
ATOM     13  C   UNL     1       3.435   0.985   3.195  0.00  0.00    +0.020 C 
ATOM     14  C   UNL     1       3.796  -0.209   4.082  0.00  0.00    +0.002 C 
ATOM     15  C   UNL     1       4.906   0.196   5.054  0.00  0.00    +0.000 C 
ATOM     16  C   UNL     1       6.141   0.636   4.264  0.00  0.00    +0.002 C 
ATOM     17  C   UNL     1       5.780   1.830   3.378  0.00  0.00    +0.020 C 
ENDBRANCH  10  12
ENDBRANCH   7  10
ENDBRANCH   3   7
BRANCH   6  18
ATOM     18  N   UNL     1      -1.172  -0.708   0.010  0.00  0.00    -0.255 NA
ATOM     19  C   UNL     1      -1.329  -1.724  -0.793  0.00  0.00    +0.123 C 
BRANCH  19  20
ATOM     20  C   UNL     1      -2.588  -2.479  -0.785  0.00  0.00    +0.035 A 
ATOM     21  C   UNL     1      -2.758  -3.573  -1.641  0.00  0.00    +0.016 A 
ATOM     22  C   UNL     1      -3.939  -4.278  -1.629  0.00  0.00    +0.046 A 
ATOM     23  C   UNL     1      -4.968  -3.907  -0.768  0.00  0.00    +0.120 A 
ATOM     24  C   UNL     1      -4.811  -2.824   0.084  0.00  0.00    +0.091 A 
ATOM     25  C   UNL     1      -3.626  -2.109   0.087  0.00  0.00    +0.129 A 
BRANCH  25  26
ATOM     26  O   UNL     1      -3.469  -1.053   0.924  0.00  0.00    -0.506 OA
ATOM     27  H   UNL     1      -3.751  -0.208   0.548  0.00  0.00    +0.292 HD
ENDBRANCH  25  26
BRANCH  23  28
ATOM     28  O   UNL     1      -6.131  -4.607  -0.764  0.00  0.00    -0.507 OA
ATOM     29  H   UNL     1      -6.142  -5.347  -0.141  0.00  0.00    +0.292 HD
ENDBRANCH  23  28
ENDBRANCH  19  20
ENDBRANCH   6  18
TORSDOF 7
