REMARK  Name = ZINC32125443
REMARK  9 active torsions:
REMARK  status: ('A' for Active; 'I' for Inactive)
REMARK    1  A    between atoms: C_1  and  C_2
REMARK    2  A    between atoms: C_2  and  C_3
REMARK    3  A    between atoms: C_3  and  O_4
REMARK    4  A    between atoms: O_4  and  C_5
REMARK    5  A    between atoms: C_9  and  C_11
REMARK    6  A    between atoms: N_13  and  C_14
REMARK    7  A    between atoms: C_14  and  N_16
REMARK    8  A    between atoms: N_16  and  C_17
REMARK    9  A    between atoms: C_18  and  C_27
REMARK                            x       y       z     vdW  Elec       q    Type
REMARK                         _______ _______ _______ _____ _____    ______ ____
ROOT
ATOM      1  N   UNL     1       2.241   8.046   0.026  0.00  0.00    -0.291 N 
ATOM      2  H   UNL     1       3.200   7.506   0.014  0.00  0.00    +0.154 HD
ENDROOT
BRANCH   1   3
ATOM      3  C   UNL     1       2.227   9.432   0.034  0.00  0.00    +0.084 A 
ATOM      4  C   UNL     1       3.304  10.305   0.034  0.00  0.00    +0.068 A 
ATOM      5  C   UNL     1       3.018  11.733   0.035  0.00  0.00    -0.023 A 
ATOM      6  C   UNL     1       1.705  12.051   0.054  0.00  0.00    -0.004 A 
ATOM      7  S   UNL     1       0.859  10.494   0.053  0.00  0.00    -0.077 S 
ATOM      8  C   UNL     1       1.095  13.417   0.086  0.00  0.00    +0.043 C 
ATOM      9  C   UNL     1       1.749  14.290  -0.994  0.00  0.00    +0.005 C 
ATOM     10  C   UNL     1       2.966  14.979  -0.385  0.00  0.00    +0.001 C 
ATOM     11  C   UNL     1       3.613  14.075   0.662  0.00  0.00    +0.005 C 
ATOM     12  C   UNL     1       4.116  12.789   0.017  0.00  0.00    +0.037 C 
BRANCH   4  13
ATOM     13  C   UNL     1       4.683   9.808   0.030  0.00  0.00    +0.244 C 
ATOM     14  O   UNL     1       5.253   9.605  -1.026  0.00  0.00    -0.270 OA
ATOM     15  N   UNL     1       5.319   9.575   1.195  0.00  0.00    -0.325 N 
ATOM     16  H   UNL     1       6.354   9.202   1.192  0.00  0.00    +0.145 HD
ATOM     17  H   UNL     1       4.803   9.758   2.149  0.00  0.00    +0.145 HD
ENDBRANCH   4  13
ENDBRANCH   1   3
BRANCH   1  18
ATOM     18  C   UNL     1       1.081   7.360   0.033  0.00  0.00    +0.141 C 
ATOM     19  S   UNL     1      -0.410   8.200   0.051  0.00  0.00    -0.018 S 
BRANCH  18  22
ATOM     20  C   UNL     1      -0.064   5.326   0.032  0.00  0.00    +0.250 C 
ATOM     21  O   UNL     1      -1.123   5.923   0.045  0.00  0.00    -0.270 OA
ATOM     22  N   UNL     1       1.096   6.012   0.025  0.00  0.00    -0.264 N 
ATOM     23  H   UNL     1       2.054   5.472   0.013  0.00  0.00    +0.157 HD
BRANCH  20  28
ATOM     24  C   UNL     1      -1.226   1.751   0.017  0.00  0.00    +0.121 A 
ATOM     25  C   UNL     1      -0.013   1.076   0.008  0.00  0.00    +0.046 A 
ATOM     26  C   UNL     1       1.177   1.781   0.000  0.00  0.00    +0.004 A 
ATOM     27  C   UNL     1       1.166   3.161   0.008  0.00  0.00    +0.013 A 
ATOM     28  C   UNL     1      -0.049   3.848   0.023  0.00  0.00    +0.041 A 
ATOM     29  C   UNL     1      -1.248   3.135   0.031  0.00  0.00    +0.058 A 
BRANCH  24  30
ATOM     30  O   UNL     1      -2.392   1.053   0.019  0.00  0.00    -0.492 OA
BRANCH  30  31
ATOM     31  C   UNL     1      -2.294  -0.373   0.010  0.00  0.00    +0.229 C 
BRANCH  31  33
ATOM     32  C   UNL     1      -3.594  -2.507   0.004  0.00  0.00    +0.007 C 
ATOM     33  C   UNL     1      -3.699  -0.980   0.013  0.00  0.00    +0.038 C 
ENDBRANCH  31  33
ENDBRANCH  30  31
ENDBRANCH  24  30
ENDBRANCH  20  28
ENDBRANCH  18  22
ENDBRANCH   1  18
TORSDOF 8
