REMARK  Name = ZINC00712039
REMARK  9 active torsions:
REMARK  status: ('A' for Active; 'I' for Inactive)
REMARK    1  A    between atoms: C_1  and  C_2
REMARK    2  A    between atoms: C_3  and  C_23
REMARK    3  A    between atoms: C_4  and  N_22
REMARK    4  A    between atoms: C_6  and  C_7
REMARK    5  A    between atoms: N_9  and  N_10
REMARK    6  A    between atoms: C_11  and  C_12
REMARK    7  A    between atoms: C_14  and  O_20
REMARK    8  A    between atoms: C_15  and  O_19
REMARK    9  A    between atoms: O_20  and  C_21
REMARK                            x       y       z     vdW  Elec       q    Type
REMARK                         _______ _______ _______ _____ _____    ______ ____
ROOT
ATOM      1  C   UNL     1       0.029  -0.252   2.543  0.00  0.00    +0.270 C 
ATOM      2  O   UNL     1       0.015   0.944   2.771  0.00  0.00    -0.268 OA
ATOM      3  N   UNL     1       0.051  -1.133   3.563  0.00  0.00    -0.203 N 
ATOM      4  H   UNL     1       0.062  -2.086   3.381  0.00  0.00    +0.178 HD
ENDROOT
BRANCH   1  10
ATOM      5  C   UNL     1      -0.018   1.503   0.010  0.00  0.00    +0.046 C 
ATOM      6  C   UNL     1       0.002  -0.004   0.002  0.00  0.00    -0.012 A 
ATOM      7  C   UNL     1       0.007  -0.730  -1.180  0.00  0.00    +0.083 A 
ATOM      8  C   UNL     1       0.026  -2.123  -1.085  0.00  0.00    +0.081 A 
ATOM      9  S   UNL     1       0.038  -2.413   0.569  0.00  0.00    -0.068 S 
ATOM     10  C   UNL     1       0.023  -0.733   1.162  0.00  0.00    +0.081 A 
BRANCH   8  11
ATOM     11  N   UNL     1       0.035  -3.044  -2.109  0.00  0.00    -0.352 N 
ATOM     12  H   UNL     1       0.026  -2.744  -3.031  0.00  0.00    +0.143 HD
ATOM     13  H   UNL     1       0.049  -3.993  -1.907  0.00  0.00    +0.143 HD
ENDBRANCH   8  11
BRANCH   7  14
ATOM     14  C   UNL     1      -0.009  -0.073  -2.453  0.00  0.00    +0.102 C 
ATOM     15  N   UNL     1      -0.021   0.447  -3.463  0.00  0.00    -0.191 NA
ENDBRANCH   7  14
ENDBRANCH   1  10
BRANCH   3  16
ATOM     16  N   UNL     1       0.057  -0.672   4.886  0.00  0.00    -0.187 NA
ATOM     17  C   UNL     1       0.078  -1.520   5.869  0.00  0.00    +0.138 C 
BRANCH  17  18
ATOM     18  C   UNL     1       0.085  -1.035   7.261  0.00  0.00    -0.001 A 
ATOM     19  C   UNL     1       0.113  -1.947   8.320  0.00  0.00    +0.059 A 
ATOM     20  C   UNL     1       0.120  -1.487   9.623  0.00  0.00    +0.163 A 
ATOM     21  C   UNL     1       0.098  -0.118   9.880  0.00  0.00    +0.173 A 
ATOM     22  C   UNL     1       0.069   0.788   8.829  0.00  0.00    +0.063 A 
ATOM     23  C   UNL     1       0.069   0.336   7.525  0.00  0.00    +0.028 A 
ATOM     24 BR   UNL     1       0.038   2.645   9.184  0.00  0.00    -0.046 Br
BRANCH  21  25
ATOM     25  O   UNL     1       0.104   0.332  11.163  0.00  0.00    -0.503 OA
ATOM     26  H   UNL     1       0.989   0.478  11.524  0.00  0.00    +0.292 HD
ENDBRANCH  21  25
BRANCH  20  27
ATOM     27  O   UNL     1       0.147  -2.372  10.656  0.00  0.00    -0.491 OA
ATOM     28  C   UNL     1       0.168  -3.760  10.320  0.00  0.00    +0.277 C 
ENDBRANCH  20  27
ENDBRANCH  17  18
ENDBRANCH   3  16
TORSDOF 7
