REMARK  Name = ZINC61710505
REMARK  5 active torsions:
REMARK  status: ('A' for Active; 'I' for Inactive)
REMARK    1  A    between atoms: C_3  and  C_18
REMARK    2  A    between atoms: C_4  and  C_14
REMARK    3  A    between atoms: C_6  and  N_7
REMARK    4  A    between atoms: C_10  and  O_13
REMARK    5  A    between atoms: N_19  and  O_20
REMARK                            x       y       z     vdW  Elec       q    Type
REMARK                         _______ _______ _______ _____ _____    ______ ____
ROOT
ATOM      1  C   UNL     1       0.067   0.962   0.019  0.00  0.00    +0.024 A 
ATOM      2  C   UNL     1       1.182   1.765   0.126  0.00  0.00    +0.014 A 
ATOM      3  C   UNL     1       2.430   1.194   0.379  0.00  0.00    +0.029 A 
ATOM      4  C   UNL     1       2.545  -0.190   0.524  0.00  0.00    +0.067 A 
ATOM      5  C   UNL     1       1.427  -0.988   0.417  0.00  0.00    +0.036 A 
ATOM      6  C   UNL     1       0.184  -0.416   0.164  0.00  0.00    +0.030 A 
ENDROOT
BRANCH   6   7
ATOM      7  N   UNL     1      -0.945  -1.225   0.056  0.00  0.00    -0.327 N 
ATOM      8  C   UNL     1      -0.966  -2.693   0.193  0.00  0.00    +0.108 C 
ATOM      9  C   UNL     1      -2.419  -3.031   0.610  0.00  0.00    +0.052 C 
ATOM     10  C   UNL     1      -3.229  -1.998  -0.217  0.00  0.00    +0.133 C 
ATOM     11  C   UNL     1      -2.313  -0.756  -0.208  0.00  0.00    +0.136 C 
BRANCH  10  12
ATOM     12  O   UNL     1      -3.441  -2.471  -1.549  0.00  0.00    -0.390 OA
ATOM     13  H   UNL     1      -3.948  -3.293  -1.598  0.00  0.00    +0.210 HD
ENDBRANCH  10  12
ENDBRANCH   6   7
BRANCH   3  14
ATOM     14  C   UNL     1       3.628   2.053   0.493  0.00  0.00    +0.163 C 
ATOM     15  N   UNL     1       3.658   3.016   1.368  0.00  0.00    -0.072 NA
ATOM     16  N   UNL     1       4.719   1.832  -0.331  0.00  0.00    -0.340 N 
ATOM     17  H   UNL     1       4.670   1.165  -1.033  0.00  0.00    +0.144 HD
ATOM     18  H   UNL     1       5.533   2.345  -0.205  0.00  0.00    +0.144 HD
BRANCH  15  19
ATOM     19  O   UNL     1       2.594   3.168   2.290  0.00  0.00    -0.408 OA
ATOM     20  H   UNL     1       2.666   3.954   2.849  0.00  0.00    +0.328 HD
ENDBRANCH  15  19
ENDBRANCH   3  14
BRANCH   4  21
ATOM     21  C   UNL     1       3.891  -0.811   0.797  0.00  0.00    +0.418 C 
ATOM     22  F   UNL     1       3.735  -2.183   1.019  0.00  0.00    -0.166 F 
ATOM     23  F   UNL     1       4.730  -0.608  -0.304  0.00  0.00    -0.166 F 
ATOM     24  F   UNL     1       4.457  -0.216   1.930  0.00  0.00    -0.166 F 
ENDBRANCH   4  21
TORSDOF 5
