REMARK  Name = ZINC61948906
REMARK  5 active torsions:
REMARK  status: ('A' for Active; 'I' for Inactive)
REMARK    1  A    between atoms: C_3  and  N_11
REMARK    2  A    between atoms: C_4  and  C_8
REMARK    3  A    between atoms: C_6  and  N_7
REMARK    4  A    between atoms: N_14  and  C_17
REMARK    5  A    between atoms: C_17  and  C_18
REMARK                            x       y       z     vdW  Elec       q    Type
REMARK                         _______ _______ _______ _____ _____    ______ ____
ROOT
ATOM      1  C   UNL     1       0.035   1.324   0.189  0.00  0.00    +0.024 A 
ATOM      2  C   UNL     1       1.208   2.050   0.145  0.00  0.00    +0.025 A 
ATOM      3  C   UNL     1       2.432   1.396   0.097  0.00  0.00    +0.042 A 
ATOM      4  C   UNL     1       2.474  -0.006   0.093  0.00  0.00    +0.059 A 
ATOM      5  C   UNL     1       1.281  -0.734   0.137  0.00  0.00    +0.037 A 
ATOM      6  C   UNL     1       0.069  -0.067   0.185  0.00  0.00    +0.025 A 
ENDROOT
BRANCH   3   7
ATOM      7  N   UNL     1       3.613   2.130   0.052  0.00  0.00    -0.327 N 
ATOM      8  C   UNL     1       4.202   2.535  -1.233  0.00  0.00    +0.120 C 
ATOM      9  C   UNL     1       4.484   4.040  -1.186  0.00  0.00    +0.103 C 
ATOM     10  N   UNL     1       5.302   4.346  -0.004  0.00  0.00    -0.291 NA
ATOM     11  C   UNL     1       4.585   4.026   1.237  0.00  0.00    +0.103 C 
ATOM     12  C   UNL     1       4.303   2.526   1.290  0.00  0.00    +0.120 C 
BRANCH  10  13
ATOM     13  C   UNL     1       5.738   5.748  -0.015  0.00  0.00    +0.198 C 
BRANCH  13  14
ATOM     14  C   UNL     1       6.889   5.917  -1.008  0.00  0.00    +0.402 C 
ATOM     15  F   UNL     1       6.423   5.686  -2.306  0.00  0.00    -0.169 F 
ATOM     16  F   UNL     1       7.395   7.219  -0.919  0.00  0.00    -0.169 F 
ATOM     17  F   UNL     1       7.903   5.002  -0.707  0.00  0.00    -0.169 F 
ENDBRANCH  13  14
ENDBRANCH  10  13
ENDBRANCH   3   7
BRANCH   4  18
ATOM     18  C   UNL     1       3.769  -0.709   0.041  0.00  0.00    +0.243 C 
ATOM     19  O   UNL     1       4.804  -0.073   0.002  0.00  0.00    -0.270 OA
ATOM     20  N   UNL     1       3.805  -2.056   0.037  0.00  0.00    -0.325 N 
ATOM     21  H   UNL     1       2.978  -2.564   0.068  0.00  0.00    +0.145 HD
ATOM     22  H   UNL     1       4.657  -2.518   0.003  0.00  0.00    +0.145 HD
ENDBRANCH   4  18
BRANCH   6  23
ATOM     23  N   UNL     1      -1.126  -0.795   0.230  0.00  0.00    -0.358 N 
ATOM     24  H   UNL     1      -1.976  -0.329   0.264  0.00  0.00    +0.142 HD
ATOM     25  H   UNL     1      -1.104  -1.764   0.227  0.00  0.00    +0.142 HD
ENDBRANCH   6  23
TORSDOF 5
