REMARK  Name = ZINC00921350
REMARK  6 active torsions:
REMARK  status: ('A' for Active; 'I' for Inactive)
REMARK    1  A    between atoms: C_4  and  C_7
REMARK    2  A    between atoms: C_7  and  C_9
REMARK    3  A    between atoms: C_11  and  C_23
REMARK    4  A    between atoms: C_17  and  C_18
REMARK    5  A    between atoms: C_17  and  O_22
REMARK    6  A    between atoms: C_27  and  O_29
REMARK                            x       y       z     vdW  Elec       q    Type
REMARK                         _______ _______ _______ _____ _____    ______ ____
ROOT
ATOM      1  C   UNL     1       1.456   2.468  -0.169  0.00  0.00    +0.144 C 
ATOM      2  C   UNL     1       2.292   1.492   0.665  0.00  0.00    +0.120 C 
ATOM      3  N   UNL     1       2.123   0.139   0.133  0.00  0.00    -0.292 N 
ATOM      4  C   UNL     1       1.857  -0.072  -1.165  0.00  0.00    +0.302 C 
ATOM      5  O   UNL     1       1.737  -1.217  -1.557  0.00  0.00    -0.253 OA
ATOM      6  N   UNL     1       1.718   0.929  -2.047  0.00  0.00    -0.264 N 
ATOM      7  C   UNL     1       1.864   2.327  -1.640  0.00  0.00    +0.243 C 
ATOM      8  H   UNL     1       2.205  -0.621   0.731  0.00  0.00    +0.151 HD
ATOM      9  H   UNL     1       1.518   0.722  -2.973  0.00  0.00    +0.153 HD
ENDROOT
BRANCH   2  10
ATOM     10  C   UNL     1       1.830   1.531   2.099  0.00  0.00    -0.023 A 
ATOM     11  C   UNL     1       0.763   0.749   2.502  0.00  0.00    +0.006 A 
ATOM     12  C   UNL     1       0.337   0.783   3.817  0.00  0.00    +0.004 A 
ATOM     13  C   UNL     1       0.977   1.597   4.731  0.00  0.00    +0.045 A 
ATOM     14  C   UNL     1       2.047   2.382   4.329  0.00  0.00    +0.117 A 
ATOM     15  C   UNL     1       2.477   2.343   3.010  0.00  0.00    +0.051 A 
BRANCH  14  16
ATOM     16  O   UNL     1       2.678   3.185   5.226  0.00  0.00    -0.507 OA
ATOM     17  H   UNL     1       3.416   2.760   5.684  0.00  0.00    +0.292 HD
ENDBRANCH  14  16
ENDBRANCH   2  10
BRANCH   7  18
ATOM     18  C   UNL     1       0.963   3.209  -2.507  0.00  0.00    +0.436 C 
ATOM     19  F   UNL     1       0.997   4.523  -2.029  0.00  0.00    -0.166 F 
ATOM     20  F   UNL     1       1.419   3.182  -3.830  0.00  0.00    -0.166 F 
ATOM     21  F   UNL     1      -0.349   2.727  -2.456  0.00  0.00    -0.166 F 
ENDBRANCH   7  18
BRANCH   1  22
ATOM     22  C   UNL     1      -0.007   2.140  -0.017  0.00  0.00    +0.173 C 
ATOM     23  O   UNL     1      -0.436   1.080  -0.419  0.00  0.00    -0.292 OA
BRANCH  22  27
ATOM     24  C   UNL     1      -2.627   4.932   1.809  0.00  0.00    +0.000 A 
ATOM     25  C   UNL     1      -3.102   3.688   1.430  0.00  0.00    +0.001 A 
ATOM     26  C   UNL     1      -2.256   2.776   0.836  0.00  0.00    +0.011 A 
ATOM     27  C   UNL     1      -0.916   3.109   0.617  0.00  0.00    +0.018 A 
ATOM     28  C   UNL     1      -0.443   4.366   1.007  0.00  0.00    +0.011 A 
ATOM     29  C   UNL     1      -1.302   5.269   1.595  0.00  0.00    +0.001 A 
ENDBRANCH  22  27
ENDBRANCH   1  22
BRANCH   7  30
ATOM     30  O   UNL     1       3.226   2.731  -1.798  0.00  0.00    -0.364 OA
ATOM     31  H   UNL     1       3.551   2.668  -2.707  0.00  0.00    +0.212 HD
ENDBRANCH   7  30
TORSDOF 6
