REMARK  Name = ZINC67261855
REMARK  7 active torsions:
REMARK  status: ('A' for Active; 'I' for Inactive)
REMARK    1  A    between atoms: C_1  and  C_2
REMARK    2  A    between atoms: C_5  and  N_23
REMARK    3  A    between atoms: C_7  and  N_8
REMARK    4  A    between atoms: N_11  and  C_12
REMARK    5  A    between atoms: C_12  and  C_13
REMARK    6  A    between atoms: C_13  and  C_16
REMARK    7  A    between atoms: C_24  and  C_26
REMARK                            x       y       z     vdW  Elec       q    Type
REMARK                         _______ _______ _______ _____ _____    ______ ____
ROOT
ATOM      1  N   UNL     1       0.294  -0.107   2.361  0.00  0.00    -0.269 N 
ATOM      2  C   UNL     1       0.688  -1.122   3.155  0.00  0.00    +0.304 C 
ATOM      3  O   UNL     1       0.726  -2.256   2.717  0.00  0.00    -0.253 OA
ATOM      4  N   UNL     1       1.039  -0.881   4.433  0.00  0.00    -0.298 N 
ATOM      5  H   UNL     1       0.323   0.805   2.689  0.00  0.00    +0.156 HD
ATOM      6  H   UNL     1       1.009   0.024   4.782  0.00  0.00    +0.150 HD
ENDROOT
BRANCH   1  13
ATOM      7  C   UNL     1      -1.643   1.646   1.236  0.00  0.00    +0.045 C 
ATOM      8  C   UNL     1      -1.103   0.463   0.474  0.00  0.00    -0.029 A 
ATOM      9  C   UNL     1      -1.545   0.208  -0.810  0.00  0.00    +0.007 A 
ATOM     10  C   UNL     1      -1.053  -0.875  -1.511  0.00  0.00    +0.024 A 
ATOM     11  C   UNL     1      -0.112  -1.714  -0.926  0.00  0.00    +0.035 A 
ATOM     12  C   UNL     1       0.334  -1.461   0.363  0.00  0.00    +0.047 A 
ATOM     13  C   UNL     1      -0.158  -0.368   1.062  0.00  0.00    +0.039 A 
BRANCH  11  14
ATOM     14  N   UNL     1       0.385  -2.812  -1.637  0.00  0.00    -0.285 N 
ATOM     15  C   UNL     1       0.537  -2.736  -2.974  0.00  0.00    +0.220 C 
ATOM     16  O   UNL     1       0.330  -1.689  -3.550  0.00  0.00    -0.275 OA
ATOM     17  H   UNL     1       0.621  -3.627  -1.167  0.00  0.00    +0.155 HD
BRANCH  15  18
ATOM     18  C   UNL     1       0.964  -3.954  -3.754  0.00  0.00    +0.075 C 
ATOM     19  C   UNL     1       2.358  -3.937  -4.382  0.00  0.00    +0.013 C 
ATOM     20  C   UNL     1       1.118  -3.804  -5.268  0.00  0.00    +0.013 C 
ENDBRANCH  15  18
ENDBRANCH  11  14
ENDBRANCH   1  13
BRANCH   4  21
ATOM     21  C   UNL     1       1.468  -1.984   5.296  0.00  0.00    +0.117 C 
BRANCH  21  22
ATOM     22  C   UNL     1       1.917  -1.429   6.649  0.00  0.00    +0.011 C 
ATOM     23  C   UNL     1       1.376  -2.111   7.907  0.00  0.00    +0.014 C 
ATOM     24  C   UNL     1       0.864  -0.726   7.508  0.00  0.00    +0.014 C 
BRANCH  22  25
ATOM     25  C   UNL     1       3.325  -0.895   6.697  0.00  0.00    -0.040 A 
ATOM     26  C   UNL     1       4.396  -1.753   6.533  0.00  0.00    +0.005 A 
ATOM     27  C   UNL     1       5.688  -1.264   6.577  0.00  0.00    +0.020 A 
ATOM     28  C   UNL     1       5.909   0.086   6.787  0.00  0.00    +0.041 A 
ATOM     29  C   UNL     1       4.837   0.945   6.951  0.00  0.00    +0.020 A 
ATOM     30  C   UNL     1       3.545   0.455   6.901  0.00  0.00    +0.005 A 
ATOM     31 CL   UNL     1       7.531   0.701   6.843  0.00  0.00    -0.084 Cl
ENDBRANCH  22  25
ENDBRANCH  21  22
ENDBRANCH   4  21
TORSDOF 6
