REMARK  Name = ZINC13656397
REMARK  9 active torsions:
REMARK  status: ('A' for Active; 'I' for Inactive)
REMARK    1  A    between atoms: C_1  and  C_2
REMARK    2  A    between atoms: C_7  and  C_8
REMARK    3  A    between atoms: N_11  and  C_12
REMARK    4  A    between atoms: C_12  and  C_14
REMARK    5  A    between atoms: N_18  and  C_19
REMARK    6  A    between atoms: N_20  and  C_21
REMARK    7  A    between atoms: C_21  and  C_22
REMARK    8  A    between atoms: C_22  and  S_23
REMARK    9  A    between atoms: S_23  and  C_24
REMARK                            x       y       z     vdW  Elec       q    Type
REMARK                         _______ _______ _______ _____ _____    ______ ____
ROOT
ATOM      1  C   UNL     1       0.364   1.440   0.046  0.00  0.00    +0.044 C 
ATOM      2  C   UNL     1       0.273  -0.065   0.019  0.00  0.00    -0.046 A 
ATOM      3  C   UNL     1       0.269  -0.718  -1.190  0.00  0.00    +0.030 A 
ATOM      4  C   UNL     1       0.184  -2.119  -1.253  0.00  0.00    +0.058 A 
ATOM      5  C   UNL     1       0.105  -2.797  -0.027  0.00  0.00    +0.039 A 
ATOM      6  C   UNL     1       0.110  -2.143   1.182  0.00  0.00    +0.020 A 
ATOM      7  C   UNL     1       0.200  -0.762   1.212  0.00  0.00    -0.046 A 
ATOM      8  C   UNL     1       0.211  -0.027   2.528  0.00  0.00    +0.044 C 
ATOM      9  S   UNL     1       0.015  -4.505  -0.506  0.00  0.00    -0.052 S 
ATOM     10  C   UNL     1       0.083  -4.268  -2.275  0.00  0.00    +0.167 A 
ATOM     11  N   UNL     1       0.055  -5.182  -3.238  0.00  0.00    -0.151 NA
ATOM     12  N   UNL     1       0.169  -2.913  -2.386  0.00  0.00    -0.320 N 
ENDROOT
BRANCH  11  13
ATOM     13  C   UNL     1      -0.056  -4.803  -4.517  0.00  0.00    +0.287 C 
ATOM     14  O   UNL     1       0.939  -4.727  -5.219  0.00  0.00    -0.266 OA
BRANCH  13  15
ATOM     15  C   UNL     1      -1.381  -4.477  -5.078  0.00  0.00    +0.125 A 
ATOM     16  C   UNL     1      -1.648  -4.080  -6.371  0.00  0.00    +0.054 A 
ATOM     17  C   UNL     1      -3.022  -3.876  -6.475  0.00  0.00    +0.135 A 
ATOM     18  N   UNL     1      -3.575  -4.130  -5.316  0.00  0.00    -0.179 NA
ATOM     19  N   UNL     1      -2.574  -4.516  -4.415  0.00  0.00    -0.262 N 
ATOM     20  C   UNL     1      -2.772  -4.892  -3.013  0.00  0.00    +0.173 C 
ENDBRANCH  13  15
ENDBRANCH  11  13
BRANCH  12  21
ATOM     21  C   UNL     1       0.247  -2.293  -3.711  0.00  0.00    +0.135 C 
BRANCH  21  22
ATOM     22  C   UNL     1       1.702  -2.278  -4.182  0.00  0.00    +0.090 C 
BRANCH  22  23
ATOM     23  S   UNL     1       1.799  -1.510  -5.823  0.00  0.00    -0.162 S 
ATOM     24  C   UNL     1       3.565  -1.569  -6.232  0.00  0.00    +0.084 C 
ENDBRANCH  22  23
ENDBRANCH  21  22
ENDBRANCH  12  21
TORSDOF 5
