REMARK  Name = ZINC15999301
REMARK  2 active torsions:
REMARK  status: ('A' for Active; 'I' for Inactive)
REMARK    1  A    between atoms: C_1  and  C_2
REMARK    2  A    between atoms: N_23  and  C_26
REMARK                            x       y       z     vdW  Elec       q    Type
REMARK                         _______ _______ _______ _____ _____    ______ ____
ROOT
ATOM      1  C   UNL     1       5.176   5.049  -2.715  0.00  0.00    +0.047 C 
ATOM      2  C   UNL     1       4.103   3.998  -2.843  0.00  0.00    -0.011 A 
ATOM      3  C   UNL     1       4.070   3.178  -3.954  0.00  0.00    +0.046 A 
ATOM      4  C   UNL     1       3.089   2.211  -4.080  0.00  0.00    +0.020 A 
ATOM      5  C   UNL     1       2.134   2.065  -3.088  0.00  0.00    +0.006 A 
ATOM      6  C   UNL     1       2.164   2.882  -1.981  0.00  0.00    -0.027 A 
ATOM      7  C   UNL     1       3.146   3.856  -1.841  0.00  0.00    +0.040 A 
ATOM      8  N   UNL     1       2.969   4.549  -0.643  0.00  0.00    -0.286 N 
ATOM      9  C   UNL     1       1.911   4.096   0.053  0.00  0.00    +0.212 C 
ATOM     10  O   UNL     1       1.527   4.508   1.127  0.00  0.00    -0.277 OA
ATOM     11  C   UNL     1       1.293   2.981  -0.750  0.00  0.00    +0.053 C 
ATOM     12  C   UNL     1      -0.132   3.160  -1.051  0.00  0.00    +0.089 C 
ATOM     13  C   UNL     1      -0.640   1.680  -1.254  0.00  0.00    +0.074 C 
ATOM     14  C   UNL     1      -0.013   1.086   0.008  0.00  0.00    -0.054 C 
ATOM     15  C   UNL     1       1.718   1.906   1.411  0.00  0.00    -0.076 C 
ATOM     16  C   UNL     1       0.405   2.221   2.150  0.00  0.00    -0.020 C 
ATOM     17  C   UNL     1      -0.708   1.667   1.253  0.00  0.00    -0.016 C 
ATOM     18  C   UNL     1      -2.101   2.003  -1.302  0.00  0.00    +0.228 C 
ATOM     19  O   UNL     1      -3.013   1.318  -0.893  0.00  0.00    -0.275 OA
ATOM     20  N   UNL     1      -2.197   3.228  -1.900  0.00  0.00    -0.210 N 
ATOM     21  C   UNL     1      -0.997   3.881  -1.954  0.00  0.00    +0.229 C 
ATOM     22  O   UNL     1      -0.723   4.858  -2.617  0.00  0.00    -0.275 OA
ATOM     23 CL   UNL     1       5.267   3.362  -5.198  0.00  0.00    -0.083 Cl
ATOM     24  H   UNL     1       3.543   5.274  -0.347  0.00  0.00    +0.155 HD
ATOM     25  N   UNL     1       1.329   1.680   0.007  0.00  0.00    +0.395 N 
ATOM     26  H   UNL     1       1.998   1.042  -0.441  0.00  0.00    -0.079 HD
ENDROOT
BRANCH  20  27
ATOM     27  C   UNL     1      -3.392   3.747  -2.417  0.00  0.00    +0.044 A 
ATOM     28  C   UNL     1      -3.396   5.016  -3.009  0.00  0.00    +0.024 A 
ATOM     29  C   UNL     1      -4.538   5.544  -3.523  0.00  0.00    +0.010 A 
ATOM     30  C   UNL     1      -5.738   4.814  -3.452  0.00  0.00    -0.018 A 
ATOM     31  C   UNL     1      -6.937   5.333  -3.967  0.00  0.00    +0.008 A 
ATOM     32  C   UNL     1      -8.081   4.599  -3.882  0.00  0.00    +0.001 A 
ATOM     33  C   UNL     1      -8.082   3.338  -3.288  0.00  0.00    +0.001 A 
ATOM     34  C   UNL     1      -6.939   2.803  -2.777  0.00  0.00    +0.008 A 
ATOM     35  C   UNL     1      -5.739   3.531  -2.848  0.00  0.00    -0.016 A 
ATOM     36  C   UNL     1      -4.541   3.011  -2.331  0.00  0.00    +0.032 A 
ENDBRANCH  20  27
TORSDOF 1
