REMARK  Name = ZINC35178576
REMARK  19 active torsions:
REMARK  status: ('A' for Active; 'I' for Inactive)
REMARK    1  A    between atoms: C_1  and  C_2
REMARK    2  A    between atoms: C_2  and  O_3
REMARK    3  A    between atoms: O_3  and  C_4
REMARK    4  A    between atoms: C_4  and  C_6
REMARK    5  A    between atoms: C_6  and  C_7
REMARK    6  A    between atoms: C_7  and  C_8
REMARK    7  A    between atoms: C_8  and  O_10
REMARK    8  A    between atoms: O_10  and  C_11
REMARK    9  A    between atoms: C_16  and  C_17
REMARK   10  A    between atoms: C_18  and  N_27
REMARK   11  A    between atoms: C_22  and  C_26
REMARK   12  A    between atoms: N_27  and  C_28
REMARK   13  A    between atoms: C_28  and  C_29
REMARK   14  A    between atoms: C_28  and  C_30
REMARK   15  A    between atoms: C_28  and  C_31
REMARK   16  A    between atoms: C_31  and  C_32
REMARK   17  A    between atoms: C_32  and  C_33
REMARK   18  A    between atoms: C_32  and  C_34
REMARK   19  A    between atoms: C_32  and  C_35
REMARK                            x       y       z     vdW  Elec       q    Type
REMARK                         _______ _______ _______ _____ _____    ______ ____
ROOT
ATOM      1  C   UNL     1       4.062  -9.294  -0.741  0.00  0.00    +0.090 A 
ATOM      2  C   UNL     1       5.148  -8.827  -0.030  0.00  0.00    +0.129 A 
ATOM      3  N   UNL     1       6.265  -9.322  -0.644  0.00  0.00    -0.289 N 
ATOM      4  C   UNL     1       7.600  -9.188  -0.376  0.00  0.00    +0.094 A 
ATOM      5  C   UNL     1       8.521  -9.792  -1.153  0.00  0.00    +0.021 A 
ATOM      6  C   UNL     1       8.121 -10.571  -2.254  0.00  0.00    -0.046 A 
ATOM      7  C   UNL     1       6.798 -10.715  -2.534  0.00  0.00    +0.048 A 
ATOM      8  C   UNL     1       5.843 -10.078  -1.714  0.00  0.00    +0.117 A 
ATOM      9  N   UNL     1       4.521 -10.053  -1.752  0.00  0.00    -0.338 N 
ATOM     10  C   UNL     1       9.155 -11.243  -3.120  0.00  0.00    +0.044 C 
ATOM     11  H   UNL     1       3.969 -10.509  -2.408  0.00  0.00    +0.167 HD
ENDROOT
BRANCH   1  17
ATOM     12  C   UNL     1       2.142  -7.709  -0.544  0.00  0.00    +0.141 A 
ATOM     13  C   UNL     1       0.809  -7.457  -0.265  0.00  0.00    +0.047 A 
ATOM     14  C   UNL     1      -0.026  -8.490   0.120  0.00  0.00    +0.004 A 
ATOM     15  C   UNL     1       0.463  -9.780   0.229  0.00  0.00    +0.001 A 
ATOM     16  C   UNL     1       1.789 -10.046  -0.046  0.00  0.00    +0.014 A 
ATOM     17  C   UNL     1       2.639  -9.013  -0.440  0.00  0.00    +0.044 A 
BRANCH  12  18
ATOM     18  O   UNL     1       2.963  -6.695  -0.922  0.00  0.00    -0.425 OA
BRANCH  18  19
ATOM     19  C   UNL     1       3.130  -6.475  -2.236  0.00  0.00    +0.313 C 
ATOM     20  O   UNL     1       2.631  -7.225  -3.042  0.00  0.00    -0.250 OA
BRANCH  19  21
ATOM     21  C   UNL     1       3.938  -5.293  -2.707  0.00  0.00    +0.132 C 
BRANCH  21  22
ATOM     22  C   UNL     1       3.970  -5.274  -4.236  0.00  0.00    +0.132 C 
BRANCH  22  23
ATOM     23  C   UNL     1       4.779  -4.092  -4.706  0.00  0.00    +0.308 C 
ATOM     24  O   UNL     1       5.277  -3.342  -3.901  0.00  0.00    -0.251 OA
BRANCH  23  25
ATOM     25  O   UNL     1       4.945  -3.873  -6.020  0.00  0.00    -0.465 OA
BRANCH  25  27
ATOM     26  C   UNL     1       5.800  -2.648  -7.920  0.00  0.00    +0.048 C 
ATOM     27  C   UNL     1       5.723  -2.734  -6.394  0.00  0.00    +0.229 C 
ENDBRANCH  25  27
ENDBRANCH  23  25
ENDBRANCH  22  23
ENDBRANCH  21  22
ENDBRANCH  19  21
ENDBRANCH  18  19
ENDBRANCH  12  18
ENDBRANCH   1  17
BRANCH   2  28
ATOM     28  N   UNL     1       5.113  -8.008   1.099  0.00  0.00    -0.323 N 
ATOM     29  H   UNL     1       4.271  -7.633   1.401  0.00  0.00    +0.148 HD
BRANCH  28  30
ATOM     30  C   UNL     1       6.349  -7.712   1.828  0.00  0.00    +0.028 C 
ATOM     31  C   UNL     1       7.053  -9.022   2.189  0.00  0.00    +0.031 C 
ATOM     32  C   UNL     1       7.270  -6.864   0.949  0.00  0.00    +0.031 C 
BRANCH  30  33
ATOM     33  C   UNL     1       6.015  -6.943   3.108  0.00  0.00    +0.031 C 
BRANCH  33  34
ATOM     34  C   UNL     1       4.862  -5.975   2.834  0.00  0.00    -0.036 C 
ATOM     35  C   UNL     1       3.540  -6.746   2.826  0.00  0.00    +0.010 C 
ATOM     36  C   UNL     1       4.823  -4.907   3.930  0.00  0.00    +0.010 C 
ATOM     37  C   UNL     1       5.071  -5.304   1.475  0.00  0.00    +0.010 C 
ENDBRANCH  33  34
ENDBRANCH  30  33
ENDBRANCH  28  30
ENDBRANCH   2  28
TORSDOF 12
