REMARK  Name = ZINC22825400
REMARK  6 active torsions:
REMARK  status: ('A' for Active; 'I' for Inactive)
REMARK    1  A    between atoms: C_1  and  C_2
REMARK    2  A    between atoms: C_9  and  N_14
REMARK    3  A    between atoms: C_10  and  C_11
REMARK    4  A    between atoms: N_14  and  C_15
REMARK    5  A    between atoms: C_15  and  N_17
REMARK    6  A    between atoms: C_18  and  C_20
REMARK                            x       y       z     vdW  Elec       q    Type
REMARK                         _______ _______ _______ _____ _____    ______ ____
ROOT
ATOM      1  N   UNL     1       5.983   3.225   0.168  0.00  0.00    -0.291 N 
ATOM      2  H   UNL     1       5.982   2.127   0.245  0.00  0.00    +0.154 HD
ENDROOT
BRANCH   1  10
ATOM      3  C   UNL     1      12.527   7.509   0.189  0.00  0.00    +0.008 C 
ATOM      4  C   UNL     1      11.513   6.411   0.517  0.00  0.00    -0.009 C 
ATOM      5  C   UNL     1      11.894   5.123  -0.219  0.00  0.00    +0.008 C 
ATOM      6  C   UNL     1      11.040   3.961   0.290  0.00  0.00    +0.037 C 
ATOM      7  C   UNL     1       9.572   4.360   0.212  0.00  0.00    -0.023 A 
ATOM      8  C   UNL     1       9.208   5.657   0.109  0.00  0.00    -0.004 A 
ATOM      9  S   UNL     1       7.439   5.627   0.049  0.00  0.00    -0.077 S 
ATOM     10  C   UNL     1       7.183   3.917   0.161  0.00  0.00    +0.084 A 
ATOM     11  C   UNL     1       8.473   3.410   0.247  0.00  0.00    +0.068 A 
ATOM     12  C   UNL     1      10.114   6.848   0.058  0.00  0.00    +0.046 C 
BRANCH  11  13
ATOM     13  C   UNL     1       8.716   1.970   0.365  0.00  0.00    +0.244 C 
ATOM     14  O   UNL     1       8.857   1.292  -0.637  0.00  0.00    -0.270 OA
ATOM     15  N   UNL     1       8.784   1.395   1.582  0.00  0.00    -0.325 N 
ATOM     16  H   UNL     1       8.967   0.314   1.670  0.00  0.00    +0.145 HD
ATOM     17  H   UNL     1       8.657   2.006   2.487  0.00  0.00    +0.145 HD
ENDBRANCH  11  13
ENDBRANCH   1  10
BRANCH   1  18
ATOM     18  C   UNL     1       4.818   3.896   0.080  0.00  0.00    +0.141 C 
ATOM     19  S   UNL     1       4.820   5.603  -0.041  0.00  0.00    -0.018 S 
BRANCH  18  20
ATOM     20  N   UNL     1       3.650   3.222   0.087  0.00  0.00    -0.264 N 
ATOM     21  C   UNL     1       2.485   3.893  -0.001  0.00  0.00    +0.250 C 
ATOM     22  O   UNL     1       2.486   5.105  -0.086  0.00  0.00    -0.270 OA
ATOM     23  H   UNL     1       3.649   2.124   0.165  0.00  0.00    +0.157 HD
BRANCH  21  24
ATOM     24  C   UNL     1       1.208   3.156   0.007  0.00  0.00    +0.045 A 
ATOM     25  C   UNL     1       1.191   1.767  -0.016  0.00  0.00    +0.014 A 
ATOM     26  C   UNL     1      -0.013   1.076  -0.008  0.00  0.00    +0.001 A 
ATOM     27  C   UNL     1      -1.211   1.721   0.017  0.00  0.00    +0.009 A 
ATOM     28  C   UNL     1      -1.269   3.124   0.047  0.00  0.00    -0.003 A 
ATOM     29  C   UNL     1      -0.066   3.871   0.040  0.00  0.00    -0.005 A 
ATOM     30  C   UNL     1      -0.119   5.270   0.064  0.00  0.00    +0.009 A 
ATOM     31  C   UNL     1      -1.328   5.898   0.093  0.00  0.00    +0.002 A 
ATOM     32  C   UNL     1      -2.514   5.168   0.101  0.00  0.00    +0.016 A 
ATOM     33  C   UNL     1      -2.499   3.805   0.078  0.00  0.00    +0.026 A 
ATOM     34 BR   UNL     1      -4.123   2.836   0.088  0.00  0.00    -0.050 Br
ENDBRANCH  21  24
ENDBRANCH  18  20
ENDBRANCH   1  18
TORSDOF 5
