REMARK  Name = ZINC07656786
REMARK  9 active torsions:
REMARK  status: ('A' for Active; 'I' for Inactive)
REMARK    1  A    between atoms: C_1  and  C_2
REMARK    2  A    between atoms: C_2  and  C_4
REMARK    3  A    between atoms: C_2  and  O_16
REMARK    4  A    between atoms: N_9  and  C_10
REMARK    5  A    between atoms: O_16  and  C_17
REMARK    6  A    between atoms: C_17  and  C_19
REMARK    7  A    between atoms: C_22  and  N_27
REMARK    8  A    between atoms: C_24  and  O_25
REMARK    9  A    between atoms: O_25  and  C_26
REMARK                            x       y       z     vdW  Elec       q    Type
REMARK                         _______ _______ _______ _____ _____    ______ ____
ROOT
ATOM      1  C   UNL     1      -4.949   0.043  -1.282  0.00  0.00    +0.062 C 
ATOM      2  C   UNL     1      -4.816   0.821   0.029  0.00  0.00    +0.259 C 
ENDROOT
BRANCH   2   3
ATOM      3  C   UNL     1      -3.522   1.592   0.027  0.00  0.00    +0.261 C 
ATOM      4  O   UNL     1      -3.538   2.804   0.034  0.00  0.00    -0.271 OA
ATOM      5  N   UNL     1      -2.345   0.934   0.018  0.00  0.00    -0.237 N 
ATOM      6  C   UNL     1      -1.187   1.624   0.017  0.00  0.00    +0.306 C 
ATOM      7  O   UNL     1      -1.204   2.839   0.023  0.00  0.00    -0.252 OA
ATOM      8  N   UNL     1      -0.011   0.966   0.007  0.00  0.00    -0.296 N 
ATOM      9  H   UNL     1      -2.332  -0.036   0.013  0.00  0.00    +0.159 HD
ATOM     10  H   UNL     1       0.002  -0.004   0.002  0.00  0.00    +0.151 HD
BRANCH   8  11
ATOM     11  C   UNL     1       1.248   1.716  -0.001  0.00  0.00    +0.074 C 
ATOM     12  C   UNL     1       1.608   2.092  -1.439  0.00  0.00    +0.022 C 
ATOM     13  C   UNL     1       2.922   2.875  -1.448  0.00  0.00    +0.002 C 
ATOM     14  C   UNL     1       4.035   2.010  -0.853  0.00  0.00    +0.000 C 
ATOM     15  C   UNL     1       3.675   1.633   0.585  0.00  0.00    +0.002 C 
ATOM     16  C   UNL     1       2.361   0.850   0.594  0.00  0.00    +0.022 C 
ENDBRANCH   8  11
ENDBRANCH   2   3
BRANCH   2  17
ATOM     17  O   UNL     1      -5.929   1.744   0.159  0.00  0.00    -0.449 OA
BRANCH  17  18
ATOM     18  C   UNL     1      -7.035   1.287   0.780  0.00  0.00    +0.343 C 
ATOM     19  O   UNL     1      -7.067   0.147   1.202  0.00  0.00    -0.245 OA
BRANCH  18  20
ATOM     20  C   UNL     1      -8.201   2.166   0.948  0.00  0.00    +0.102 A 
ATOM     21  C   UNL     1      -8.167   3.479   0.463  0.00  0.00    +0.040 A 
ATOM     22  C   UNL     1      -9.250   4.295   0.618  0.00  0.00    +0.063 A 
ATOM     23  C   UNL     1     -10.398   3.828   1.259  0.00  0.00    +0.047 A 
ATOM     24  C   UNL     1     -10.447   2.528   1.746  0.00  0.00    +0.070 A 
ATOM     25  C   UNL     1      -9.356   1.691   1.589  0.00  0.00    +0.136 A 
ATOM     26 CL   UNL     1      -9.200   5.921   0.013  0.00  0.00    -0.082 Cl
BRANCH  23  27
ATOM     27  N   UNL     1     -11.496   4.667   1.412  0.00  0.00    -0.357 N 
ATOM     28  H   UNL     1     -11.464   5.575   1.073  0.00  0.00    +0.142 HD
ATOM     29  H   UNL     1     -12.295   4.344   1.857  0.00  0.00    +0.142 HD
ENDBRANCH  23  27
BRANCH  25  30
ATOM     30  O   UNL     1      -9.401   0.418   2.057  0.00  0.00    -0.494 OA
ATOM     31  C   UNL     1     -10.609   0.005   2.698  0.00  0.00    +0.277 C 
ENDBRANCH  25  30
ENDBRANCH  18  20
ENDBRANCH  17  18
ENDBRANCH   2  17
TORSDOF 7
