REMARK  Name = ZINC28464336
REMARK  8 active torsions:
REMARK  status: ('A' for Active; 'I' for Inactive)
REMARK    1  A    between atoms: C_1  and  C_2
REMARK    2  A    between atoms: C_3  and  C_17
REMARK    3  A    between atoms: C_4  and  C_10
REMARK    4  A    between atoms: N_19  and  C_20
REMARK    5  A    between atoms: C_22  and  O_28
REMARK    6  A    between atoms: C_25  and  O_26
REMARK    7  A    between atoms: O_26  and  C_27
REMARK    8  A    between atoms: O_28  and  C_29
REMARK                            x       y       z     vdW  Elec       q    Type
REMARK                         _______ _______ _______ _____ _____    ______ ____
ROOT
ATOM      1  C   UNL     1      -2.460   0.722   1.675  0.00  0.00    +0.061 C 
ATOM      2  C   UNL     1      -1.302   1.297   0.901  0.00  0.00    +0.017 C 
ATOM      3  C   UNL     1      -1.478   2.429   0.187  0.00  0.00    +0.056 C 
ATOM      4  C   UNL     1      -0.289   2.970  -0.581  0.00  0.00    +0.139 C 
ATOM      5  N   UNL     1       0.971   2.213  -0.481  0.00  0.00    -0.315 N 
ATOM      6  C   UNL     1       0.991   1.100   0.278  0.00  0.00    +0.135 C 
ATOM      7  S   UNL     1       2.448   0.210   0.404  0.00  0.00    -0.019 S 
ATOM      8  N   UNL     1      -0.091   0.667   0.937  0.00  0.00    -0.300 N 
ATOM      9  H   UNL     1       1.865   2.561  -1.018  0.00  0.00    +0.149 HD
ATOM     10  H   UNL     1       0.034  -0.250   1.531  0.00  0.00    +0.154 HD
ENDROOT
BRANCH   4  11
ATOM     11  C   UNL     1      -0.026   4.375  -0.102  0.00  0.00    -0.023 A 
ATOM     12  C   UNL     1       0.675   4.585   1.071  0.00  0.00    +0.007 A 
ATOM     13  C   UNL     1       0.920   5.873   1.508  0.00  0.00    +0.015 A 
ATOM     14  C   UNL     1       0.455   6.952   0.777  0.00  0.00    +0.018 A 
ATOM     15  C   UNL     1      -0.251   6.741  -0.393  0.00  0.00    +0.015 A 
ATOM     16  C   UNL     1      -0.491   5.452  -0.833  0.00  0.00    +0.007 A 
ATOM     17 BR   UNL     1       0.784   8.714   1.379  0.00  0.00    -0.050 Br
ENDBRANCH   4  11
BRANCH   3  18
ATOM     18  C   UNL     1      -2.732   3.087   0.153  0.00  0.00    +0.248 C 
ATOM     19  O   UNL     1      -3.409   3.054  -0.858  0.00  0.00    -0.270 OA
ATOM     20  N   UNL     1      -3.175   3.749   1.240  0.00  0.00    -0.279 N 
ATOM     21  H   UNL     1      -2.518   3.873   2.114  0.00  0.00    +0.155 HD
BRANCH  20  22
ATOM     22  C   UNL     1      -4.471   4.278   1.257  0.00  0.00    +0.079 A 
ATOM     23  C   UNL     1      -5.069   4.692   0.076  0.00  0.00    +0.072 A 
ATOM     24  C   UNL     1      -6.352   5.215   0.096  0.00  0.00    +0.122 A 
ATOM     25  C   UNL     1      -7.039   5.325   1.296  0.00  0.00    +0.049 A 
ATOM     26  C   UNL     1      -6.446   4.914   2.475  0.00  0.00    +0.051 A 
ATOM     27  C   UNL     1      -5.166   4.385   2.460  0.00  0.00    +0.141 A 
BRANCH  27  28
ATOM     28  O   UNL     1      -4.585   3.975   3.620  0.00  0.00    -0.493 OA
ATOM     29  C   UNL     1      -5.355   4.114   4.816  0.00  0.00    +0.277 C 
ENDBRANCH  27  28
BRANCH  24  30
ATOM     30  O   UNL     1      -6.939   5.621  -1.062  0.00  0.00    -0.495 OA
ATOM     31  C   UNL     1      -8.262   6.150  -0.968  0.00  0.00    +0.277 C 
ENDBRANCH  24  30
ENDBRANCH  20  22
ENDBRANCH   3  18
TORSDOF 5
