REMARK  Name = ZINC27263486
REMARK  11 active torsions:
REMARK  status: ('A' for Active; 'I' for Inactive)
REMARK    1  A    between atoms: C_1  and  C_2
REMARK    2  A    between atoms: C_7  and  N_12
REMARK    3  A    between atoms: C_9  and  C_11
REMARK    4  A    between atoms: N_12  and  C_13
REMARK    5  A    between atoms: C_13  and  N_15
REMARK    6  A    between atoms: N_15  and  N_16
REMARK    7  A    between atoms: C_17  and  C_19
REMARK    8  A    between atoms: C_19  and  N_20
REMARK    9  A    between atoms: C_21  and  C_23
REMARK   10  A    between atoms: C_28  and  O_29
REMARK   11  A    between atoms: O_29  and  C_30
REMARK                            x       y       z     vdW  Elec       q    Type
REMARK                         _______ _______ _______ _____ _____    ______ ____
ROOT
ATOM      1  N   UNL     1      -2.710   4.715   7.750  0.00  0.00    -0.234 N 
ATOM      2  C   UNL     1      -3.080   3.951   6.704  0.00  0.00    +0.246 C 
ATOM      3  O   UNL     1      -4.205   3.500   6.650  0.00  0.00    -0.273 OA
ATOM      4  H   UNL     1      -1.690   5.124   7.799  0.00  0.00    +0.173 HD
ENDROOT
BRANCH   1   5
ATOM      5  N   UNL     1      -3.623   4.988   8.777  0.00  0.00    -0.246 N 
ATOM      6  H   UNL     1      -4.644   4.579   8.728  0.00  0.00    +0.172 HD
BRANCH   5   7
ATOM      7  C   UNL     1      -3.253   5.752   9.823  0.00  0.00    +0.147 C 
ATOM      8  S   UNL     1      -4.369   6.085  11.078  0.00  0.00    -0.017 S 
BRANCH   7   9
ATOM      9  N   UNL     1      -2.003   6.253   9.883  0.00  0.00    -0.322 N 
ATOM     10  H   UNL     1      -1.286   6.038   9.077  0.00  0.00    +0.148 HD
BRANCH   9  16
ATOM     11  C   UNL     1       1.114   9.792  11.366  0.00  0.00    +0.008 C 
ATOM     12  C   UNL     1      -0.033   8.871  11.788  0.00  0.00    -0.009 C 
ATOM     13  C   UNL     1       0.431   7.972  12.936  0.00  0.00    +0.003 C 
ATOM     14  C   UNL     1      -0.716   7.051  13.357  0.00  0.00    +0.002 C 
ATOM     15  C   UNL     1      -1.137   6.184  12.169  0.00  0.00    +0.022 C 
ATOM     16  C   UNL     1      -1.600   7.083  11.021  0.00  0.00    +0.075 C 
ATOM     17  C   UNL     1      -0.453   8.004  10.599  0.00  0.00    +0.009 C 
ATOM     18  C   UNL     1      -0.917   8.903   9.451  0.00  0.00    +0.009 C 
ENDBRANCH   9  16
ENDBRANCH   7   9
ENDBRANCH   5   7
ENDBRANCH   1   5
BRANCH   2  19
ATOM     19  C   UNL     1      -2.098   3.658   5.599  0.00  0.00    +0.202 C 
BRANCH  19  20
ATOM     20  N   UNL     1      -2.738   2.814   4.587  0.00  0.00    -0.303 N 
ATOM     21  C   UNL     1      -2.045   2.423   3.500  0.00  0.00    +0.248 C 
ATOM     22  O   UNL     1      -0.888   2.769   3.359  0.00  0.00    -0.270 OA
ATOM     23  H   UNL     1      -3.785   2.500   4.715  0.00  0.00    +0.150 HD
BRANCH  21  24
ATOM     24  C   UNL     1      -2.690   1.573   2.480  0.00  0.00    +0.078 A 
ATOM     25  C   UNL     1      -4.020   1.176   2.636  0.00  0.00    +0.017 A 
ATOM     26  C   UNL     1      -4.614   0.377   1.683  0.00  0.00    +0.001 A 
ATOM     27  C   UNL     1      -3.901  -0.029   0.568  0.00  0.00    +0.004 A 
ATOM     28  C   UNL     1      -2.587   0.360   0.399  0.00  0.00    +0.046 A 
ATOM     29  C   UNL     1      -1.972   1.164   1.348  0.00  0.00    +0.132 A 
BRANCH  29  30
ATOM     30  O   UNL     1      -0.682   1.547   1.184  0.00  0.00    -0.494 OA
ATOM     31  C   UNL     1      -0.013   1.086   0.008  0.00  0.00    +0.277 C 
ENDBRANCH  29  30
ENDBRANCH  21  24
ENDBRANCH  19  20
ENDBRANCH   2  19
TORSDOF 8
