REMARK  Name = ZINC06108729
REMARK  6 active torsions:
REMARK  status: ('A' for Active; 'I' for Inactive)
REMARK    1  A    between atoms: C_1  and  C_2
REMARK    2  A    between atoms: C_2  and  C_4
REMARK    3  A    between atoms: C_2  and  N_9
REMARK    4  A    between atoms: C_10  and  C_12
REMARK    5  A    between atoms: C_12  and  S_13
REMARK    6  A    between atoms: S_13  and  C_14
REMARK                            x       y       z     vdW  Elec       q    Type
REMARK                         _______ _______ _______ _____ _____    ______ ____
ROOT
ATOM      1  C   UNL     1       6.330   1.260   1.578  0.00  0.00    +0.191 A 
ATOM      2  N   UNL     1       6.394   2.374   0.857  0.00  0.00    -0.207 NA
ATOM      3  C   UNL     1       7.546   2.947   0.551  0.00  0.00    +0.129 A 
ATOM      4  C   UNL     1       8.759   2.351   0.995  0.00  0.00    +0.051 A 
ATOM      5  C   UNL     1      10.135   2.802   0.773  0.00  0.00    -0.025 A 
ATOM      6  C   UNL     1      11.119   2.050   1.306  0.00  0.00    -0.004 A 
ATOM      7  S   UNL     1      10.289   0.715   2.125  0.00  0.00    -0.073 S 
ATOM      8  C   UNL     1       8.616   1.169   1.749  0.00  0.00    +0.115 A 
ATOM      9  N   UNL     1       7.428   0.661   2.018  0.00  0.00    -0.214 NA
ATOM     10  C   UNL     1      12.595   2.295   1.222  0.00  0.00    +0.043 C 
ATOM     11  C   UNL     1      12.853   3.333   0.121  0.00  0.00    +0.005 C 
ATOM     12  C   UNL     1      11.886   4.505   0.315  0.00  0.00    +0.005 C 
ATOM     13  C   UNL     1      10.461   4.063  -0.023  0.00  0.00    +0.037 C 
ATOM     14  N   UNL     1       7.571   4.110  -0.198  0.00  0.00    -0.343 N 
ATOM     15  H   UNL     1       8.395   4.395  -0.623  0.00  0.00    +0.144 HD
ATOM     16  H   UNL     1       6.765   4.640  -0.297  0.00  0.00    +0.144 HD
ENDROOT
BRANCH   1  17
ATOM     17  S   UNL     1       4.756   0.561   1.950  0.00  0.00    -0.077 S 
BRANCH  17  18
ATOM     18  C   UNL     1       3.678   1.759   1.125  0.00  0.00    +0.173 C 
BRANCH  18  20
ATOM     19  N   UNL     1       1.252   2.102   0.784  0.00  0.00    -0.308 N 
ATOM     20  C   UNL     1       2.239   1.353   1.315  0.00  0.00    +0.224 C 
ATOM     21  O   UNL     1       1.969   0.353   1.946  0.00  0.00    -0.275 OA
ATOM     22  H   UNL     1       1.468   2.902   0.280  0.00  0.00    +0.149 HD
BRANCH  19  24
ATOM     23  C   UNL     1      -0.657   2.247   2.307  0.00  0.00    +0.033 C 
ATOM     24  C   UNL     1      -0.147   1.707   0.969  0.00  0.00    +0.107 C 
BRANCH  24  25
ATOM     25  C   UNL     1      -0.981   2.273  -0.151  0.00  0.00    +0.010 A 
ATOM     26  C   UNL     1      -2.002   1.697  -0.831  0.00  0.00    +0.013 A 
ATOM     27  C   UNL     1      -2.630   2.413  -1.832  0.00  0.00    +0.008 A 
ATOM     28  C   UNL     1      -2.206   3.671  -2.105  0.00  0.00    +0.045 A 
ATOM     29  S   UNL     1      -0.884   3.880  -0.923  0.00  0.00    -0.100 S 
ENDBRANCH  24  25
ENDBRANCH  19  24
ENDBRANCH  18  20
ENDBRANCH  17  18
ENDBRANCH   1  17
TORSDOF 5
