REMARK  Name = ZINC35512624
REMARK  12 active torsions:
REMARK  status: ('A' for Active; 'I' for Inactive)
REMARK    1  A    between atoms: C_1  and  C_2
REMARK    2  A    between atoms: C_2  and  C_3
REMARK    3  A    between atoms: C_3  and  C_4
REMARK    4  A    between atoms: C_4  and  O_5
REMARK    5  A    between atoms: O_5  and  C_6
REMARK    6  A    between atoms: C_9  and  C_15
REMARK    7  A    between atoms: C_11  and  O_12
REMARK    8  A    between atoms: O_12  and  C_13
REMARK    9  A    between atoms: C_13  and  C_14
REMARK   10  A    between atoms: C_22  and  C_38
REMARK   11  A    between atoms: C_33  and  C_37
REMARK   12  A    between atoms: C_34  and  C_36
REMARK                            x       y       z     vdW  Elec       q    Type
REMARK                         _______ _______ _______ _____ _____    ______ ____
ROOT
ATOM      1  C   UNL     1      -3.411  -8.156  -0.009  0.00  0.00    +0.152 C 
ATOM      2  C   UNL     1      -3.196  -8.705   1.363  0.00  0.00    +0.072 A 
ATOM      3  C   UNL     1      -3.897  -8.451   2.626  0.00  0.00    +0.199 A 
ATOM      4  O   UNL     1      -4.938  -7.823   2.697  0.00  0.00    -0.287 OA
ATOM      5  C   UNL     1      -3.215  -9.031   3.811  0.00  0.00    +0.065 A 
ATOM      6  C   UNL     1      -3.643  -8.711   5.099  0.00  0.00    +0.018 A 
ATOM      7  C   UNL     1      -3.002  -9.250   6.180  0.00  0.00    -0.050 A 
ATOM      8  C   UNL     1      -1.928 -10.111   5.998  0.00  0.00    +0.007 A 
ATOM      9  C   UNL     1      -1.494 -10.439   4.734  0.00  0.00    +0.047 A 
ATOM     10  C   UNL     1      -2.133  -9.905   3.615  0.00  0.00    +0.139 A 
ATOM     11  O   UNL     1      -1.696 -10.248   2.382  0.00  0.00    -0.450 OA
ATOM     12  C   UNL     1      -2.143  -9.574   1.304  0.00  0.00    +0.199 A 
ATOM     13  C   UNL     1      -1.649  -9.607  -0.082  0.00  0.00    +0.289 C 
ATOM     14  O   UNL     1      -0.715 -10.279  -0.473  0.00  0.00    -0.266 OA
ATOM     15  N   UNL     1      -2.385  -8.783  -0.858  0.00  0.00    -0.232 N 
ATOM     16  C   UNL     1      -2.207  -8.564  -2.217  0.00  0.00    +0.169 A 
ATOM     17  N   UNL     1      -2.890  -7.770  -3.014  0.00  0.00    -0.229 NA
ATOM     18  C   UNL     1      -2.593  -7.671  -4.296  0.00  0.00    +0.050 A 
ATOM     19  C   UNL     1      -1.558  -8.421  -4.749  0.00  0.00    +0.011 A 
ATOM     20  S   UNL     1      -1.060  -9.243  -3.244  0.00  0.00    -0.057 S 
ATOM     21  C   UNL     1      -0.983  -8.528  -6.138  0.00  0.00    +0.053 C 
ATOM     22  C   UNL     1      -3.370  -6.765  -5.216  0.00  0.00    +0.066 C 
ATOM     23  C   UNL     1      -3.461  -8.907   7.574  0.00  0.00    +0.044 C 
ENDROOT
BRANCH   1  27
ATOM     24  C   UNL     1      -2.913  -3.909   0.009  0.00  0.00    +0.162 A 
ATOM     25  C   UNL     1      -1.804  -4.739  -0.000  0.00  0.00    +0.050 A 
ATOM     26  C   UNL     1      -1.968  -6.112  -0.006  0.00  0.00    +0.009 A 
ATOM     27  C   UNL     1      -3.238  -6.659  -0.002  0.00  0.00    -0.018 A 
ATOM     28  C   UNL     1      -4.348  -5.836   0.006  0.00  0.00    +0.055 A 
ATOM     29  C   UNL     1      -4.191  -4.460   0.018  0.00  0.00    +0.162 A 
BRANCH  24  30
ATOM     30  O   UNL     1      -2.753  -2.558   0.015  0.00  0.00    -0.488 OA
BRANCH  30  31
ATOM     31  C   UNL     1      -1.413  -2.063   0.004  0.00  0.00    +0.229 C 
BRANCH  31  32
ATOM     32  C   UNL     1      -1.433  -0.534   0.013  0.00  0.00    +0.041 C 
BRANCH  32  34
ATOM     33  C   UNL     1      -0.019   1.526   0.010  0.00  0.00    +0.004 C 
ATOM     34  C   UNL     1       0.002  -0.004   0.002  0.00  0.00    -0.000 C 
ENDBRANCH  32  34
ENDBRANCH  31  32
ENDBRANCH  30  31
ENDBRANCH  24  30
BRANCH  29  35
ATOM     35  O   UNL     1      -5.282  -3.649   0.033  0.00  0.00    -0.489 OA
BRANCH  35  36
ATOM     36  C   UNL     1      -6.562  -4.284   0.042  0.00  0.00    +0.226 C 
ATOM     37  C   UNL     1      -7.660  -3.219   0.058  0.00  0.00    +0.048 C 
ENDBRANCH  35  36
ENDBRANCH  29  35
ENDBRANCH   1  27
TORSDOF 7
