REMARK  Name = ZINC57531715
REMARK  4 active torsions:
REMARK  status: ('A' for Active; 'I' for Inactive)
REMARK    1  A    between atoms: C_1  and  C_2
REMARK    2  A    between atoms: C_5  and  C_8
REMARK    3  A    between atoms: N_19  and  C_20
REMARK    4  A    between atoms: C_20  and  C_21
REMARK                            x       y       z     vdW  Elec       q    Type
REMARK                         _______ _______ _______ _____ _____    ______ ____
ROOT
ATOM      1  C   UNL     1       0.059  -4.275  -0.021  0.00  0.00    +0.193 C 
ATOM      2  N   UNL     1       0.742  -4.744  -1.228  0.00  0.00    -0.289 N 
ATOM      3  C   UNL     1       2.080  -4.911  -1.252  0.00  0.00    +0.247 C 
ATOM      4  O   UNL     1       2.648  -5.156  -2.298  0.00  0.00    -0.270 OA
ATOM      5  C   UNL     1       2.846  -4.793   0.001  0.00  0.00    +0.058 A 
ATOM      6  C   UNL     1       4.239  -4.768   0.005  0.00  0.00    +0.015 A 
ATOM      7  C   UNL     1       4.914  -4.647   1.202  0.00  0.00    +0.001 A 
ATOM      8  C   UNL     1       4.217  -4.551   2.397  0.00  0.00    +0.002 A 
ATOM      9  C   UNL     1       2.835  -4.578   2.407  0.00  0.00    +0.024 A 
ATOM     10  C   UNL     1       2.143  -4.703   1.215  0.00  0.00    +0.044 A 
ATOM     11  N   UNL     1       0.757  -4.759   1.175  0.00  0.00    -0.298 N 
ATOM     12  H   UNL     1       0.223  -4.939  -2.024  0.00  0.00    +0.151 HD
ENDROOT
BRANCH   1  17
ATOM     13  C   UNL     1      -0.018   1.503   0.010  0.00  0.00    +0.044 C 
ATOM     14  C   UNL     1       0.002  -0.004   0.002  0.00  0.00    -0.050 A 
ATOM     15  C   UNL     1       0.006  -0.689  -1.199  0.00  0.00    +0.004 A 
ATOM     16  C   UNL     1       0.025  -2.071  -1.206  0.00  0.00    +0.007 A 
ATOM     17  C   UNL     1       0.040  -2.768  -0.013  0.00  0.00    -0.009 A 
ATOM     18  C   UNL     1       0.037  -2.084   1.188  0.00  0.00    +0.007 A 
ATOM     19  C   UNL     1       0.023  -0.702   1.195  0.00  0.00    +0.004 A 
ENDBRANCH   1  17
BRANCH  11  20
ATOM     20  C   UNL     1       0.005  -5.290   2.314  0.00  0.00    +0.202 C 
BRANCH  20  21
ATOM     21  C   UNL     1      -0.188  -6.775   2.140  0.00  0.00    +0.228 C 
ATOM     22  O   UNL     1       0.260  -7.334   1.162  0.00  0.00    -0.274 OA
ATOM     23  N   UNL     1      -0.857  -7.481   3.073  0.00  0.00    -0.328 N 
ATOM     24  H   UNL     1      -1.215  -7.034   3.856  0.00  0.00    +0.145 HD
ATOM     25  H   UNL     1      -0.981  -8.437   2.961  0.00  0.00    +0.145 HD
ENDBRANCH  20  21
ENDBRANCH  11  20
TORSDOF 3
