REMARK  Name = ZINC05250081
REMARK  9 active torsions:
REMARK  status: ('A' for Active; 'I' for Inactive)
REMARK    1  A    between atoms: C_1  and  C_2
REMARK    2  A    between atoms: C_3  and  C_19
REMARK    3  A    between atoms: C_4  and  C_10
REMARK    4  A    between atoms: C_13  and  N_16
REMARK    5  A    between atoms: N_16  and  C_17
REMARK    6  A    between atoms: N_16  and  C_18
REMARK    7  A    between atoms: N_21  and  N_22
REMARK    8  A    between atoms: C_23  and  C_24
REMARK    9  A    between atoms: C_29  and  O_30
REMARK                            x       y       z     vdW  Elec       q    Type
REMARK                         _______ _______ _______ _____ _____    ______ ____
ROOT
ATOM      1  C   UNL     1       0.658   1.365   0.078  0.00  0.00    +0.061 C 
ATOM      2  C   UNL     1       0.361  -0.112   0.043  0.00  0.00    +0.017 C 
ATOM      3  C   UNL     1      -0.921  -0.530  -0.025  0.00  0.00    +0.057 C 
ATOM      4  C   UNL     1      -1.175  -2.023  -0.058  0.00  0.00    +0.139 C 
ATOM      5  N   UNL     1       0.005  -2.902  -0.012  0.00  0.00    -0.315 N 
ATOM      6  C   UNL     1       1.226  -2.334   0.056  0.00  0.00    +0.135 C 
ATOM      7  S   UNL     1       2.607  -3.344   0.109  0.00  0.00    -0.019 S 
ATOM      8  N   UNL     1       1.393  -1.006   0.076  0.00  0.00    -0.300 N 
ATOM      9  H   UNL     1      -0.093  -3.867  -0.030  0.00  0.00    +0.149 HD
ATOM     10  H   UNL     1       2.298  -0.659   0.121  0.00  0.00    +0.154 HD
ENDROOT
BRANCH   4  11
ATOM     11  C   UNL     1      -1.938  -2.337  -1.319  0.00  0.00    -0.023 A 
ATOM     12  C   UNL     1      -1.289  -2.321  -2.540  0.00  0.00    +0.007 A 
ATOM     13  C   UNL     1      -1.986  -2.609  -3.698  0.00  0.00    +0.023 A 
ATOM     14  C   UNL     1      -3.339  -2.914  -3.635  0.00  0.00    +0.029 A 
ATOM     15  C   UNL     1      -3.988  -2.929  -2.406  0.00  0.00    +0.023 A 
ATOM     16  C   UNL     1      -3.284  -2.646  -1.252  0.00  0.00    +0.007 A 
BRANCH  14  17
ATOM     17  N   UNL     1      -4.046  -3.204  -4.803  0.00  0.00    -0.336 N 
ATOM     18  C   UNL     1      -3.361  -3.187  -6.098  0.00  0.00    +0.129 C 
ATOM     19  C   UNL     1      -5.474  -3.526  -4.735  0.00  0.00    +0.129 C 
ENDBRANCH  14  17
ENDBRANCH   4  11
BRANCH   3  20
ATOM     20  C   UNL     1      -1.992   0.396  -0.065  0.00  0.00    +0.263 C 
ATOM     21  O   UNL     1      -2.657   0.601   0.935  0.00  0.00    -0.269 OA
ATOM     22  N   UNL     1      -2.276   1.050  -1.209  0.00  0.00    -0.203 N 
ATOM     23  H   UNL     1      -1.795   0.833  -2.023  0.00  0.00    +0.178 HD
BRANCH  22  24
ATOM     24  N   UNL     1      -3.264   2.043  -1.221  0.00  0.00    -0.187 NA
ATOM     25  C   UNL     1      -3.537   2.673  -2.323  0.00  0.00    +0.142 C 
BRANCH  25  26
ATOM     26  C   UNL     1      -4.577   3.717  -2.336  0.00  0.00    +0.036 A 
ATOM     27  C   UNL     1      -4.878   4.393  -3.521  0.00  0.00    +0.013 A 
ATOM     28  C   UNL     1      -5.852   5.369  -3.527  0.00  0.00    +0.001 A 
ATOM     29  C   UNL     1      -6.534   5.682  -2.363  0.00  0.00    +0.004 A 
ATOM     30  C   UNL     1      -6.245   5.020  -1.185  0.00  0.00    +0.046 A 
ATOM     31  C   UNL     1      -5.273   4.033  -1.162  0.00  0.00    +0.125 A 
BRANCH  31  32
ATOM     32  O   UNL     1      -4.993   3.378  -0.006  0.00  0.00    -0.506 OA
ATOM     33  H   UNL     1      -4.303   3.797   0.526  0.00  0.00    +0.292 HD
ENDBRANCH  31  32
ENDBRANCH  25  26
ENDBRANCH  22  24
ENDBRANCH   3  20
TORSDOF 6
