REMARK  Name = ZINC67537008
REMARK  11 active torsions:
REMARK  status: ('A' for Active; 'I' for Inactive)
REMARK    1  A    between atoms: C_1  and  C_2
REMARK    2  A    between atoms: C_2  and  N_3
REMARK    3  A    between atoms: N_3  and  C_4
REMARK    4  A    between atoms: N_3  and  C_27
REMARK    5  A    between atoms: C_7  and  N_10
REMARK    6  A    between atoms: N_13  and  C_14
REMARK    7  A    between atoms: C_14  and  C_16
REMARK    8  A    between atoms: C_14  and  C_17
REMARK    9  A    between atoms: C_24  and  C_26
REMARK   10  A    between atoms: C_27  and  C_28
REMARK   11  A    between atoms: C_27  and  C_29
REMARK                            x       y       z     vdW  Elec       q    Type
REMARK                         _______ _______ _______ _____ _____    ______ ____
ROOT
ATOM      1  N   UNL     1       1.205  -6.009  -1.547  0.00  0.00    -0.269 N 
ATOM      2  C   UNL     1       2.342  -6.732  -1.510  0.00  0.00    +0.304 C 
ATOM      3  O   UNL     1       3.404  -6.210  -1.788  0.00  0.00    -0.252 OA
ATOM      4  N   UNL     1       2.302  -8.034  -1.165  0.00  0.00    -0.288 N 
ATOM      5  H   UNL     1       0.367  -6.409  -1.266  0.00  0.00    +0.156 HD
ATOM      6  H   UNL     1       1.454  -8.451  -0.943  0.00  0.00    +0.151 HD
ENDROOT
BRANCH   1  10
ATOM      7  C   UNL     1       1.291  -2.058  -2.866  0.00  0.00    +0.014 A 
ATOM      8  C   UNL     1       2.354  -2.568  -2.143  0.00  0.00    +0.023 A 
ATOM      9  C   UNL     1       2.329  -3.877  -1.705  0.00  0.00    +0.025 A 
ATOM     10  C   UNL     1       1.234  -4.682  -1.990  0.00  0.00    +0.035 A 
ATOM     11  C   UNL     1       0.167  -4.168  -2.715  0.00  0.00    +0.025 A 
ATOM     12  C   UNL     1       0.196  -2.856  -3.146  0.00  0.00    +0.023 A 
BRANCH   7  13
ATOM     13  N   UNL     1       1.320  -0.733  -3.308  0.00  0.00    -0.392 NA
ATOM     14  H   UNL     1       0.469  -0.527  -3.811  0.00  0.00    +0.127 HD
BRANCH  13  15
ATOM     15  C   UNL     1       1.435   0.167  -2.153  0.00  0.00    +0.049 C 
ATOM     16  C   UNL     1       1.340   1.619  -2.626  0.00  0.00    +0.026 C 
ATOM     17  C   UNL     1       0.302  -0.123  -1.166  0.00  0.00    +0.026 C 
ENDBRANCH  13  15
BRANCH  13  19
ATOM     18  C   UNL     1       2.287  -1.375  -5.465  0.00  0.00    +0.022 C 
ATOM     19  C   UNL     1       2.473  -0.538  -4.197  0.00  0.00    +0.082 C 
ENDBRANCH  13  19
ENDBRANCH   7  13
ENDBRANCH   1  10
BRANCH   4  20
ATOM     20  C   UNL     1       3.538  -8.820  -1.125  0.00  0.00    +0.157 C 
ATOM     21  C   UNL     1       3.849  -9.352  -2.525  0.00  0.00    +0.038 C 
BRANCH  20  22
ATOM     22  C   UNL     1       3.367  -9.977  -0.174  0.00  0.00    +0.236 C 
ATOM     23  O   UNL     1       2.258 -10.293   0.203  0.00  0.00    -0.274 OA
ATOM     24  N   UNL     1       4.446 -10.660   0.257  0.00  0.00    -0.297 N 
ATOM     25  C   UNL     1       5.802 -10.215  -0.091  0.00  0.00    +0.108 C 
ATOM     26  C   UNL     1       6.556 -11.384  -0.731  0.00  0.00    +0.019 C 
ATOM     27  C   UNL     1       6.513 -12.590   0.210  0.00  0.00    +0.003 C 
ATOM     28  C   UNL     1       5.059 -13.015   0.431  0.00  0.00    +0.022 C 
ATOM     29  C   UNL     1       4.288 -11.861   1.089  0.00  0.00    +0.073 C 
ATOM     30  C   UNL     1       2.805 -12.224   1.190  0.00  0.00    +0.028 C 
ENDBRANCH  20  22
ENDBRANCH   4  20
TORSDOF 6
