REMARK  Name = ZINC05371510
REMARK  12 active torsions:
REMARK  status: ('A' for Active; 'I' for Inactive)
REMARK    1  A    between atoms: C_1  and  C_2
REMARK    2  A    between atoms: C_2  and  C_3
REMARK    3  A    between atoms: C_2  and  O_4
REMARK    4  A    between atoms: O_4  and  C_5
REMARK    5  A    between atoms: C_5  and  C_6
REMARK    6  A    between atoms: C_6  and  C_8
REMARK    7  A    between atoms: C_8  and  O_34
REMARK    8  A    between atoms: C_12  and  O_29
REMARK    9  A    between atoms: C_15  and  O_16
REMARK   10  A    between atoms: C_23  and  O_27
REMARK   11  A    between atoms: O_27  and  C_28
REMARK   12  A    between atoms: C_30  and  O_33
REMARK                            x       y       z     vdW  Elec       q    Type
REMARK                         _______ _______ _______ _____ _____    ______ ____
ROOT
ATOM      1  C   UNL     1      -1.244   3.523  -0.388  0.00  0.00    +0.133 C 
ATOM      2  C   UNL     1      -1.357   2.059   0.032  0.00  0.00    +0.082 C 
ATOM      3  C   UNL     1      -0.007   1.391   0.001  0.00  0.00    +0.007 A 
ATOM      4  C   UNL     1       1.168   2.100  -0.006  0.00  0.00    +0.030 A 
ATOM      5  C   UNL     1       2.396   1.425  -0.019  0.00  0.00    +0.134 A 
ATOM      6  C   UNL     1       2.438   0.033  -0.032  0.00  0.00    +0.078 A 
ATOM      7  C   UNL     1       1.232  -0.696  -0.030  0.00  0.00    +0.078 A 
ATOM      8  C   UNL     1       0.019  -0.010  -0.014  0.00  0.00    +0.132 A 
ATOM      9  C   UNL     1       1.259  -2.168  -0.044  0.00  0.00    +0.198 C 
ATOM     10  O   UNL     1       0.218  -2.797  -0.045  0.00  0.00    -0.286 OA
ATOM     11  C   UNL     1       2.554  -2.880  -0.058  0.00  0.00    +0.037 A 
ATOM     12  C   UNL     1       2.590  -4.271  -0.068  0.00  0.00    +0.012 A 
ATOM     13  C   UNL     1       3.806  -4.933  -0.080  0.00  0.00    +0.004 A 
ATOM     14  C   UNL     1       4.991  -4.225  -0.083  0.00  0.00    +0.046 A 
ATOM     15  C   UNL     1       4.978  -2.833  -0.073  0.00  0.00    +0.132 A 
ATOM     16  C   UNL     1       3.758  -2.151  -0.060  0.00  0.00    +0.075 A 
ATOM     17  C   UNL     1       3.729  -0.677  -0.048  0.00  0.00    +0.202 C 
ATOM     18  O   UNL     1       4.770  -0.048  -0.050  0.00  0.00    -0.286 OA
ATOM     19  C   UNL     1       1.206   3.607  -0.006  0.00  0.00    +0.152 C 
ATOM     20  C   UNL     1      -0.137   4.180   0.444  0.00  0.00    +0.079 C 
ENDROOT
BRANCH   1  21
ATOM     21  C   UNL     1      -2.553   4.226  -0.137  0.00  0.00    +0.190 C 
ATOM     22  O   UNL     1      -2.730   4.819   0.900  0.00  0.00    -0.292 OA
BRANCH  21  23
ATOM     23  C   UNL     1      -3.641   4.189  -1.179  0.00  0.00    +0.237 C 
BRANCH  23  24
ATOM     24  O   UNL     1      -4.775   4.922  -0.710  0.00  0.00    -0.370 OA
BRANCH  24  26
ATOM     25  C   UNL     1      -6.791   3.758  -1.359  0.00  0.00    +0.037 C 
ATOM     26  C   UNL     1      -5.869   4.949  -1.628  0.00  0.00    +0.113 C 
ATOM     27  C   UNL     1      -6.653   6.251  -1.449  0.00  0.00    +0.037 C 
ENDBRANCH  24  26
ENDBRANCH  23  24
ENDBRANCH  21  23
ENDBRANCH   1  21
BRANCH   8  28
ATOM     28  O   UNL     1      -1.146  -0.703  -0.013  0.00  0.00    -0.506 OA
ATOM     29  H   UNL     1      -1.491  -0.895  -0.897  0.00  0.00    +0.292 HD
ENDBRANCH   8  28
BRANCH  15  30
ATOM     30  O   UNL     1       6.145  -2.142  -0.076  0.00  0.00    -0.494 OA
ATOM     31  C   UNL     1       7.352  -2.906  -0.089  0.00  0.00    +0.277 C 
ENDBRANCH  15  30
BRANCH   5  32
ATOM     32  O   UNL     1       3.553   2.133  -0.021  0.00  0.00    -0.506 OA
ATOM     33  H   UNL     1       3.882   2.346  -0.905  0.00  0.00    +0.292 HD
ENDBRANCH   5  32
BRANCH  19  34
ATOM     34  O   UNL     1       2.230   4.053   0.884  0.00  0.00    -0.387 OA
ATOM     35  H   UNL     1       2.370   5.010   0.875  0.00  0.00    +0.210 HD
ENDBRANCH  19  34
BRANCH   1  36
ATOM     36  O   UNL     1      -0.915   3.602  -1.777  0.00  0.00    -0.381 OA
ATOM     37  H   UNL     1      -1.575   3.204  -2.361  0.00  0.00    +0.211 HD
ENDBRANCH   1  36
TORSDOF 9
