REMARK  Name = ZINC39953399
REMARK  5 active torsions:
REMARK  status: ('A' for Active; 'I' for Inactive)
REMARK    1  A    between atoms: C_6  and  S_7
REMARK    2  A    between atoms: S_7  and  N_10
REMARK    3  A    between atoms: N_10  and  C_11
REMARK    4  A    between atoms: C_17  and  C_18
REMARK    5  A    between atoms: N_20  and  C_21
REMARK                            x       y       z     vdW  Elec       q    Type
REMARK                         _______ _______ _______ _____ _____    ______ ____
ROOT
ATOM      1  C   UNL     1      -2.206  -1.764  -2.677  0.00  0.00    +0.220 C 
ATOM      2  N   UNL     1      -2.128  -1.538  -4.137  0.00  0.00    -0.322 N 
ATOM      3  C   UNL     1      -1.596  -2.531  -4.880  0.00  0.00    +0.021 C 
ATOM      4  C   UNL     1      -1.644  -3.932  -4.290  0.00  0.00    +0.122 C 
ATOM      5  S   UNL     1      -2.378  -3.600  -2.631  0.00  0.00    -0.116 S 
ATOM      6  C   UNL     1      -1.047  -2.292  -6.089  0.00  0.00    +0.087 C 
ATOM      7  H   UNL     1      -2.444  -0.715  -4.541  0.00  0.00    +0.148 HD
ENDROOT
BRANCH   6   8
ATOM      8  C   UNL     1      -0.886  -0.963  -6.542  0.00  0.00    +0.243 C 
ATOM      9  O   UNL     1      -1.159  -0.032  -5.806  0.00  0.00    -0.270 OA
ATOM     10  N   UNL     1      -0.431  -0.726  -7.788  0.00  0.00    -0.282 N 
ATOM     11  H   UNL     1      -0.280  -1.465  -8.398  0.00  0.00    +0.155 HD
BRANCH  10  12
ATOM     12  C   UNL     1      -0.179   0.573  -8.198  0.00  0.00    +0.034 C 
ATOM     13  C   UNL     1      -0.873   1.112  -9.273  0.00  0.00    +0.029 C 
ATOM     14  C   UNL     1      -0.576   2.449  -9.560  0.00  0.00    -0.016 C 
ATOM     15  C   UNL     1      -0.572   3.161 -10.705  0.00  0.00    +0.025 C 
ATOM     16  C   UNL     1       0.077   4.392 -10.487  0.00  0.00    +0.106 C 
ATOM     17  N   UNL     1       0.411   4.558  -9.236  0.00  0.00    -0.279 NA
ATOM     18  C   UNL     1      -0.106   3.421  -8.489  0.00  0.00    +0.158 C 
ATOM     19  C   UNL     1       0.899   2.711  -7.634  0.00  0.00    +0.006 C 
ATOM     20  C   UNL     1       0.818   1.387  -7.496  0.00  0.00    +0.021 C 
ENDBRANCH  10  12
ENDBRANCH   6   8
BRANCH   1  21
ATOM     21  N   UNL     1      -3.382  -1.107  -2.101  0.00  0.00    -0.161 NA
ATOM     22  H   UNL     1      -4.164  -0.942  -2.651  0.00  0.00    +0.151 HD
BRANCH  21  23
ATOM     23  S   UNL     1      -3.377  -0.645  -0.510  0.00  0.00    +0.061 S 
ATOM     24  O   UNL     1      -2.924  -1.766   0.236  0.00  0.00    -0.153 OA
ATOM     25  O   UNL     1      -4.630  -0.022  -0.264  0.00  0.00    -0.153 OA
BRANCH  23  31
ATOM     26  C   UNL     1      -2.487   1.935  -0.507  0.00  0.00    +0.030 A 
ATOM     27  C   UNL     1      -1.524   2.917  -0.369  0.00  0.00    +0.022 A 
ATOM     28  C   UNL     1      -0.221   2.569  -0.059  0.00  0.00    +0.041 A 
ATOM     29  C   UNL     1       0.117   1.239   0.113  0.00  0.00    +0.022 A 
ATOM     30  C   UNL     1      -0.847   0.258  -0.025  0.00  0.00    +0.030 A 
ATOM     31  C   UNL     1      -2.148   0.606  -0.335  0.00  0.00    +0.105 A 
ATOM     32 CL   UNL     1       0.989   3.802   0.114  0.00  0.00    -0.084 Cl
ENDBRANCH  23  31
ENDBRANCH  21  23
ENDBRANCH   1  21
TORSDOF 5
