REMARK  Name = ZINC57391188
REMARK  7 active torsions:
REMARK  status: ('A' for Active; 'I' for Inactive)
REMARK    1  A    between atoms: C_1  and  C_2
REMARK    2  A    between atoms: C_4  and  C_7
REMARK    3  A    between atoms: C_7  and  C_8
REMARK    4  A    between atoms: N_10  and  N_11
REMARK    5  A    between atoms: C_12  and  C_14
REMARK    6  A    between atoms: C_14  and  N_15
REMARK    7  A    between atoms: C_16  and  C_18
REMARK                            x       y       z     vdW  Elec       q    Type
REMARK                         _______ _______ _______ _____ _____    ______ ____
ROOT
ATOM      1  N   UNL     1      -4.849  -3.235   2.454  0.00  0.00    -0.233 N 
ATOM      2  C   UNL     1      -5.962  -3.967   2.657  0.00  0.00    +0.246 C 
ATOM      3  O   UNL     1      -6.240  -4.872   1.899  0.00  0.00    -0.273 OA
ATOM      4  H   UNL     1      -4.627  -2.511   3.061  0.00  0.00    +0.173 HD
ENDROOT
BRANCH   1   7
ATOM      5  C   UNL     1      -2.899  -2.787   1.164  0.00  0.00    +0.235 C 
ATOM      6  O   UNL     1      -2.621  -1.882   1.922  0.00  0.00    -0.274 OA
ATOM      7  N   UNL     1      -4.012  -3.519   1.367  0.00  0.00    -0.234 N 
ATOM      8  H   UNL     1      -4.234  -4.243   0.760  0.00  0.00    +0.173 HD
BRANCH   5   9
ATOM      9  C   UNL     1      -1.999  -3.093  -0.006  0.00  0.00    +0.153 C 
BRANCH   9  13
ATOM     10  C   UNL     1      -0.018   1.503   0.010  0.00  0.00    +0.073 C 
ATOM     11  C   UNL     1       0.002  -0.004   0.002  0.00  0.00    +0.076 A 
ATOM     12  N   UNL     1      -1.013  -0.832   0.002  0.00  0.00    -0.249 NA
ATOM     13  C   UNL     1      -0.834  -2.137  -0.006  0.00  0.00    +0.057 A 
ATOM     14  C   UNL     1       0.449  -2.582  -0.014  0.00  0.00    +0.070 A 
ATOM     15  S   UNL     1       1.335  -1.032  -0.017  0.00  0.00    -0.081 S 
ENDBRANCH   9  13
ENDBRANCH   5   9
ENDBRANCH   1   7
BRANCH   2  16
ATOM     16  C   UNL     1      -6.862  -3.661   3.826  0.00  0.00    +0.202 C 
BRANCH  16  17
ATOM     17  N   UNL     1      -7.995  -4.590   3.827  0.00  0.00    -0.302 N 
ATOM     18  C   UNL     1      -8.936  -4.505   4.788  0.00  0.00    +0.253 C 
ATOM     19  O   UNL     1      -8.845  -3.656   5.655  0.00  0.00    -0.270 OA
ATOM     20  H   UNL     1      -8.068  -5.267   3.136  0.00  0.00    +0.150 HD
BRANCH  18  21
ATOM     21  C   UNL     1     -10.072  -5.436   4.788  0.00  0.00    +0.093 A 
ATOM     22  C   UNL     1     -11.113  -5.502   5.661  0.00  0.00    +0.068 A 
ATOM     23  C   UNL     1     -12.113  -6.479   5.487  0.00  0.00    +0.008 A 
ATOM     24  C   UNL     1     -13.265  -6.707   6.282  0.00  0.00    +0.010 A 
ATOM     25  C   UNL     1     -14.136  -7.701   5.974  0.00  0.00    +0.001 A 
ATOM     26  C   UNL     1     -13.937  -8.530   4.876  0.00  0.00    +0.001 A 
ATOM     27  C   UNL     1     -12.829  -8.342   4.075  0.00  0.00    +0.016 A 
ATOM     28  C   UNL     1     -11.935  -7.336   4.376  0.00  0.00    +0.021 A 
ATOM     29  S   UNL     1     -10.429  -6.753   3.639  0.00  0.00    -0.082 S 
ATOM     30 CL   UNL     1     -11.210  -4.386   6.987  0.00  0.00    -0.082 Cl
ENDBRANCH  18  21
ENDBRANCH  16  17
ENDBRANCH   2  16
TORSDOF 6
