REMARK  Name = ZINC08754533
REMARK  6 active torsions:
REMARK  status: ('A' for Active; 'I' for Inactive)
REMARK    1  A    between atoms: C_1  and  C_2
REMARK    2  A    between atoms: C_5  and  N_8
REMARK    3  A    between atoms: N_11  and  N_24
REMARK    4  A    between atoms: C_14  and  C_17
REMARK    5  A    between atoms: C_21  and  O_23
REMARK    6  A    between atoms: N_27  and  C_28
REMARK                            x       y       z     vdW  Elec       q    Type
REMARK                         _______ _______ _______ _____ _____    ______ ____
ROOT
ATOM      1  N   UNL     1       2.961  10.400   0.029  0.00  0.00    -0.268 N 
ATOM      2  C   UNL     1       1.917   9.547   0.032  0.00  0.00    +0.329 C 
ATOM      3  O   UNL     1       0.780   9.978   0.037  0.00  0.00    -0.250 OA
ATOM      4  N   UNL     1       2.134   8.217   0.031  0.00  0.00    -0.146 N 
ATOM      5  C   UNL     1       1.058   7.338   0.034  0.00  0.00    +0.186 A 
ATOM      6  N   UNL     1       1.057   6.018   0.034  0.00  0.00    -0.223 NA
ATOM      7  C   UNL     1      -0.075   5.330   0.038  0.00  0.00    +0.080 A 
ATOM      8  C   UNL     1      -1.266   6.000   0.037  0.00  0.00    +0.077 A 
ATOM      9  S   UNL     1      -0.694   7.694   0.041  0.00  0.00    -0.058 S 
ATOM     10  H   UNL     1       3.866  10.058   0.093  0.00  0.00    +0.156 HD
ENDROOT
BRANCH   1  15
ATOM     11  C   UNL     1       2.058  15.987  -0.360  0.00  0.00    +0.044 C 
ATOM     12  C   UNL     1       2.298  14.503  -0.257  0.00  0.00    -0.050 A 
ATOM     13  C   UNL     1       1.408  13.707   0.441  0.00  0.00    +0.005 A 
ATOM     14  C   UNL     1       1.625  12.347   0.538  0.00  0.00    +0.023 A 
ATOM     15  C   UNL     1       2.738  11.778  -0.067  0.00  0.00    +0.035 A 
ATOM     16  C   UNL     1       3.633  12.580  -0.763  0.00  0.00    +0.023 A 
ATOM     17  C   UNL     1       3.407  13.939  -0.861  0.00  0.00    +0.005 A 
ENDBRANCH   1  15
BRANCH   7  18
ATOM     18  C   UNL     1      -0.051   3.847   0.037  0.00  0.00    +0.004 A 
ATOM     19  C   UNL     1      -1.245   3.128   0.041  0.00  0.00    +0.010 A 
ATOM     20  C   UNL     1      -1.219   1.748   0.035  0.00  0.00    +0.004 A 
ATOM     21  C   UNL     1      -0.011   1.075   0.036  0.00  0.00    +0.045 A 
ATOM     22  C   UNL     1       1.182   1.784   0.032  0.00  0.00    +0.117 A 
ATOM     23  C   UNL     1       1.166   3.169   0.032  0.00  0.00    +0.055 A 
BRANCH  22  24
ATOM     24  O   UNL     1       2.367   1.118   0.028  0.00  0.00    -0.507 OA
ATOM     25  H   UNL     1       2.707   0.926  -0.857  0.00  0.00    +0.292 HD
ENDBRANCH  22  24
ENDBRANCH   7  18
BRANCH   4  26
ATOM     26  N   UNL     1       3.444   7.720   0.025  0.00  0.00    -0.208 N 
ATOM     27  C   UNL     1       3.962   7.199  -1.105  0.00  0.00    +0.317 C 
ATOM     28  O   UNL     1       5.099   6.769  -1.109  0.00  0.00    -0.251 OA
ATOM     29  N   UNL     1       3.221   7.157  -2.229  0.00  0.00    -0.295 N 
ATOM     30  H   UNL     1       3.977   7.751   0.835  0.00  0.00    +0.175 HD
ATOM     31  H   UNL     1       2.314   7.500  -2.225  0.00  0.00    +0.151 HD
BRANCH  29  32
ATOM     32  C   UNL     1       3.784   6.591  -3.457  0.00  0.00    +0.074 C 
ATOM     33  C   UNL     1       4.579   7.668  -4.197  0.00  0.00    +0.022 C 
ATOM     34  C   UNL     1       5.168   7.077  -5.480  0.00  0.00    +0.002 C 
ATOM     35  C   UNL     1       4.035   6.573  -6.376  0.00  0.00    +0.000 C 
ATOM     36  C   UNL     1       3.240   5.495  -5.636  0.00  0.00    +0.002 C 
ATOM     37  C   UNL     1       2.651   6.086  -4.353  0.00  0.00    +0.022 C 
ENDBRANCH  29  32
ENDBRANCH   4  26
TORSDOF 5
