REMARK  Name = ZINC59915156
REMARK  10 active torsions:
REMARK  status: ('A' for Active; 'I' for Inactive)
REMARK    1  A    between atoms: C_1  and  C_2
REMARK    2  A    between atoms: C_2  and  C_3
REMARK    3  A    between atoms: C_3  and  C_4
REMARK    4  A    between atoms: C_4  and  C_26
REMARK    5  A    between atoms: N_5  and  N_6
REMARK    6  A    between atoms: C_10  and  S_13
REMARK    7  A    between atoms: N_11  and  N_12
REMARK    8  A    between atoms: S_13  and  C_14
REMARK    9  A    between atoms: C_14  and  C_15
REMARK   10  A    between atoms: N_17  and  C_18
REMARK                            x       y       z     vdW  Elec       q    Type
REMARK                         _______ _______ _______ _____ _____    ______ ____
ROOT
ATOM      1  N   UNL     1      -1.784  -4.095   1.028  0.00  0.00    -0.204 N 
ATOM      2  C   UNL     1      -2.282  -4.802   2.115  0.00  0.00    +0.254 A 
ATOM      3  N   UNL     1      -2.792  -4.281   3.204  0.00  0.00    -0.109 NA
ATOM      4  N   UNL     1      -3.173  -5.332   4.049  0.00  0.00    -0.119 NA
ATOM      5  C   UNL     1      -2.884  -6.460   3.447  0.00  0.00    +0.210 A 
ATOM      6  N   UNL     1      -2.331  -6.163   2.234  0.00  0.00    -0.211 N 
ATOM      7  H   UNL     1      -1.429  -4.572   0.261  0.00  0.00    +0.177 HD
ENDROOT
BRANCH   1   9
ATOM      8  C   UNL     1      -1.336  -2.043   0.037  0.00  0.00    +0.034 C 
ATOM      9  N   UNL     1      -1.795  -2.694   1.039  0.00  0.00    -0.189 NA
ATOM     10  C   UNL     1      -0.785  -2.783  -1.154  0.00  0.00    +0.062 C 
BRANCH   8  11
ATOM     11  C   UNL     1      -1.348  -0.536   0.049  0.00  0.00    +0.052 C 
BRANCH  11  13
ATOM     12  C   UNL     1       0.079   1.515   0.058  0.00  0.00    +0.004 C 
ATOM     13  C   UNL     1       0.091  -0.015   0.046  0.00  0.00    +0.002 C 
ENDBRANCH  11  13
ENDBRANCH   8  11
ENDBRANCH   1   9
BRANCH   6  14
ATOM     14  N   UNL     1      -1.899  -7.066   1.305  0.00  0.00    -0.294 N 
ATOM     15  H   UNL     1      -0.930  -7.302   1.452  0.00  0.00    +0.163 HD
ATOM     16  H   UNL     1      -2.477  -7.893   1.309  0.00  0.00    +0.163 HD
ENDBRANCH   6  14
BRANCH   5  17
ATOM     17  S   UNL     1      -3.166  -8.078   4.088  0.00  0.00    -0.075 S 
BRANCH  17  18
ATOM     18  C   UNL     1      -3.921  -7.781   5.710  0.00  0.00    +0.173 C 
BRANCH  18  19
ATOM     19  C   UNL     1      -4.216  -9.101   6.376  0.00  0.00    +0.228 C 
ATOM     20  O   UNL     1      -3.944 -10.139   5.811  0.00  0.00    -0.275 OA
ATOM     21  N   UNL     1      -4.782  -9.127   7.598  0.00  0.00    -0.284 N 
ATOM     22  H   UNL     1      -4.940  -8.299   8.078  0.00  0.00    +0.155 HD
BRANCH  21  23
ATOM     23  C   UNL     1      -5.143 -10.350   8.176  0.00  0.00    +0.053 A 
ATOM     24  C   UNL     1      -4.370 -11.481   7.950  0.00  0.00    +0.025 A 
ATOM     25  C   UNL     1      -4.728 -12.687   8.522  0.00  0.00    +0.003 A 
ATOM     26  C   UNL     1      -5.854 -12.769   9.319  0.00  0.00    +0.021 A 
ATOM     27  C   UNL     1      -6.628 -11.645   9.547  0.00  0.00    +0.061 A 
ATOM     28  C   UNL     1      -6.272 -10.433   8.982  0.00  0.00    +0.080 A 
ATOM     29 CL   UNL     1      -7.237  -9.020   9.274  0.00  0.00    -0.080 Cl
ATOM     30 CL   UNL     1      -8.042 -11.753  10.549  0.00  0.00    -0.082 Cl
ENDBRANCH  21  23
ENDBRANCH  18  19
ENDBRANCH  17  18
ENDBRANCH   5  17
TORSDOF 8
