REMARK  Name = ZINC55134784
REMARK  10 active torsions:
REMARK  status: ('A' for Active; 'I' for Inactive)
REMARK    1  A    between atoms: C_1  and  C_2
REMARK    2  A    between atoms: C_4  and  C_23
REMARK    3  A    between atoms: C_7  and  C_14
REMARK    4  A    between atoms: C_9  and  C_13
REMARK    5  A    between atoms: C_17  and  O_22
REMARK    6  A    between atoms: C_18  and  O_20
REMARK    7  A    between atoms: O_20  and  C_21
REMARK    8  A    between atoms: C_26  and  O_31
REMARK    9  A    between atoms: C_27  and  O_29
REMARK   10  A    between atoms: O_29  and  C_30
REMARK                            x       y       z     vdW  Elec       q    Type
REMARK                         _______ _______ _______ _____ _____    ______ ____
ROOT
ATOM      1  C   UNL     1       0.103   1.313   0.355  0.00  0.00    +0.017 C 
ATOM      2  C   UNL     1       0.101  -0.198   0.113  0.00  0.00    +0.074 C 
ATOM      3  C   UNL     1       0.731  -0.504  -1.250  0.00  0.00    +0.094 C 
ATOM      4  N   UNL     1       0.869  -1.958  -1.409  0.00  0.00    -0.301 NA
ATOM      5  C   UNL     1       1.820  -2.519  -0.441  0.00  0.00    +0.094 C 
ATOM      6  C   UNL     1       1.263  -2.349   0.977  0.00  0.00    +0.074 C 
ATOM      7  C   UNL     1       0.922  -0.888   1.182  0.00  0.00    +0.143 C 
ATOM      8  O   UNL     1       1.295  -0.292   2.164  0.00  0.00    -0.297 OA
ATOM      9  C   UNL     1       0.002  -3.201   1.142  0.00  0.00    +0.017 C 
ATOM     10  H   UNL     1      -0.028  -2.415  -1.341  0.00  0.00    +0.123 HD
ENDROOT
BRANCH   5  11
ATOM     11  C   UNL     1       2.025  -3.984  -0.729  0.00  0.00    -0.026 A 
ATOM     12  C   UNL     1       0.950  -4.771  -1.098  0.00  0.00    +0.009 A 
ATOM     13  C   UNL     1       1.132  -6.115  -1.364  0.00  0.00    +0.049 A 
ATOM     14  C   UNL     1       2.395  -6.676  -1.260  0.00  0.00    +0.158 A 
ATOM     15  C   UNL     1       3.477  -5.884  -0.889  0.00  0.00    +0.162 A 
ATOM     16  C   UNL     1       3.288  -4.536  -0.629  0.00  0.00    +0.054 A 
BRANCH  15  17
ATOM     17  O   UNL     1       4.718  -6.430  -0.786  0.00  0.00    -0.491 OA
ATOM     18  C   UNL     1       5.781  -5.557  -0.401  0.00  0.00    +0.277 C 
ENDBRANCH  15  17
BRANCH  14  19
ATOM     19  O   UNL     1       2.576  -7.999  -1.521  0.00  0.00    -0.503 OA
ATOM     20  H   UNL     1       2.782  -8.193  -2.445  0.00  0.00    +0.292 HD
ENDBRANCH  14  19
ENDBRANCH   5  11
BRANCH   3  21
ATOM     21  C   UNL     1       2.091   0.141  -1.331  0.00  0.00    -0.026 A 
ATOM     22  C   UNL     1       2.711   0.590  -0.180  0.00  0.00    +0.009 A 
ATOM     23  C   UNL     1       3.958   1.182  -0.249  0.00  0.00    +0.049 A 
ATOM     24  C   UNL     1       4.590   1.327  -1.475  0.00  0.00    +0.158 A 
ATOM     25  C   UNL     1       3.965   0.875  -2.633  0.00  0.00    +0.162 A 
ATOM     26  C   UNL     1       2.717   0.278  -2.556  0.00  0.00    +0.054 A 
BRANCH  25  27
ATOM     27  O   UNL     1       4.580   1.015  -3.838  0.00  0.00    -0.491 OA
ATOM     28  C   UNL     1       3.880   0.528  -4.984  0.00  0.00    +0.277 C 
ENDBRANCH  25  27
BRANCH  24  29
ATOM     29  O   UNL     1       5.816   1.910  -1.545  0.00  0.00    -0.503 OA
ATOM     30  H   UNL     1       6.552   1.289  -1.462  0.00  0.00    +0.292 HD
ENDBRANCH  24  29
ENDBRANCH   3  21
TORSDOF 6
