REMARK  Name = ZINC49779098
REMARK  7 active torsions:
REMARK  status: ('A' for Active; 'I' for Inactive)
REMARK    1  A    between atoms: C_1  and  C_2
REMARK    2  A    between atoms: C_2  and  C_4
REMARK    3  A    between atoms: C_2  and  N_12
REMARK    4  A    between atoms: C_9  and  O_10
REMARK    5  A    between atoms: O_10  and  C_11
REMARK    6  A    between atoms: N_15  and  N_16
REMARK    7  A    between atoms: N_16  and  C_17
REMARK                            x       y       z     vdW  Elec       q    Type
REMARK                         _______ _______ _______ _____ _____    ______ ____
ROOT
ATOM      1  N   UNL     1       0.554  -0.492   1.146  0.00  0.00    -0.292 N 
ATOM      2  C   UNL     1      -0.118  -0.595   2.309  0.00  0.00    +0.316 C 
ATOM      3  O   UNL     1      -1.290  -0.277   2.365  0.00  0.00    -0.251 OA
ATOM      4  N   UNL     1       0.510  -1.050   3.412  0.00  0.00    -0.220 N 
ATOM      5  H   UNL     1       1.489  -0.746   1.101  0.00  0.00    +0.151 HD
ATOM      6  H   UNL     1       0.026  -1.124   4.250  0.00  0.00    +0.174 HD
ENDROOT
BRANCH   1   8
ATOM      7  C   UNL     1       0.002   1.525  -0.123  0.00  0.00    +0.033 C 
ATOM      8  C   UNL     1      -0.129   0.002  -0.053  0.00  0.00    +0.105 C 
BRANCH   8   9
ATOM      9  C   UNL     1       0.498  -0.613  -1.278  0.00  0.00    +0.014 A 
ATOM     10  C   UNL     1       1.820  -1.015  -1.250  0.00  0.00    +0.009 A 
ATOM     11  C   UNL     1       2.396  -1.579  -2.373  0.00  0.00    +0.001 A 
ATOM     12  C   UNL     1       1.651  -1.742  -3.527  0.00  0.00    +0.004 A 
ATOM     13  C   UNL     1       0.329  -1.342  -3.559  0.00  0.00    +0.046 A 
ATOM     14  C   UNL     1      -0.253  -0.781  -2.432  0.00  0.00    +0.125 A 
BRANCH  14  15
ATOM     15  O   UNL     1      -1.554  -0.392  -2.459  0.00  0.00    -0.495 OA
ATOM     16  C   UNL     1      -2.267  -0.595  -3.682  0.00  0.00    +0.277 C 
ENDBRANCH  14  15
ENDBRANCH   8   9
ENDBRANCH   1   8
BRANCH   4  17
ATOM     17  N   UNL     1       1.861  -1.416   3.348  0.00  0.00    -0.258 N 
ATOM     18  H   UNL     1       2.365  -1.267   2.533  0.00  0.00    +0.170 HD
BRANCH  17  19
ATOM     19  C   UNL     1       2.482  -1.997   4.462  0.00  0.00    +0.121 A 
ATOM     20  C   UNL     1       1.770  -2.860   5.285  0.00  0.00    +0.186 A 
ATOM     21  C   UNL     1       2.386  -3.434   6.385  0.00  0.00    +0.198 A 
ATOM     22  C   UNL     1       3.713  -3.147   6.664  0.00  0.00    +0.199 A 
ATOM     23  C   UNL     1       4.426  -2.287   5.844  0.00  0.00    +0.198 A 
ATOM     24  C   UNL     1       3.814  -1.715   4.740  0.00  0.00    +0.186 A 
ATOM     25  F   UNL     1       4.511  -0.880   3.938  0.00  0.00    -0.200 F 
ATOM     26  F   UNL     1       5.719  -2.009   6.118  0.00  0.00    -0.199 F 
ATOM     27  F   UNL     1       4.313  -3.708   7.737  0.00  0.00    -0.199 F 
ATOM     28  F   UNL     1       1.694  -4.273   7.186  0.00  0.00    -0.199 F 
ATOM     29  F   UNL     1       0.476  -3.139   5.013  0.00  0.00    -0.200 F 
ENDBRANCH  17  19
ENDBRANCH   4  17
TORSDOF 5
