REMARK  Name = ZINC05214969
REMARK  6 active torsions:
REMARK  status: ('A' for Active; 'I' for Inactive)
REMARK    1  A    between atoms: C_1  and  C_2
REMARK    2  A    between atoms: C_7  and  C_8
REMARK    3  A    between atoms: N_12  and  C_22
REMARK    4  A    between atoms: N_14  and  C_15
REMARK    5  A    between atoms: C_18  and  C_20
REMARK    6  A    between atoms: C_22  and  C_23
REMARK                            x       y       z     vdW  Elec       q    Type
REMARK                         _______ _______ _______ _____ _____    ______ ____
ROOT
ATOM      1  C   UNL     1       0.025   0.010   2.489  0.00  0.00    +0.028 C 
ATOM      2  C   UNL     1      -0.057  -0.677   3.655  0.00  0.00    +0.078 C 
ATOM      3  C   UNL     1      -0.050  -2.136   3.886  0.00  0.00    +0.259 C 
ATOM      4  O   UNL     1       0.039  -2.926   2.965  0.00  0.00    -0.269 OA
ATOM      5  N   UNL     1      -0.144  -2.545   5.140  0.00  0.00    -0.242 N 
ATOM      6  C   UNL     1      -0.243  -1.636   6.170  0.00  0.00    +0.171 C 
ATOM      7  N   UNL     1      -0.344  -1.870   7.461  0.00  0.00    -0.198 NA
ATOM      8  S   UNL     1      -0.195  -0.062   5.327  0.00  0.00    -0.049 S 
ENDROOT
BRANCH   1  15
ATOM      9  C   UNL     1       1.799   0.783   0.337  0.00  0.00    +0.044 C 
ATOM     10  C   UNL     1       0.816  -0.344   0.158  0.00  0.00    -0.043 A 
ATOM     11  C   UNL     1       0.756  -1.026  -1.040  0.00  0.00    +0.004 A 
ATOM     12  C   UNL     1      -0.145  -2.062  -1.206  0.00  0.00    +0.000 A 
ATOM     13  C   UNL     1      -0.995  -2.424  -0.174  0.00  0.00    +0.001 A 
ATOM     14  C   UNL     1      -0.948  -1.753   1.029  0.00  0.00    +0.008 A 
ATOM     15  C   UNL     1      -0.035  -0.707   1.207  0.00  0.00    -0.021 A 
ENDBRANCH   1  15
BRANCH   7  16
ATOM     16  C   UNL     1      -0.433  -0.833   8.335  0.00  0.00    +0.217 A 
ATOM     17  N   UNL     1      -0.445   0.481   8.108  0.00  0.00    -0.121 NA
ATOM     18  N   UNL     1      -0.535   1.313   9.052  0.00  0.00    -0.145 NA
ATOM     19  C   UNL     1      -0.625   0.941  10.313  0.00  0.00    +0.101 A 
ATOM     20  S   UNL     1      -0.578  -0.839  10.120  0.00  0.00    -0.031 S 
ATOM     21  C   UNL     1      -0.739   1.775  11.562  0.00  0.00    +0.075 C 
ENDBRANCH   7  16
BRANCH   5  22
ATOM     22  C   UNL     1      -0.142  -3.979   5.438  0.00  0.00    +0.142 C 
BRANCH  22  23
ATOM     23  C   UNL     1       1.274  -4.446   5.655  0.00  0.00    -0.015 C 
ATOM     24  C   UNL     1       1.597  -5.065   6.763  0.00  0.00    +0.005 C 
ENDBRANCH  22  23
ENDBRANCH   5  22
TORSDOF 4
