REMARK  Name = ZINC32527086
REMARK  9 active torsions:
REMARK  status: ('A' for Active; 'I' for Inactive)
REMARK    1  A    between atoms: C_1  and  C_2
REMARK    2  A    between atoms: C_5  and  C_8
REMARK    3  A    between atoms: C_11  and  N_16
REMARK    4  A    between atoms: C_12  and  C_13
REMARK    5  A    between atoms: C_17  and  C_19
REMARK    6  A    between atoms: C_19  and  C_20
REMARK    7  A    between atoms: C_20  and  N_21
REMARK    8  A    between atoms: C_25  and  C_33
REMARK    9  A    between atoms: C_28  and  C_32
REMARK                            x       y       z     vdW  Elec       q    Type
REMARK                         _______ _______ _______ _____ _____    ______ ____
ROOT
ATOM      1  N   UNL     1      -3.116   8.191   1.955  0.00  0.00    -0.279 N 
ATOM      2  C   UNL     1      -2.629   7.639   0.826  0.00  0.00    +0.219 C 
ATOM      3  O   UNL     1      -3.129   7.910  -0.245  0.00  0.00    -0.275 OA
ATOM      4  H   UNL     1      -2.663   7.946   2.927  0.00  0.00    +0.155 HD
ENDROOT
BRANCH   1   8
ATOM      5  C   UNL     1      -5.930  10.593   2.584  0.00  0.00    +0.003 A 
ATOM      6  C   UNL     1      -6.244  10.678   1.265  0.00  0.00    +0.056 A 
ATOM      7  S   UNL     1      -5.053   9.604   0.492  0.00  0.00    -0.081 S 
ATOM      8  C   UNL     1      -4.189   9.066   1.892  0.00  0.00    +0.084 A 
ATOM      9  C   UNL     1      -4.822   9.726   2.936  0.00  0.00    +0.073 A 
BRANCH   5  14
ATOM     10  C   UNL     1      -8.857  13.530   6.579  0.00  0.00    +0.044 C 
ATOM     11  C   UNL     1      -8.091  12.761   5.533  0.00  0.00    -0.050 A 
ATOM     12  C   UNL     1      -7.609  13.415   4.413  0.00  0.00    +0.004 A 
ATOM     13  C   UNL     1      -6.907  12.716   3.452  0.00  0.00    +0.009 A 
ATOM     14  C   UNL     1      -6.683  11.349   3.612  0.00  0.00    -0.017 A 
ATOM     15  C   UNL     1      -7.175  10.695   4.741  0.00  0.00    +0.009 A 
ATOM     16  C   UNL     1      -7.872  11.405   5.697  0.00  0.00    +0.004 A 
ENDBRANCH   5  14
BRANCH   9  17
ATOM     17  C   UNL     1      -4.392   9.555   4.325  0.00  0.00    +0.244 C 
ATOM     18  O   UNL     1      -3.546  10.294   4.796  0.00  0.00    -0.270 OA
ATOM     19  N   UNL     1      -4.933   8.581   5.083  0.00  0.00    -0.325 N 
ATOM     20  H   UNL     1      -4.610   8.452   6.127  0.00  0.00    +0.145 HD
ATOM     21  H   UNL     1      -5.697   7.913   4.657  0.00  0.00    +0.145 HD
ENDBRANCH   9  17
ENDBRANCH   1   8
BRANCH   2  22
ATOM     22  C   UNL     1      -1.463   6.688   0.894  0.00  0.00    +0.118 C 
BRANCH  22  23
ATOM     23  C   UNL     1      -1.110   6.210  -0.516  0.00  0.00    +0.134 C 
BRANCH  23  24
ATOM     24  N   UNL     1       0.025   5.283  -0.449  0.00  0.00    -0.307 N 
ATOM     25  C   UNL     1       1.220   5.916  -0.556  0.00  0.00    +0.252 A 
ATOM     26  O   UNL     1       1.213   7.129  -0.692  0.00  0.00    -0.268 OA
ATOM     27  C   UNL     1       2.444   5.234  -0.515  0.00  0.00    +0.074 A 
ATOM     28  C   UNL     1       2.441   3.888  -0.364  0.00  0.00    -0.036 A 
ATOM     29  C   UNL     1       1.159   3.191  -0.250  0.00  0.00    +0.002 A 
ATOM     30  C   UNL     1      -0.065   3.920  -0.295  0.00  0.00    +0.055 A 
ATOM     31  C   UNL     1      -1.237   3.187  -0.181  0.00  0.00    -0.026 A 
ATOM     32  C   UNL     1      -1.199   1.805  -0.034  0.00  0.00    +0.005 A 
ATOM     33  C   UNL     1      -0.008   1.113   0.014  0.00  0.00    +0.001 A 
ATOM     34  C   UNL     1       1.165   1.801  -0.096  0.00  0.00    +0.010 A 
ATOM     35  C   UNL     1      -2.637   3.752  -0.204  0.00  0.00    +0.046 C 
ATOM     36  C   UNL     1       3.752   3.144  -0.319  0.00  0.00    +0.044 C 
ENDBRANCH  23  24
ENDBRANCH  22  23
ENDBRANCH   2  22
TORSDOF 6
