REMARK  Name = ZINC20058774
REMARK  7 active torsions:
REMARK  status: ('A' for Active; 'I' for Inactive)
REMARK    1  A    between atoms: C_6  and  C_7
REMARK    2  A    between atoms: C_8  and  C_9
REMARK    3  A    between atoms: N_11  and  C_12
REMARK    4  A    between atoms: C_12  and  N_14
REMARK    5  A    between atoms: N_14  and  C_15
REMARK    6  A    between atoms: C_18  and  C_21
REMARK    7  A    between atoms: N_23  and  C_24
REMARK                            x       y       z     vdW  Elec       q    Type
REMARK                         _______ _______ _______ _____ _____    ______ ____
ROOT
ATOM      1  N   UNL     1       2.373  -2.667  -0.035  0.00  0.00    -0.297 N 
ATOM      2  H   UNL     1       3.087  -2.131   0.607  0.00  0.00    +0.154 HD
ENDROOT
BRANCH   1   3
ATOM      3  C   UNL     1       2.302  -4.058   0.013  0.00  0.00    +0.033 A 
ATOM      4  C   UNL     1       1.063  -4.692   0.000  0.00  0.00    +0.024 A 
ATOM      5  C   UNL     1       0.990  -6.066   0.042  0.00  0.00    +0.015 A 
ATOM      6  C   UNL     1       2.162  -6.824   0.109  0.00  0.00    +0.037 A 
ATOM      7  C   UNL     1       3.405  -6.185   0.127  0.00  0.00    +0.015 A 
ATOM      8  C   UNL     1       3.471  -4.811   0.079  0.00  0.00    +0.024 A 
BRANCH   6   9
ATOM      9  C   UNL     1       2.087  -8.297   0.160  0.00  0.00    +0.244 C 
ATOM     10  O   UNL     1       3.107  -8.956   0.218  0.00  0.00    -0.270 OA
ATOM     11  N   UNL     1       0.888  -8.912   0.143  0.00  0.00    -0.308 N 
ATOM     12  H   UNL     1      -0.035  -8.316   0.090  0.00  0.00    +0.149 HD
BRANCH  11  13
ATOM     13  C   UNL     1       0.814 -10.374   0.194  0.00  0.00    +0.073 C 
ATOM     14  C   UNL     1       0.961 -10.942  -1.219  0.00  0.00    +0.022 C 
ATOM     15  C   UNL     1       0.883 -12.469  -1.165  0.00  0.00    +0.002 C 
ATOM     16  C   UNL     1      -0.468 -12.892  -0.584  0.00  0.00    +0.000 C 
ATOM     17  C   UNL     1      -0.615 -12.324   0.829  0.00  0.00    +0.002 C 
ATOM     18  C   UNL     1      -0.537 -10.796   0.775  0.00  0.00    +0.022 C 
ENDBRANCH  11  13
ENDBRANCH   6   9
ENDBRANCH   1   3
BRANCH   1  19
ATOM     19  C   UNL     1       1.566  -1.980  -0.868  0.00  0.00    +0.141 C 
ATOM     20  S   UNL     1       0.557  -2.818  -1.968  0.00  0.00    -0.018 S 
BRANCH  19  23
ATOM     21  C   UNL     1       0.748   0.055  -1.667  0.00  0.00    +0.242 C 
ATOM     22  O   UNL     1       0.030  -0.541  -2.449  0.00  0.00    -0.270 OA
ATOM     23  N   UNL     1       1.554  -0.633  -0.835  0.00  0.00    -0.264 N 
ATOM     24  H   UNL     1       2.203  -0.094  -0.128  0.00  0.00    +0.157 HD
BRANCH  21  26
ATOM     25  C   UNL     1      -0.068   2.205  -2.469  0.00  0.00    +0.013 C 
ATOM     26  C   UNL     1       0.735   1.517  -1.631  0.00  0.00    +0.068 C 
BRANCH  25  32
ATOM     27  C   UNL     1       0.734   4.364  -1.528  0.00  0.00    +0.009 A 
ATOM     28  C   UNL     1       0.719   5.742  -1.502  0.00  0.00    +0.020 A 
ATOM     29  C   UNL     1      -0.107   6.446  -2.364  0.00  0.00    +0.041 A 
ATOM     30  C   UNL     1      -0.920   5.771  -3.260  0.00  0.00    +0.020 A 
ATOM     31  C   UNL     1      -0.913   4.393  -3.300  0.00  0.00    +0.009 A 
ATOM     32  C   UNL     1      -0.081   3.676  -2.433  0.00  0.00    -0.025 A 
ATOM     33 CL   UNL     1      -0.123   8.181  -2.320  0.00  0.00    -0.084 Cl
ENDBRANCH  25  32
ENDBRANCH  21  26
ENDBRANCH  19  23
ENDBRANCH   1  19
TORSDOF 7
