REMARK  Name = ZINC02214738
REMARK  6 active torsions:
REMARK  status: ('A' for Active; 'I' for Inactive)
REMARK    1  A    between atoms: C_1  and  C_2
REMARK    2  A    between atoms: C_5  and  S_8
REMARK    3  A    between atoms: S_8  and  N_11
REMARK    4  A    between atoms: N_11  and  C_12
REMARK    5  A    between atoms: C_24  and  S_26
REMARK    6  A    between atoms: S_26  and  C_27
REMARK                            x       y       z     vdW  Elec       q    Type
REMARK                         _______ _______ _______ _____ _____    ______ ____
ROOT
ATOM      1  C   UNL     1       1.007   2.336   0.306  0.00  0.00    +0.125 C 
ATOM      2  C   UNL     1       1.404   2.476   1.755  0.00  0.00    -0.019 A 
ATOM      3  C   UNL     1       1.753   1.603   2.740  0.00  0.00    +0.006 A 
ATOM      4  C   UNL     1       2.073   2.071   4.017  0.00  0.00    +0.001 A 
ATOM      5  C   UNL     1       2.054   3.398   4.334  0.00  0.00    +0.008 A 
ATOM      6  C   UNL     1       1.700   4.327   3.341  0.00  0.00    -0.017 A 
ATOM      7  C   UNL     1       1.380   3.832   2.064  0.00  0.00    -0.009 A 
ATOM      8  C   UNL     1       1.015   4.660   1.007  0.00  0.00    -0.024 A 
ATOM      9  C   UNL     1       0.970   6.002   1.234  0.00  0.00    +0.005 A 
ATOM     10  C   UNL     1       1.282   6.516   2.494  0.00  0.00    +0.001 A 
ATOM     11  C   UNL     1       1.643   5.716   3.540  0.00  0.00    +0.008 A 
ATOM     12  C   UNL     1       0.751   3.777  -0.188  0.00  0.00    +0.107 C 
ENDROOT
BRANCH   1  13
ATOM     13  N   UNL     1      -0.213   1.535   0.189  0.00  0.00    -0.181 NA
ATOM     14  H   UNL     1      -1.011   1.792   0.678  0.00  0.00    +0.149 HD
BRANCH  13  15
ATOM     15  S   UNL     1      -0.234   0.194  -0.783  0.00  0.00    +0.059 S 
ATOM     16  O   UNL     1      -1.533  -0.370  -0.670  0.00  0.00    -0.153 OA
ATOM     17  O   UNL     1       0.318   0.590  -2.031  0.00  0.00    -0.153 OA
BRANCH  15  22
ATOM     18  C   UNL     1       3.598  -3.805   1.610  0.00  0.00    +0.044 C 
ATOM     19  C   UNL     1       2.641  -2.806   1.012  0.00  0.00    -0.050 A 
ATOM     20  C   UNL     1       1.340  -2.734   1.473  0.00  0.00    +0.005 A 
ATOM     21  C   UNL     1       0.462  -1.818   0.925  0.00  0.00    +0.029 A 
ATOM     22  C   UNL     1       0.885  -0.973  -0.084  0.00  0.00    +0.105 A 
ATOM     23  C   UNL     1       2.185  -1.049  -0.549  0.00  0.00    +0.029 A 
ATOM     24  C   UNL     1       3.064  -1.962   0.002  0.00  0.00    +0.005 A 
ENDBRANCH  15  22
ENDBRANCH  13  15
ENDBRANCH   1  13
BRANCH  12  25
ATOM     25  S   UNL     1      -0.969   3.957  -0.735  0.00  0.00    -0.087 S 
BRANCH  25  26
ATOM     26  C   UNL     1      -1.038   5.591  -1.392  0.00  0.00    +0.161 A 
ATOM     27  N   UNL     1      -0.085   6.499  -1.476  0.00  0.00    -0.133 NA
ATOM     28  N   UNL     1      -0.356   7.726  -2.037  0.00  0.00    -0.125 NA
ATOM     29  C   UNL     1      -1.570   7.992  -2.477  0.00  0.00    +0.180 A 
ATOM     30  S   UNL     1      -2.419   6.463  -2.115  0.00  0.00    -0.025 S 
ATOM     31  N   UNL     1      -2.059   9.153  -3.066  0.00  0.00    -0.336 N 
ATOM     32  H   UNL     1      -2.987   9.203  -3.342  0.00  0.00    +0.144 HD
ATOM     33  H   UNL     1      -1.472   9.913  -3.200  0.00  0.00    +0.144 HD
ENDBRANCH  25  26
ENDBRANCH  12  25
TORSDOF 5
