REMARK  Name = ZINC25497868
REMARK  3 active torsions:
REMARK  status: ('A' for Active; 'I' for Inactive)
REMARK    1  A    between atoms: C_3  and  O_19
REMARK    2  A    between atoms: C_4  and  C_16
REMARK    3  A    between atoms: C_6  and  N_7
REMARK                            x       y       z     vdW  Elec       q    Type
REMARK                         _______ _______ _______ _____ _____    ______ ____
ROOT
ATOM      1  N   UNL     1       0.060  -4.184  -0.006  0.00  0.00    -0.286 N 
ATOM      2  C   UNL     1       0.767  -4.863   0.972  0.00  0.00    +0.180 A 
ATOM      3  N   UNL     1       1.340  -4.176   1.949  0.00  0.00    -0.296 N 
ATOM      4  C   UNL     1       2.021  -4.795   2.907  0.00  0.00    +0.256 A 
ATOM      5  C   UNL     1       2.138  -6.180   2.869  0.00  0.00    +0.140 A 
ATOM      6  C   UNL     1       1.529  -6.867   1.825  0.00  0.00    +0.256 A 
ATOM      7  N   UNL     1       0.858  -6.183   0.904  0.00  0.00    -0.296 N 
ATOM      8  O   UNL     1       1.617  -8.217   1.748  0.00  0.00    -0.268 OA
ATOM      9  O   UNL     1       2.599  -4.085   3.907  0.00  0.00    -0.268 OA
ATOM     10  H   UNL     1      -0.339  -4.729  -0.875  0.00  0.00    +0.155 HD
ATOM     11  H   UNL     1       1.254  -3.079   1.974  0.00  0.00    +0.172 HD
ATOM     12  H   UNL     1       0.376  -6.725   0.077  0.00  0.00    +0.172 HD
ENDROOT
BRANCH   1  18
ATOM     13  C   UNL     1      -0.307  -2.230   1.367  0.00  0.00    +0.027 A 
ATOM     14  C   UNL     1      -0.511  -0.870   1.492  0.00  0.00    +0.048 A 
ATOM     15  C   UNL     1      -0.557  -0.066   0.364  0.00  0.00    +0.131 A 
ATOM     16  C   UNL     1      -0.403  -0.638  -0.907  0.00  0.00    +0.106 A 
ATOM     17  C   UNL     1      -0.191  -2.014  -1.025  0.00  0.00    +0.042 A 
ATOM     18  C   UNL     1      -0.147  -2.804   0.111  0.00  0.00    +0.034 A 
BRANCH  16  19
ATOM     19  C   UNL     1      -0.458   0.210  -2.112  0.00  0.00    +0.390 C 
ATOM     20  O   UNL     1      -0.637   1.407  -2.005  0.00  0.00    -0.240 OA
ATOM     21  O   UNL     1      -0.309  -0.343  -3.332  0.00  0.00    -0.240 OA
ENDBRANCH  16  19
BRANCH  15  22
ATOM     22  O   UNL     1      -0.758   1.270   0.489  0.00  0.00    -0.506 OA
ATOM     23  H   UNL     1      -0.795   1.907  -0.408  0.00  0.00    +0.292 HD
ENDBRANCH  15  22
ENDBRANCH   1  18
TORSDOF 3
