REMARK  Name = ZINC02145327
REMARK  12 active torsions:
REMARK  status: ('A' for Active; 'I' for Inactive)
REMARK    1  A    between atoms: C_4  and  S_8
REMARK    2  A    between atoms: C_5  and  N_7
REMARK    3  A    between atoms: S_8  and  C_9
REMARK    4  A    between atoms: C_9  and  C_11
REMARK    5  A    between atoms: C_9  and  C_15
REMARK    6  A    between atoms: C_11  and  N_12
REMARK    7  A    between atoms: C_18  and  C_21
REMARK    8  A    between atoms: C_21  and  C_23
REMARK    9  A    between atoms: C_21  and  S_27
REMARK   10  A    between atoms: C_23  and  N_24
REMARK   11  A    between atoms: S_27  and  C_28
REMARK   12  A    between atoms: C_33  and  N_34
REMARK                            x       y       z     vdW  Elec       q    Type
REMARK                         _______ _______ _______ _____ _____    ______ ____
ROOT
ATOM      1  C   UNL     1      -0.183   1.681  -2.038  0.00  0.00    -0.032 A 
ATOM      2  C   UNL     1       0.228   0.953  -3.139  0.00  0.00    +0.005 A 
ATOM      3  C   UNL     1      -0.352   1.180  -4.373  0.00  0.00    +0.005 A 
ATOM      4  C   UNL     1      -1.335   2.142  -4.509  0.00  0.00    -0.032 A 
ATOM      5  C   UNL     1      -1.742   2.874  -3.409  0.00  0.00    +0.005 A 
ATOM      6  C   UNL     1      -1.166   2.643  -2.174  0.00  0.00    +0.005 A 
ENDROOT
BRANCH   1   7
ATOM      7  C   UNL     1       0.445   1.431  -0.692  0.00  0.00    +0.107 C 
BRANCH   7   8
ATOM      8  S   UNL     1       0.158  -0.292  -0.202  0.00  0.00    -0.113 S 
BRANCH   8  12
ATOM      9  C   UNL     1      -4.216  -0.377   0.989  0.00  0.00    +0.002 A 
ATOM     10  C   UNL     1      -3.606   0.824   0.675  0.00  0.00    +0.001 A 
ATOM     11  C   UNL     1      -2.273   0.852   0.312  0.00  0.00    +0.016 A 
ATOM     12  C   UNL     1      -1.542  -0.326   0.262  0.00  0.00    +0.029 A 
ATOM     13  C   UNL     1      -2.159  -1.538   0.573  0.00  0.00    +0.038 A 
ATOM     14  C   UNL     1      -3.495  -1.557   0.941  0.00  0.00    +0.024 A 
BRANCH  13  15
ATOM     15  N   UNL     1      -1.428  -2.731   0.519  0.00  0.00    -0.357 N 
ATOM     16  H   UNL     1      -0.492  -2.716   0.265  0.00  0.00    +0.142 HD
ATOM     17  H   UNL     1      -1.859  -3.573   0.737  0.00  0.00    +0.142 HD
ENDBRANCH  13  15
ENDBRANCH   8  12
ENDBRANCH   7   8
BRANCH   7  18
ATOM     18  C   UNL     1       1.950   1.693  -0.774  0.00  0.00    +0.230 C 
BRANCH  18  19
ATOM     19  N   UNL     1       2.566   1.416   0.526  0.00  0.00    +0.024 N 
ATOM     20  O   UNL     1       3.615   0.799   0.584  0.00  0.00    -0.132 OA
ATOM     21  O   UNL     1       2.029   1.802   1.549  0.00  0.00    -0.132 OA
ENDBRANCH  18  19
ENDBRANCH   7  18
ENDBRANCH   1   7
BRANCH   4  22
ATOM     22  C   UNL     1      -1.962   2.393  -5.856  0.00  0.00    +0.107 C 
BRANCH  22  23
ATOM     23  C   UNL     1      -2.630   1.110  -6.355  0.00  0.00    +0.230 C 
BRANCH  23  24
ATOM     24  N   UNL     1      -3.373   1.393  -7.585  0.00  0.00    +0.024 N 
ATOM     25  O   UNL     1      -2.855   2.046  -8.473  0.00  0.00    -0.132 OA
ATOM     26  O   UNL     1      -4.510   0.976  -7.720  0.00  0.00    -0.132 OA
ENDBRANCH  23  24
ENDBRANCH  22  23
BRANCH  22  27
ATOM     27  S   UNL     1      -0.681   2.906  -7.034  0.00  0.00    -0.113 S 
BRANCH  27  28
ATOM     28  C   UNL     1      -0.275   4.546  -6.535  0.00  0.00    +0.029 A 
ATOM     29  C   UNL     1      -1.014   5.175  -5.543  0.00  0.00    +0.016 A 
ATOM     30  C   UNL     1      -0.693   6.461  -5.152  0.00  0.00    +0.001 A 
ATOM     31  C   UNL     1       0.363   7.126  -5.748  0.00  0.00    +0.002 A 
ATOM     32  C   UNL     1       1.105   6.507  -6.738  0.00  0.00    +0.024 A 
ATOM     33  C   UNL     1       0.794   5.215  -7.132  0.00  0.00    +0.038 A 
BRANCH  33  34
ATOM     34  N   UNL     1       1.546   4.585  -8.130  0.00  0.00    -0.357 N 
ATOM     35  H   UNL     1       1.325   3.682  -8.408  0.00  0.00    +0.142 HD
ATOM     36  H   UNL     1       2.289   5.051  -8.545  0.00  0.00    +0.142 HD
ENDBRANCH  33  34
ENDBRANCH  27  28
ENDBRANCH  22  27
ENDBRANCH   4  22
TORSDOF 12
