REMARK  Name = ZINC29477570
REMARK  10 active torsions:
REMARK  status: ('A' for Active; 'I' for Inactive)
REMARK    1  A    between atoms: C_1  and  C_2
REMARK    2  A    between atoms: C_2  and  C_29
REMARK    3  A    between atoms: C_6  and  O_28
REMARK    4  A    between atoms: C_7  and  C_27
REMARK    5  A    between atoms: C_8  and  O_26
REMARK    6  A    between atoms: C_12  and  C_24
REMARK    7  A    between atoms: C_12  and  C_25
REMARK    8  A    between atoms: C_15  and  O_23
REMARK    9  A    between atoms: C_17  and  O_22
REMARK   10  A    between atoms: C_19  and  C_21
REMARK                            x       y       z     vdW  Elec       q    Type
REMARK                         _______ _______ _______ _____ _____    ______ ____
ROOT
ATOM      1  C   UNL     1       0.041   1.556   0.007  0.00  0.00    +0.046 C 
ATOM      2  C   UNL     1       0.043   0.017  -0.023  0.00  0.00    +0.092 C 
ATOM      3  C   UNL     1      -1.374  -0.469  -0.313  0.00  0.00    +0.116 C 
ATOM      4  C   UNL     1      -2.055  -0.955   0.957  0.00  0.00    +0.171 C 
ATOM      5  O   UNL     1      -3.181  -0.628   1.206  0.00  0.00    -0.294 OA
ATOM      6  C   UNL     1      -1.179  -1.845   1.820  0.00  0.00    +0.162 C 
ATOM      7  C   UNL     1      -1.899  -2.608   2.896  0.00  0.00    +0.038 C 
ATOM      8  C   UNL     1      -2.873  -3.625   2.288  0.00  0.00    +0.124 C 
ATOM      9  C   UNL     1      -2.195  -4.918   1.862  0.00  0.00    +0.032 C 
ATOM     10  C   UNL     1      -1.596  -5.569   3.107  0.00  0.00    +0.009 C 
ATOM     11  C   UNL     1      -0.495  -4.665   3.666  0.00  0.00    -0.029 C 
ATOM     12  C   UNL     1      -0.972  -3.251   3.915  0.00  0.00    +0.037 C 
ATOM     13  C   UNL     1       0.160  -2.342   4.365  0.00  0.00    +0.150 C 
ATOM     14  C   UNL     1       0.880  -1.610   3.249  0.00  0.00    +0.178 C 
ATOM     15  C   UNL     1      -0.070  -0.904   2.290  0.00  0.00    +0.132 C 
ATOM     16  O   UNL     1       0.658  -0.497   1.132  0.00  0.00    -0.357 OA
ATOM     17  C   UNL     1      -0.624   0.354   2.960  0.00  0.00    +0.048 C 
ATOM     18  C   UNL     1       0.721  -4.732   2.744  0.00  0.00    +0.011 C 
ATOM     19  C   UNL     1      -0.081  -5.287   5.022  0.00  0.00    +0.011 C 
ATOM     20  C   UNL     1      -2.824  -1.662   3.715  0.00  0.00    +0.017 C 
ENDROOT
BRANCH  14  21
ATOM     21  O   UNL     1       1.752  -0.621   3.828  0.00  0.00    -0.386 OA
ATOM     22  H   UNL     1       2.426  -0.987   4.417  0.00  0.00    +0.210 HD
ENDBRANCH  14  21
BRANCH  13  23
ATOM     23  O   UNL     1      -0.321  -1.410   5.343  0.00  0.00    -0.389 OA
ATOM     24  H   UNL     1       0.355  -0.801   5.672  0.00  0.00    +0.210 HD
ENDBRANCH  13  23
BRANCH   8  25
ATOM     25  O   UNL     1      -3.567  -3.061   1.176  0.00  0.00    -0.391 OA
ATOM     26  H   UNL     1      -4.194  -3.666   0.756  0.00  0.00    +0.210 HD
ENDBRANCH   8  25
BRANCH   6  27
ATOM     27  O   UNL     1      -0.564  -2.789   0.909  0.00  0.00    -0.377 OA
ATOM     28  H   UNL     1      -0.022  -2.377   0.222  0.00  0.00    +0.211 HD
ENDBRANCH   6  27
BRANCH   2  29
ATOM     29  C   UNL     1       0.904  -0.384  -1.219  0.00  0.00    -0.000 C 
ATOM     30  C   UNL     1       1.977  -1.114  -1.038  0.00  0.00    +0.007 C 
ENDBRANCH   2  29
TORSDOF 5
