REMARK  Name = ZINC36586850
REMARK  14 active torsions:
REMARK  status: ('A' for Active; 'I' for Inactive)
REMARK    1  A    between atoms: C_1  and  C_2
REMARK    2  A    between atoms: C_2  and  C_3
REMARK    3  A    between atoms: C_2  and  C_4
REMARK    4  A    between atoms: C_2  and  N_5
REMARK    5  A    between atoms: N_5  and  C_6
REMARK    6  A    between atoms: C_6  and  C_8
REMARK    7  A    between atoms: C_6  and  C_17
REMARK    8  A    between atoms: C_11  and  O_16
REMARK    9  A    between atoms: C_12  and  O_14
REMARK   10  A    between atoms: O_14  and  C_15
REMARK   11  A    between atoms: N_19  and  C_20
REMARK   12  A    between atoms: C_26  and  C_28
REMARK   13  A    between atoms: C_29  and  O_35
REMARK   14  A    between atoms: C_33  and  O_34
REMARK                            x       y       z     vdW  Elec       q    Type
REMARK                         _______ _______ _______ _____ _____    ______ ____
ROOT
ATOM      1  C   UNL     1       3.120  -1.038  -2.044  0.00  0.00    +0.193 C 
ENDROOT
BRANCH   1   2
ATOM      2  C   UNL     1       3.990  -1.842  -1.112  0.00  0.00    -0.014 A 
ATOM      3  C   UNL     1       4.063  -1.504   0.226  0.00  0.00    +0.010 A 
ATOM      4  C   UNL     1       4.860  -2.239   1.085  0.00  0.00    +0.049 A 
ATOM      5  C   UNL     1       5.587  -3.316   0.604  0.00  0.00    +0.158 A 
ATOM      6  C   UNL     1       5.513  -3.656  -0.743  0.00  0.00    +0.162 A 
ATOM      7  C   UNL     1       4.708  -2.919  -1.597  0.00  0.00    +0.055 A 
BRANCH   6   8
ATOM      8  O   UNL     1       6.224  -4.712  -1.219  0.00  0.00    -0.491 OA
ATOM      9  C   UNL     1       6.100  -5.003  -2.613  0.00  0.00    +0.277 C 
ENDBRANCH   6   8
BRANCH   5  10
ATOM     10  O   UNL     1       6.372  -4.039   1.447  0.00  0.00    -0.503 OA
ATOM     11  H   UNL     1       5.918  -4.784   1.864  0.00  0.00    +0.292 HD
ENDBRANCH   5  10
ENDBRANCH   1   2
BRANCH   1  12
ATOM     12  C   UNL     1       3.974  -0.065  -2.814  0.00  0.00    +0.238 C 
ATOM     13  O   UNL     1       3.738   1.124  -2.760  0.00  0.00    -0.273 OA
ATOM     14  N   UNL     1       4.999  -0.515  -3.564  0.00  0.00    -0.311 N 
ATOM     15  H   UNL     1       5.188  -1.465  -3.608  0.00  0.00    +0.149 HD
BRANCH  14  16
ATOM     16  C   UNL     1       5.830   0.432  -4.313  0.00  0.00    +0.073 C 
ATOM     17  C   UNL     1       5.170   0.734  -5.660  0.00  0.00    +0.022 C 
ATOM     18  C   UNL     1       6.037   1.723  -6.442  0.00  0.00    +0.002 C 
ATOM     19  C   UNL     1       7.420   1.112  -6.678  0.00  0.00    +0.000 C 
ATOM     20  C   UNL     1       8.080   0.810  -5.331  0.00  0.00    +0.002 C 
ATOM     21  C   UNL     1       7.213  -0.178  -4.548  0.00  0.00    +0.022 C 
ENDBRANCH  14  16
ENDBRANCH   1  12
BRANCH   1  22
ATOM     22  N   UNL     1       2.121  -0.301  -1.265  0.00  0.00    -0.277 N 
ATOM     23  C   UNL     1       2.509   0.688  -0.436  0.00  0.00    +0.255 C 
ATOM     24  O   UNL     1       3.677   1.024  -0.395  0.00  0.00    -0.270 OA
BRANCH  23  25
ATOM     25  C   UNL     1       1.518   1.361   0.420  0.00  0.00    +0.119 A 
ATOM     26  C   UNL     1       1.246   0.871   1.706  0.00  0.00    +0.133 A 
ATOM     27  C   UNL     1       0.312   1.513   2.503  0.00  0.00    +0.046 A 
ATOM     28  C   UNL     1      -0.351   2.633   2.035  0.00  0.00    +0.007 A 
ATOM     29  C   UNL     1      -0.090   3.124   0.769  0.00  0.00    +0.046 A 
ATOM     30  C   UNL     1       0.844   2.501  -0.042  0.00  0.00    +0.133 A 
BRANCH  30  31
ATOM     31  O   UNL     1       1.102   2.989  -1.282  0.00  0.00    -0.506 OA
ATOM     32  H   UNL     1       0.540   2.618  -1.975  0.00  0.00    +0.292 HD
ENDBRANCH  30  31
BRANCH  26  33
ATOM     33  O   UNL     1       1.894  -0.227   2.167  0.00  0.00    -0.506 OA
ATOM     34  H   UNL     1       2.719  -0.031   2.631  0.00  0.00    +0.292 HD
ENDBRANCH  26  33
ENDBRANCH  23  25
BRANCH  22  36
ATOM     35  C   UNL     1       0.540  -1.827  -2.339  0.00  0.00    +0.031 C 
ATOM     36  C   UNL     1       0.701  -0.640  -1.388  0.00  0.00    +0.030 C 
ATOM     37  C   UNL     1      -0.065   0.564  -1.941  0.00  0.00    +0.031 C 
ATOM     38  C   UNL     1       0.144  -1.010  -0.012  0.00  0.00    +0.031 C 
ENDBRANCH  22  36
ENDBRANCH   1  22
TORSDOF 10
