REMARK  Name = ZINC45865338
REMARK  4 active torsions:
REMARK  status: ('A' for Active; 'I' for Inactive)
REMARK    1  A    between atoms: C_9  and  C_18
REMARK    2  A    between atoms: C_18  and  N_19
REMARK    3  A    between atoms: C_20  and  C_22
REMARK    4  A    between atoms: C_25  and  N_28
REMARK                            x       y       z     vdW  Elec       q    Type
REMARK                         _______ _______ _______ _____ _____    ______ ____
ROOT
ATOM      1  C   UNL     1       4.707  -2.597  -1.376  0.00  0.00    +0.109 C 
ENDROOT
BRANCH   1  10
ATOM      2  C   UNL     1       0.005   1.465  -0.063  0.00  0.00    +0.000 A 
ATOM      3  C   UNL     1       1.191   2.175  -0.071  0.00  0.00    +0.000 A 
ATOM      4  C   UNL     1       2.410   1.509  -0.079  0.00  0.00    +0.004 A 
ATOM      5  C   UNL     1       2.414   0.144  -0.077  0.00  0.00    -0.036 A 
ATOM      6  C   UNL     1       1.218  -0.572  -0.068  0.00  0.00    -0.036 A 
ATOM      7  C   UNL     1       0.017   0.076  -0.061  0.00  0.00    +0.004 A 
ATOM      8  C   UNL     1       1.391  -2.083  -0.067  0.00  0.00    +0.050 C 
ATOM      9  C   UNL     1       2.225  -2.399  -1.329  0.00  0.00    +0.018 C 
ATOM     10  C   UNL     1       3.535  -1.615  -1.339  0.00  0.00    +0.019 C 
ATOM     11  C   UNL     1       3.664  -0.722  -0.085  0.00  0.00    +0.054 C 
ATOM     12  C   UNL     1       3.505  -1.664   1.099  0.00  0.00    -0.036 A 
ATOM     13  C   UNL     1       2.310  -2.380   1.108  0.00  0.00    -0.036 A 
ATOM     14  C   UNL     1       2.032  -3.263   2.112  0.00  0.00    +0.004 A 
ATOM     15  C   UNL     1       2.964  -3.436   3.127  0.00  0.00    +0.000 A 
ATOM     16  C   UNL     1       4.150  -2.725   3.118  0.00  0.00    +0.000 A 
ATOM     17  C   UNL     1       4.426  -1.830   2.093  0.00  0.00    +0.004 A 
ENDBRANCH   1  10
BRANCH   1  18
ATOM     18  N   UNL     1       4.685  -3.338  -2.640  0.00  0.00    -0.311 N 
ATOM     19  C   UNL     1       5.629  -4.265  -2.895  0.00  0.00    +0.244 C 
ATOM     20  O   UNL     1       6.500  -4.487  -2.076  0.00  0.00    -0.270 OA
ATOM     21  H   UNL     1       3.990  -3.160  -3.293  0.00  0.00    +0.149 HD
BRANCH  19  22
ATOM     22  C   UNL     1       5.606  -5.010  -4.168  0.00  0.00    +0.037 A 
ATOM     23  C   UNL     1       4.609  -4.752  -5.113  0.00  0.00    +0.015 A 
ATOM     24  C   UNL     1       4.591  -5.449  -6.300  0.00  0.00    +0.024 A 
ATOM     25  C   UNL     1       5.564  -6.410  -6.560  0.00  0.00    +0.035 A 
ATOM     26  C   UNL     1       6.557  -6.670  -5.621  0.00  0.00    +0.024 A 
ATOM     27  C   UNL     1       6.585  -5.972  -4.435  0.00  0.00    +0.015 A 
BRANCH  25  28
ATOM     28  N   UNL     1       5.542  -7.114  -7.763  0.00  0.00    -0.270 N 
ATOM     29  C   UNL     1       4.365  -7.442  -8.331  0.00  0.00    +0.301 C 
ATOM     30  O   UNL     1       3.323  -7.052  -7.840  0.00  0.00    -0.253 OA
ATOM     31  N   UNL     1       4.342  -8.201  -9.444  0.00  0.00    -0.313 N 
ATOM     32  H   UNL     1       6.375  -7.368  -8.191  0.00  0.00    +0.156 HD
ATOM     33  H   UNL     1       5.173  -8.512  -9.837  0.00  0.00    +0.146 HD
ATOM     34  H   UNL     1       3.495  -8.437  -9.853  0.00  0.00    +0.146 HD
ENDBRANCH  25  28
ENDBRANCH  19  22
ENDBRANCH   1  18
TORSDOF 4
