REMARK  Name = ZINC16610966
REMARK  10 active torsions:
REMARK  status: ('A' for Active; 'I' for Inactive)
REMARK    1  A    between atoms: C_1  and  C_2
REMARK    2  A    between atoms: C_3  and  C_27
REMARK    3  A    between atoms: C_4  and  C_11
REMARK    4  A    between atoms: N_9  and  C_10
REMARK    5  A    between atoms: C_15  and  N_17
REMARK    6  A    between atoms: N_20  and  C_21
REMARK    7  A    between atoms: C_27  and  O_29
REMARK    8  A    between atoms: O_29  and  C_30
REMARK    9  A    between atoms: C_30  and  C_31
REMARK   10  A    between atoms: C_30  and  C_32
REMARK                            x       y       z     vdW  Elec       q    Type
REMARK                         _______ _______ _______ _____ _____    ______ ____
ROOT
ATOM      1  C   UNL     1      -2.693   2.219   2.353  0.00  0.00    -0.021 A 
ATOM      2  C   UNL     1      -3.908   1.559   2.361  0.00  0.00    +0.006 A 
ATOM      3  C   UNL     1      -4.590   1.344   1.178  0.00  0.00    +0.002 A 
ATOM      4  C   UNL     1      -4.053   1.779  -0.019  0.00  0.00    +0.023 A 
ATOM      5  C   UNL     1      -2.831   2.437  -0.031  0.00  0.00    +0.035 A 
ATOM      6  C   UNL     1      -2.151   2.656   1.160  0.00  0.00    +0.029 A 
ENDROOT
BRANCH   1  10
ATOM      7  C   UNL     1      -0.844  -0.657   5.631  0.00  0.00    +0.061 C 
ATOM      8  C   UNL     1      -1.534   0.618   5.217  0.00  0.00    +0.021 C 
ATOM      9  C   UNL     1      -1.244   1.171   4.019  0.00  0.00    +0.078 C 
ATOM     10  C   UNL     1      -1.956   2.456   3.646  0.00  0.00    +0.141 C 
ATOM     11  N   UNL     1      -2.920   2.992   4.621  0.00  0.00    -0.315 N 
ATOM     12  C   UNL     1      -3.102   2.323   5.777  0.00  0.00    +0.137 C 
ATOM     13  S   UNL     1      -4.215   2.938   6.923  0.00  0.00    -0.018 S 
ATOM     14  N   UNL     1      -2.441   1.193   6.058  0.00  0.00    -0.289 N 
ATOM     15  C   UNL     1      -2.706   0.538   7.341  0.00  0.00    +0.137 C 
ATOM     16  H   UNL     1      -3.410   3.809   4.438  0.00  0.00    +0.149 HD
BRANCH   9  17
ATOM     17  C   UNL     1      -0.303   0.576   3.147  0.00  0.00    +0.339 C 
ATOM     18  O   UNL     1       0.328  -0.400   3.507  0.00  0.00    -0.245 OA
BRANCH  17  19
ATOM     19  O   UNL     1      -0.106   1.091   1.915  0.00  0.00    -0.459 OA
BRANCH  19  20
ATOM     20  C   UNL     1       0.859   0.439   1.087  0.00  0.00    +0.171 C 
ATOM     21  C   UNL     1       2.235   1.067   1.316  0.00  0.00    +0.052 C 
ATOM     22  C   UNL     1       0.463   0.601  -0.382  0.00  0.00    +0.052 C 
ENDBRANCH  19  20
ENDBRANCH  17  19
ENDBRANCH   9  17
ENDBRANCH   1  10
BRANCH   5  23
ATOM     23  N   UNL     1      -2.285   2.879  -1.242  0.00  0.00    -0.269 N 
ATOM     24  C   UNL     1      -2.454   2.151  -2.363  0.00  0.00    +0.308 C 
ATOM     25  O   UNL     1      -3.138   1.145  -2.337  0.00  0.00    -0.252 OA
ATOM     26  N   UNL     1      -1.866   2.536  -3.512  0.00  0.00    -0.269 N 
ATOM     27  H   UNL     1      -1.784   3.709  -1.274  0.00  0.00    +0.156 HD
ATOM     28  H   UNL     1      -1.257   3.292  -3.516  0.00  0.00    +0.156 HD
BRANCH  26  29
ATOM     29  C   UNL     1      -2.132   1.847  -4.700  0.00  0.00    +0.035 A 
ATOM     30  C   UNL     1      -1.146   1.724  -5.670  0.00  0.00    +0.023 A 
ATOM     31  C   UNL     1      -1.411   1.038  -6.839  0.00  0.00    +0.002 A 
ATOM     32  C   UNL     1      -2.660   0.483  -7.050  0.00  0.00    +0.000 A 
ATOM     33  C   UNL     1      -3.646   0.609  -6.088  0.00  0.00    +0.002 A 
ATOM     34  C   UNL     1      -3.386   1.289  -4.915  0.00  0.00    +0.023 A 
ENDBRANCH  26  29
ENDBRANCH   5  23
TORSDOF 6
