REMARK  Name = ZINC51088666
REMARK  3 active torsions:
REMARK  status: ('A' for Active; 'I' for Inactive)
REMARK    1  A    between atoms: C_6  and  C_7
REMARK    2  A    between atoms: N_9  and  C_10
REMARK    3  A    between atoms: N_15  and  N_16
REMARK                            x       y       z     vdW  Elec       q    Type
REMARK                         _______ _______ _______ _____ _____    ______ ____
ROOT
ATOM      1  C   UNL     1      -0.073   1.280   0.021  0.00  0.00    +0.033 A 
ATOM      2  C   UNL     1       1.069   2.063   0.022  0.00  0.00    +0.037 A 
ATOM      3  C   UNL     1       2.312   1.455  -0.005  0.00  0.00    +0.128 A 
ATOM      4  N   UNL     1       2.429   0.141  -0.032  0.00  0.00    -0.237 NA
ATOM      5  C   UNL     1       1.372  -0.654  -0.035  0.00  0.00    +0.145 A 
ATOM      6  C   UNL     1       0.075  -0.112  -0.008  0.00  0.00    +0.083 A 
ATOM      7  N   UNL     1       1.543  -2.027  -0.064  0.00  0.00    -0.267 N 
ATOM      8 BR   UNL     1       0.931   3.949   0.060  0.00  0.00    -0.049 Br
ATOM      9  H   UNL     1       0.774  -2.614   0.013  0.00  0.00    +0.167 HD
ENDROOT
BRANCH   6  10
ATOM     10  C   UNL     1      -1.106  -0.992  -0.010  0.00  0.00    +0.283 C 
ATOM     11  O   UNL     1      -2.346  -0.459  -0.101  0.00  0.00    -0.265 OA
ATOM     12  N   UNL     1      -0.955  -2.293   0.077  0.00  0.00    -0.181 NA
BRANCH  12  13
ATOM     13  C   UNL     1      -2.045  -3.106   0.075  0.00  0.00    +0.218 A 
ATOM     14  N   UNL     1      -3.340  -2.803  -0.011  0.00  0.00    -0.122 NA
ATOM     15  N   UNL     1      -4.231  -3.696   0.002  0.00  0.00    -0.148 NA
ATOM     16  C   UNL     1      -3.939  -4.978   0.100  0.00  0.00    +0.183 A 
ATOM     17  S   UNL     1      -2.152  -4.890   0.178  0.00  0.00    -0.034 S 
ENDBRANCH  12  13
ENDBRANCH   6  10
BRANCH   7  18
ATOM     18  N   UNL     1       2.795  -2.557  -0.202  0.00  0.00    -0.255 NA
ATOM     19  H   UNL     1       3.412  -2.218   0.521  0.00  0.00    +0.140 HD
ATOM     20  H   UNL     1       2.763  -3.565  -0.206  0.00  0.00    +0.140 HD
ENDBRANCH   7  18
TORSDOF 3
