REMARK  Name = ZINC33728437
REMARK  7 active torsions:
REMARK  status: ('A' for Active; 'I' for Inactive)
REMARK    1  A    between atoms: C_6  and  N_7
REMARK    2  A    between atoms: C_8  and  N_32
REMARK    3  A    between atoms: C_13  and  S_14
REMARK    4  A    between atoms: S_14  and  C_15
REMARK    5  A    between atoms: C_15  and  C_16
REMARK    6  A    between atoms: N_18  and  C_19
REMARK    7  A    between atoms: C_20  and  C_30
REMARK                            x       y       z     vdW  Elec       q    Type
REMARK                         _______ _______ _______ _____ _____    ______ ____
ROOT
ATOM      1  S   UNL     1      -2.391   1.698   0.243  0.00  0.00    -0.078 S 
ENDROOT
BRANCH   1   8
ATOM      2  N   UNL     1      -1.202  -0.722  -0.001  0.00  0.00    -0.277 N 
ATOM      3  C   UNL     1      -1.182  -2.090  -0.095  0.00  0.00    +0.108 A 
ATOM      4  C   UNL     1      -2.364  -2.773  -0.074  0.00  0.00    +0.114 A 
ATOM      5  C   UNL     1      -3.567  -2.049   0.045  0.00  0.00    +0.276 A 
ATOM      6  O   UNL     1      -4.638  -2.638   0.067  0.00  0.00    -0.266 OA
ATOM      7  N   UNL     1      -3.533  -0.710   0.134  0.00  0.00    -0.185 NA
ATOM      8  C   UNL     1      -2.389  -0.059   0.117  0.00  0.00    +0.179 A 
BRANCH   2  14
ATOM      9  C   UNL     1       0.654   0.294   1.168  0.00  0.00    +0.028 A 
ATOM     10  C   UNL     1       1.839   1.002   1.145  0.00  0.00    +0.022 A 
ATOM     11  C   UNL     1       2.376   1.417  -0.061  0.00  0.00    +0.041 A 
ATOM     12  C   UNL     1       1.727   1.124  -1.247  0.00  0.00    +0.022 A 
ATOM     13  C   UNL     1       0.541   0.416  -1.230  0.00  0.00    +0.028 A 
ATOM     14  C   UNL     1       0.001  -0.002  -0.021  0.00  0.00    +0.050 A 
ATOM     15 CL   UNL     1       3.866   2.308  -0.086  0.00  0.00    -0.084 Cl
ENDBRANCH   2  14
BRANCH   3  16
ATOM     16  N   UNL     1       0.011  -2.765  -0.210  0.00  0.00    -0.344 N 
ATOM     17  H   UNL     1       0.850  -2.282  -0.144  0.00  0.00    +0.144 HD
ATOM     18  H   UNL     1       0.014  -3.724  -0.357  0.00  0.00    +0.144 HD
ENDBRANCH   3  16
ENDBRANCH   1   8
BRANCH   1  19
ATOM     19  C   UNL     1      -4.149   2.126   0.379  0.00  0.00    +0.173 C 
BRANCH  19  20
ATOM     20  C   UNL     1      -4.294   3.622   0.495  0.00  0.00    +0.228 C 
ATOM     21  O   UNL     1      -3.309   4.329   0.487  0.00  0.00    -0.275 OA
ATOM     22  N   UNL     1      -5.518   4.173   0.608  0.00  0.00    -0.278 N 
ATOM     23  H   UNL     1      -6.306   3.608   0.614  0.00  0.00    +0.155 HD
BRANCH  22  24
ATOM     24  C   UNL     1      -5.652   5.551   0.715  0.00  0.00    +0.090 A 
ATOM     25  C   UNL     1      -6.813   6.284   0.842  0.00  0.00    +0.084 A 
ATOM     26  C   UNL     1      -6.700   7.744   0.934  0.00  0.00    -0.018 A 
ATOM     27  C   UNL     1      -5.428   8.175   0.851  0.00  0.00    -0.004 A 
ATOM     28  S   UNL     1      -4.439   6.709   0.726  0.00  0.00    -0.077 S 
ATOM     29  C   UNL     1      -4.925   9.591   0.810  0.00  0.00    +0.043 C 
ATOM     30  C   UNL     1      -5.147  10.111  -0.622  0.00  0.00    +0.005 C 
ATOM     31  C   UNL     1      -6.622   9.905  -0.983  0.00  0.00    +0.000 C 
ATOM     32  C   UNL     1      -7.405  10.745   0.005  0.00  0.00    +0.000 C 
ATOM     33  C   UNL     1      -7.647  10.059   1.337  0.00  0.00    +0.005 C 
ATOM     34  C   UNL     1      -7.957   8.576   1.170  0.00  0.00    +0.037 C 
BRANCH  25  35
ATOM     35  C   UNL     1      -8.091   5.640   0.883  0.00  0.00    +0.102 C 
ATOM     36  N   UNL     1      -9.105   5.129   0.916  0.00  0.00    -0.191 NA
ENDBRANCH  25  35
ENDBRANCH  22  24
ENDBRANCH  19  20
ENDBRANCH   1  19
TORSDOF 7
