REMARK  Name = ZINC04322530
REMARK  4 active torsions:
REMARK  status: ('A' for Active; 'I' for Inactive)
REMARK    1  A    between atoms: C_4  and  O_28
REMARK    2  A    between atoms: C_5  and  C_7
REMARK    3  A    between atoms: N_8  and  N_9
REMARK    4  A    between atoms: N_11  and  C_12
REMARK                            x       y       z     vdW  Elec       q    Type
REMARK                         _______ _______ _______ _____ _____    ______ ____
ROOT
ATOM      1  N   UNL     1       2.412  -4.186  -0.046  0.00  0.00    -0.258 N 
ATOM      2  C   UNL     1       3.608  -4.847  -0.062  0.00  0.00    +0.159 C 
ATOM      3  N   UNL     1       3.634  -6.215  -0.071  0.00  0.00    -0.320 N 
ATOM      4  S   UNL     1       5.030  -3.990  -0.071  0.00  0.00    -0.015 SA
ATOM      5  H   UNL     1       2.803  -6.715  -0.066  0.00  0.00    +0.148 HD
ATOM      6  H   UNL     1       1.581  -4.686  -0.041  0.00  0.00    +0.191 HD
ENDROOT
BRANCH   3   7
ATOM      7  C   UNL     1       4.916  -6.923  -0.088  0.00  0.00    +0.076 C 
ATOM      8  C   UNL     1       5.432  -7.123   1.363  0.00  0.00    +0.026 C 
ATOM      9  C   UNL     1       5.820  -8.662   1.367  0.00  0.00    -0.005 C 
ATOM     10  C   UNL     1       4.499  -9.162   0.639  0.00  0.00    +0.009 C 
ATOM     11  C   UNL     1       4.733  -8.329  -0.692  0.00  0.00    +0.017 C 
ATOM     12  C   UNL     1       6.059  -8.978  -1.064  0.00  0.00    +0.020 C 
ATOM     13  C   UNL     1       6.850  -8.650   0.292  0.00  0.00    +0.003 C 
ATOM     14  C   UNL     1       8.203  -9.099  -0.052  0.00  0.00    +0.031 C 
ATOM     15  C   UNL     1       8.312  -8.485  -1.466  0.00  0.00    -0.030 C 
ATOM     16  C   UNL     1       7.025  -8.397  -2.039  0.00  0.00    -0.027 C 
ENDBRANCH   3   7
BRANCH   1  18
ATOM     17  C   UNL     1       1.250  -2.157  -0.023  0.00  0.00    +0.144 C 
ATOM     18  N   UNL     1       2.385  -2.785  -0.038  0.00  0.00    -0.180 NA
BRANCH  17  23
ATOM     19  C   UNL     1      -0.017   1.375   0.010  0.00  0.00    +0.001 A 
ATOM     20  C   UNL     1       1.169   2.089   0.002  0.00  0.00    +0.004 A 
ATOM     21  C   UNL     1       2.383   1.428  -0.013  0.00  0.00    +0.046 A 
ATOM     22  C   UNL     1       2.420   0.043  -0.021  0.00  0.00    +0.125 A 
ATOM     23  C   UNL     1       1.222  -0.684  -0.014  0.00  0.00    +0.036 A 
ATOM     24  C   UNL     1       0.002  -0.004   0.002  0.00  0.00    +0.013 A 
BRANCH  22  25
ATOM     25  O   UNL     1       3.612  -0.607  -0.037  0.00  0.00    -0.506 OA
ATOM     26  H   UNL     1       3.967  -0.800   0.842  0.00  0.00    +0.292 HD
ENDBRANCH  22  25
ENDBRANCH  17  23
ENDBRANCH   1  18
TORSDOF 4
