REMARK  Name = ZINC54503325
REMARK  9 active torsions:
REMARK  status: ('A' for Active; 'I' for Inactive)
REMARK    1  A    between atoms: C_1  and  C_2
REMARK    2  A    between atoms: C_2  and  C_3
REMARK    3  A    between atoms: C_3  and  N_15
REMARK    4  A    between atoms: N_7  and  C_14
REMARK    5  A    between atoms: N_10  and  C_13
REMARK    6  A    between atoms: N_15  and  C_16
REMARK    7  A    between atoms: C_16  and  C_17
REMARK    8  A    between atoms: C_20  and  S_23
REMARK    9  A    between atoms: S_23  and  N_26
REMARK                            x       y       z     vdW  Elec       q    Type
REMARK                         _______ _______ _______ _____ _____    ______ ____
ROOT
ATOM      1  N   UNL     1      -1.988  -0.793   1.202  0.00  0.00    -0.342 N 
ATOM      2  H   UNL     1      -2.858  -1.222   1.234  0.00  0.00    +0.146 HD
ENDROOT
BRANCH   1   3
ATOM      3  C   UNL     1      -1.412  -0.526   0.013  0.00  0.00    +0.021 C 
ATOM      4  C   UNL     1      -2.109  -0.752  -1.160  0.00  0.00    +0.116 C 
ATOM      5  C   UNL     1      -1.461  -0.622  -2.477  0.00  0.00    +0.260 C 
ATOM      6  O   UNL     1      -0.288  -0.311  -2.568  0.00  0.00    -0.269 OA
ATOM      7  N   UNL     1      -2.203  -0.858  -3.579  0.00  0.00    -0.224 N 
ATOM      8  C   UNL     1      -3.496  -1.201  -3.492  0.00  0.00    +0.317 C 
ATOM      9  O   UNL     1      -4.108  -1.400  -4.523  0.00  0.00    -0.252 OA
ATOM     10  N   UNL     1      -4.148  -1.337  -2.329  0.00  0.00    -0.224 N 
ATOM     11  C   UNL     1      -3.531  -1.139  -1.147  0.00  0.00    +0.260 C 
ATOM     12  O   UNL     1      -4.133  -1.271  -0.097  0.00  0.00    -0.269 OA
ATOM     13  C   UNL     1      -5.563  -1.716  -2.343  0.00  0.00    +0.143 C 
ATOM     14  C   UNL     1      -1.582  -0.735  -4.900  0.00  0.00    +0.143 C 
BRANCH   3  16
ATOM     15  C   UNL     1       0.987  -1.140  -0.121  0.00  0.00    +0.010 C 
ATOM     16  C   UNL     1      -0.008   0.020  -0.039  0.00  0.00    +0.048 C 
ENDBRANCH   3  16
ENDBRANCH   1   3
BRANCH   1  17
ATOM     17  C   UNL     1      -1.300  -0.437   2.445  0.00  0.00    +0.136 C 
BRANCH  17  18
ATOM     18  C   UNL     1      -2.151  -0.840   3.623  0.00  0.00    -0.030 A 
ATOM     19  C   UNL     1      -3.074   0.047   4.144  0.00  0.00    +0.007 A 
ATOM     20  C   UNL     1      -3.854  -0.323   5.224  0.00  0.00    +0.029 A 
ATOM     21  C   UNL     1      -3.711  -1.579   5.782  0.00  0.00    +0.105 A 
ATOM     22  C   UNL     1      -2.788  -2.467   5.260  0.00  0.00    +0.029 A 
ATOM     23  C   UNL     1      -2.011  -2.099   4.177  0.00  0.00    +0.007 A 
BRANCH  21  24
ATOM     24  S   UNL     1      -4.705  -2.050   7.159  0.00  0.00    +0.056 S 
ATOM     25  O   UNL     1      -3.996  -3.078   7.838  0.00  0.00    -0.153 OA
ATOM     26  O   UNL     1      -5.104  -0.847   7.801  0.00  0.00    -0.153 OA
BRANCH  24  27
ATOM     27  N   UNL     1      -6.081  -2.744   6.555  0.00  0.00    -0.204 NA
ATOM     28  H   UNL     1      -6.540  -3.433   7.061  0.00  0.00    +0.144 HD
ATOM     29  H   UNL     1      -6.429  -2.462   5.694  0.00  0.00    +0.144 HD
ENDBRANCH  24  27
ENDBRANCH  21  24
ENDBRANCH  17  18
ENDBRANCH   1  17
TORSDOF 6
