REMARK  Name = ZINC44245184
REMARK  3 active torsions:
REMARK  status: ('A' for Active; 'I' for Inactive)
REMARK    1  A    between atoms: C_9  and  N_10
REMARK    2  A    between atoms: N_10  and  S_11
REMARK    3  A    between atoms: S_11  and  C_14
REMARK                            x       y       z     vdW  Elec       q    Type
REMARK                         _______ _______ _______ _____ _____    ______ ____
ROOT
ATOM      1  N   UNL     1      -1.208  -0.708   0.010  0.00  0.00    -0.098 NA
ENDROOT
BRANCH   1  10
ATOM      2  C   UNL     1      -0.017   1.390   0.010  0.00  0.00    +0.028 A 
ATOM      3  C   UNL     1       1.175   2.085   0.002  0.00  0.00    +0.017 A 
ATOM      4  C   UNL     1       2.369   1.396  -0.013  0.00  0.00    +0.019 A 
ATOM      5  C   UNL     1       2.426  -0.014  -0.021  0.00  0.00    -0.009 A 
ATOM      6  C   UNL     1       3.772  -0.568  -0.037  0.00  0.00    +0.016 A 
ATOM      7  C   UNL     1       4.824   0.264  -0.043  0.00  0.00    +0.046 A 
ATOM      8  S   UNL     1       4.076   1.882  -0.027  0.00  0.00    -0.097 S 
ATOM      9  C   UNL     1       1.188  -0.701  -0.013  0.00  0.00    +0.035 A 
ATOM     10  C   UNL     1       0.002  -0.004   0.002  0.00  0.00    +0.075 A 
ENDBRANCH   1  10
BRANCH   1  11
ATOM     11  S   UNL     1      -2.644   0.116   0.029  0.00  0.00    +0.093 S 
ATOM     12  O   UNL     1      -2.711   0.789   1.279  0.00  0.00    -0.148 OA
ATOM     13  O   UNL     1      -2.735   0.802  -1.212  0.00  0.00    -0.148 OA
BRANCH  11  14
ATOM     14  C   UNL     1      -3.933  -1.085   0.035  0.00  0.00    +0.129 A 
ATOM     15  C   UNL     1      -4.455  -1.562  -1.158  0.00  0.00    +0.047 A 
ATOM     16  C   UNL     1      -5.469  -2.507  -1.104  0.00  0.00    +0.038 A 
ATOM     17  C   UNL     1      -5.922  -2.939   0.129  0.00  0.00    +0.126 A 
ATOM     18  N   UNL     1      -5.402  -2.464   1.243  0.00  0.00    -0.260 NA
ATOM     19  C   UNL     1      -4.433  -1.569   1.230  0.00  0.00    +0.139 A 
ATOM     20 BR   UNL     1      -6.222  -3.195  -2.697  0.00  0.00    -0.049 Br
ENDBRANCH  11  14
ENDBRANCH   1  11
TORSDOF 3
