REMARK  Name = ZINC45379829
REMARK  9 active torsions:
REMARK  status: ('A' for Active; 'I' for Inactive)
REMARK    1  A    between atoms: C_1  and  C_2
REMARK    2  A    between atoms: C_2  and  C_4
REMARK    3  A    between atoms: C_2  and  N_13
REMARK    4  A    between atoms: C_4  and  C_5
REMARK    5  A    between atoms: C_5  and  C_6
REMARK    6  A    between atoms: C_9  and  O_12
REMARK    7  A    between atoms: N_16  and  N_17
REMARK    8  A    between atoms: C_18  and  C_20
REMARK    9  A    between atoms: C_20  and  C_21
REMARK                            x       y       z     vdW  Elec       q    Type
REMARK                         _______ _______ _______ _____ _____    ______ ____
ROOT
ATOM      1  N   UNL     1      -1.372  -0.511   0.012  0.00  0.00    -0.296 N 
ATOM      2  C   UNL     1      -2.051  -0.643  -1.145  0.00  0.00    +0.316 C 
ATOM      3  O   UNL     1      -1.522  -0.341  -2.197  0.00  0.00    -0.251 OA
ATOM      4  N   UNL     1      -3.315  -1.109  -1.135  0.00  0.00    -0.218 N 
ATOM      5  H   UNL     1      -1.794  -0.752   0.852  0.00  0.00    +0.151 HD
ATOM      6  H   UNL     1      -3.804  -1.204  -1.968  0.00  0.00    +0.174 HD
ENDROOT
BRANCH   4   7
ATOM      7  N   UNL     1      -3.924  -1.457   0.078  0.00  0.00    -0.233 N 
ATOM      8  C   UNL     1      -5.189  -1.924   0.087  0.00  0.00    +0.233 C 
ATOM      9  O   UNL     1      -5.799  -2.042  -0.954  0.00  0.00    -0.274 OA
ATOM     10  H   UNL     1      -3.436  -1.363   0.910  0.00  0.00    +0.173 HD
BRANCH   8  11
ATOM     11  C   UNL     1      -5.844  -2.298   1.392  0.00  0.00    +0.133 C 
BRANCH  11  12
ATOM     12  C   UNL     1      -7.245  -2.787   1.128  0.00  0.00    -0.031 A 
ATOM     13  C   UNL     1      -8.297  -1.928   1.215  0.00  0.00    +0.005 A 
ATOM     14  C   UNL     1      -9.599  -2.362   0.975  0.00  0.00    +0.001 A 
ATOM     15  C   UNL     1      -9.857  -3.657   0.647  0.00  0.00    +0.008 A 
ATOM     16  C   UNL     1      -8.796  -4.574   0.547  0.00  0.00    -0.018 A 
ATOM     17  C   UNL     1      -7.471  -4.131   0.785  0.00  0.00    -0.014 A 
ATOM     18  C   UNL     1      -6.410  -5.046   0.680  0.00  0.00    +0.009 A 
ATOM     19  C   UNL     1      -6.667  -6.340   0.346  0.00  0.00    +0.001 A 
ATOM     20  C   UNL     1      -7.970  -6.774   0.105  0.00  0.00    +0.001 A 
ATOM     21  C   UNL     1      -9.024  -5.919   0.211  0.00  0.00    +0.008 A 
ENDBRANCH  11  12
ENDBRANCH   8  11
ENDBRANCH   4   7
BRANCH   1  23
ATOM     22  C   UNL     1      -0.019   1.526   0.010  0.00  0.00    +0.028 C 
ATOM     23  C   UNL     1       0.002  -0.004   0.002  0.00  0.00    +0.072 C 
BRANCH  23  24
ATOM     24  C   UNL     1       0.742  -0.511   1.242  0.00  0.00    +0.026 C 
BRANCH  24  25
ATOM     25  C   UNL     1       0.872  -2.034   1.171  0.00  0.00    +0.037 C 
BRANCH  25  26
ATOM     26  C   UNL     1       1.601  -2.533   2.392  0.00  0.00    -0.047 A 
ATOM     27  C   UNL     1       2.979  -2.640   2.377  0.00  0.00    +0.007 A 
ATOM     28  C   UNL     1       3.650  -3.098   3.494  0.00  0.00    +0.045 A 
ATOM     29  C   UNL     1       2.939  -3.450   4.633  0.00  0.00    +0.117 A 
ATOM     30  C   UNL     1       1.556  -3.341   4.645  0.00  0.00    +0.045 A 
ATOM     31  C   UNL     1       0.890  -2.877   3.527  0.00  0.00    +0.007 A 
BRANCH  29  32
ATOM     32  O   UNL     1       3.596  -3.901   5.734  0.00  0.00    -0.507 OA
ATOM     33  H   UNL     1       3.855  -3.203   6.351  0.00  0.00    +0.292 HD
ENDBRANCH  29  32
ENDBRANCH  25  26
ENDBRANCH  24  25
ENDBRANCH  23  24
ENDBRANCH   1  23
TORSDOF 8
