REMARK  Name = ZINC18099760
REMARK  9 active torsions:
REMARK  status: ('A' for Active; 'I' for Inactive)
REMARK    1  A    between atoms: C_1  and  C_2
REMARK    2  A    between atoms: C_2  and  O_3
REMARK    3  A    between atoms: O_3  and  C_4
REMARK    4  A    between atoms: C_7  and  N_10
REMARK    5  A    between atoms: C_11  and  C_13
REMARK    6  A    between atoms: C_13  and  S_14
REMARK    7  A    between atoms: S_14  and  C_15
REMARK    8  A    between atoms: C_17  and  N_28
REMARK    9  A    between atoms: C_18  and  C_22
REMARK                            x       y       z     vdW  Elec       q    Type
REMARK                         _______ _______ _______ _____ _____    ______ ____
ROOT
ATOM      1  C   UNL     1       2.371 -10.044  -4.913  0.00  0.00    +0.171 A 
ATOM      2  N   UNL     1       1.827 -10.737  -3.933  0.00  0.00    -0.208 NA
ATOM      3  C   UNL     1       1.760 -12.070  -3.978  0.00  0.00    +0.132 A 
ATOM      4  C   UNL     1       2.277 -12.751  -5.087  0.00  0.00    +0.086 A 
ATOM      5  C   UNL     1       2.856 -11.997  -6.129  0.00  0.00    +0.262 A 
ATOM      6  O   UNL     1       3.318 -12.550  -7.114  0.00  0.00    -0.267 OA
ATOM      7  N   UNL     1       2.884 -10.652  -6.018  0.00  0.00    -0.301 N 
ATOM      8  H   UNL     1       3.275 -10.117  -6.726  0.00  0.00    +0.171 HD
ENDROOT
BRANCH   4   9
ATOM      9  C   UNL     1       2.217 -14.228  -5.164  0.00  0.00    -0.009 A 
ATOM     10  C   UNL     1       2.926 -15.006  -4.249  0.00  0.00    +0.009 A 
ATOM     11  C   UNL     1       2.865 -16.383  -4.325  0.00  0.00    +0.001 A 
ATOM     12  C   UNL     1       2.104 -16.991  -5.307  0.00  0.00    +0.000 A 
ATOM     13  C   UNL     1       1.399 -16.225  -6.218  0.00  0.00    +0.001 A 
ATOM     14  C   UNL     1       1.446 -14.847  -6.148  0.00  0.00    +0.009 A 
ENDBRANCH   4   9
BRANCH   3  15
ATOM     15  N   UNL     1       1.186 -12.771  -2.939  0.00  0.00    -0.342 N 
ATOM     16  H   UNL     1       0.829 -12.296  -2.172  0.00  0.00    +0.144 HD
ATOM     17  H   UNL     1       1.139 -13.739  -2.975  0.00  0.00    +0.144 HD
ENDBRANCH   3  15
BRANCH   1  18
ATOM     18  S   UNL     1       2.429  -8.287  -4.794  0.00  0.00    -0.078 S 
BRANCH  18  19
ATOM     19  C   UNL     1       1.651  -7.929  -3.195  0.00  0.00    +0.173 C 
BRANCH  19  21
ATOM     20  N   UNL     1       1.102  -5.938  -1.834  0.00  0.00    -0.285 N 
ATOM     21  C   UNL     1       1.635  -6.440  -2.966  0.00  0.00    +0.227 C 
ATOM     22  O   UNL     1       2.103  -5.694  -3.799  0.00  0.00    -0.275 OA
ATOM     23  H   UNL     1       0.797  -6.536  -1.135  0.00  0.00    +0.155 HD
BRANCH  20  27
ATOM     24  C   UNL     1       0.759  -1.811  -1.344  0.00  0.00    +0.121 A 
ATOM     25  C   UNL     1       0.629  -2.373  -2.606  0.00  0.00    +0.047 A 
ATOM     26  C   UNL     1       0.743  -3.739  -2.769  0.00  0.00    +0.027 A 
ATOM     27  C   UNL     1       0.987  -4.551  -1.670  0.00  0.00    +0.034 A 
ATOM     28  C   UNL     1       1.117  -3.989  -0.407  0.00  0.00    +0.027 A 
ATOM     29  C   UNL     1       1.009  -2.622  -0.246  0.00  0.00    +0.047 A 
BRANCH  24  30
ATOM     30  O   UNL     1       0.648  -0.466  -1.184  0.00  0.00    -0.492 OA
BRANCH  30  32
ATOM     31  C   UNL     1       0.297   1.788  -1.982  0.00  0.00    +0.048 C 
ATOM     32  C   UNL     1       0.390   0.308  -2.357  0.00  0.00    +0.225 C 
ENDBRANCH  30  32
ENDBRANCH  24  30
ENDBRANCH  20  27
ENDBRANCH  19  21
ENDBRANCH  18  19
ENDBRANCH   1  18
TORSDOF 8
