REMARK  Name = ZINC12375346
REMARK  4 active torsions:
REMARK  status: ('A' for Active; 'I' for Inactive)
REMARK    1  A    between atoms: C_5  and  C_7
REMARK    2  A    between atoms: N_9  and  C_10
REMARK    3  A    between atoms: C_10  and  C_30
REMARK    4  A    between atoms: N_18  and  C_23
REMARK                            x       y       z     vdW  Elec       q    Type
REMARK                         _______ _______ _______ _____ _____    ______ ____
ROOT
ATOM      1  C   UNL     1       2.464   1.270  -0.073  0.00  0.00    +0.240 C 
ATOM      2  C   UNL     1       3.580   2.281   0.038  0.00  0.00    +0.096 A 
ATOM      3  C   UNL     1       3.969   3.373  -0.744  0.00  0.00    +0.260 A 
ATOM      4  O   UNL     1       3.348   3.657  -1.754  0.00  0.00    -0.267 OA
ATOM      5  N   UNL     1       5.039   4.107  -0.373  0.00  0.00    -0.302 N 
ATOM      6  H   UNL     1       5.316   4.865  -0.910  0.00  0.00    +0.171 HD
ATOM      7  C   UNL     1       5.722   3.789   0.743  0.00  0.00    +0.167 A 
ATOM      8  S   UNL     1       7.075   4.736   1.194  0.00  0.00    -0.012 S 
ATOM      9  N   UNL     1       5.364   2.746   1.510  0.00  0.00    -0.274 N 
ATOM     10  C   UNL     1       4.277   1.966   1.171  0.00  0.00    +0.123 A 
ATOM     11  N   UNL     1       3.734   0.867   1.792  0.00  0.00    -0.269 N 
ATOM     12  C   UNL     1       2.663   0.383   1.139  0.00  0.00    +0.256 C 
ATOM     13  O   UNL     1       1.989  -0.573   1.458  0.00  0.00    -0.272 OA
ATOM     14  H   UNL     1       4.084   0.484   2.612  0.00  0.00    +0.156 HD
ENDROOT
BRANCH   9  15
ATOM     15  C   UNL     1       6.100   2.447   2.664  0.00  0.00    +0.085 A 
ATOM     16  C   UNL     1       7.178   1.576   2.596  0.00  0.00    +0.029 A 
ATOM     17  C   UNL     1       7.905   1.288   3.735  0.00  0.00    +0.002 A 
ATOM     18  C   UNL     1       7.554   1.857   4.945  0.00  0.00    +0.003 A 
ATOM     19  C   UNL     1       6.478   2.722   5.019  0.00  0.00    +0.040 A 
ATOM     20  C   UNL     1       5.748   3.019   3.882  0.00  0.00    +0.147 A 
ATOM     21  F   UNL     1       4.697   3.864   3.955  0.00  0.00    -0.203 F 
ENDBRANCH   9  15
BRANCH   1  24
ATOM     22  C   UNL     1       0.872   2.773   0.997  0.00  0.00    +0.248 C 
ATOM     23  O   UNL     1       1.655   2.903   1.918  0.00  0.00    -0.270 OA
ATOM     24  N   UNL     1       1.159   1.934  -0.018  0.00  0.00    -0.287 N 
ATOM     25  H   UNL     1       0.501   1.770  -0.712  0.00  0.00    +0.151 HD
BRANCH  22  30
ATOM     26  C   UNL     1      -2.479   4.095  -0.060  0.00  0.00    +0.001 A 
ATOM     27  C   UNL     1      -2.775   4.952   0.986  0.00  0.00    +0.003 A 
ATOM     28  C   UNL     1      -1.889   5.103   2.036  0.00  0.00    +0.039 A 
ATOM     29  C   UNL     1      -0.699   4.398   2.048  0.00  0.00    +0.135 A 
ATOM     30  C   UNL     1      -0.396   3.531   0.994  0.00  0.00    +0.072 A 
ATOM     31  C   UNL     1      -1.295   3.389  -0.066  0.00  0.00    +0.016 A 
ATOM     32  F   UNL     1       0.167   4.546   3.074  0.00  0.00    -0.205 F 
ENDBRANCH  22  30
ENDBRANCH   1  24
BRANCH   1  33
ATOM     33  C   UNL     1       2.599   0.458  -1.363  0.00  0.00    +0.424 C 
ATOM     34  F   UNL     1       2.567   1.322  -2.463  0.00  0.00    -0.167 F 
ATOM     35  F   UNL     1       3.812  -0.237  -1.351  0.00  0.00    -0.167 F 
ATOM     36  F   UNL     1       1.540  -0.452  -1.454  0.00  0.00    -0.167 F 
ENDBRANCH   1  33
TORSDOF 4
