REMARK  Name = ZINC52011739
REMARK  4 active torsions:
REMARK  status: ('A' for Active; 'I' for Inactive)
REMARK    1  A    between atoms: C_4  and  C_7
REMARK    2  A    between atoms: C_4  and  N_10
REMARK    3  A    between atoms: N_13  and  C_14
REMARK    4  A    between atoms: C_20  and  O_22
REMARK                            x       y       z     vdW  Elec       q    Type
REMARK                         _______ _______ _______ _____ _____    ______ ____
ROOT
ATOM      1  N   UNL     1       2.863  -0.454   0.025  0.00  0.00    -0.284 N 
ATOM      2  C   UNL     1       3.002  -1.776  -0.196  0.00  0.00    +0.301 C 
ATOM      3  O   UNL     1       2.559  -2.576   0.604  0.00  0.00    -0.253 OA
ATOM      4  N   UNL     1       3.633  -2.211  -1.305  0.00  0.00    -0.294 N 
ATOM      5  H   UNL     1       3.217   0.185  -0.613  0.00  0.00    +0.151 HD
ATOM      6  H   UNL     1       3.987  -1.572  -1.944  0.00  0.00    +0.151 HD
ENDROOT
BRANCH   1  10
ATOM      7  C   UNL     1      -0.019   1.526   0.010  0.00  0.00    +0.000 C 
ATOM      8  C   UNL     1       1.417   2.055  -0.000  0.00  0.00    +0.003 C 
ATOM      9  C   UNL     1       2.157   1.548   1.239  0.00  0.00    +0.037 C 
ATOM     10  C   UNL     1       2.178   0.019   1.231  0.00  0.00    +0.137 C 
ATOM     11  C   UNL     1       0.742  -0.511   1.242  0.00  0.00    +0.037 C 
ATOM     12  C   UNL     1       0.002  -0.004   0.002  0.00  0.00    +0.003 C 
BRANCH  10  13
ATOM     13  C   UNL     1       2.906  -0.480   2.452  0.00  0.00    +0.379 C 
ATOM     14  O   UNL     1       2.496  -0.198   3.564  0.00  0.00    -0.244 OA
ATOM     15  O   UNL     1       3.906  -1.167   2.326  0.00  0.00    -0.244 OA
ENDBRANCH  10  13
ENDBRANCH   1  10
BRANCH   4  16
ATOM     16  C   UNL     1       3.784  -3.648  -1.546  0.00  0.00    +0.103 C 
ATOM     17  C   UNL     1       5.027  -4.159  -0.816  0.00  0.00    +0.025 C 
ATOM     18  C   UNL     1       6.264  -3.422  -1.335  0.00  0.00    +0.002 C 
ATOM     19  C   UNL     1       6.414  -3.675  -2.837  0.00  0.00    +0.003 C 
ATOM     20  C   UNL     1       5.171  -3.163  -3.567  0.00  0.00    +0.033 C 
ATOM     21  C   UNL     1       3.935  -3.900  -3.048  0.00  0.00    +0.135 C 
BRANCH  21  22
ATOM     22  O   UNL     1       2.773  -3.422  -3.730  0.00  0.00    -0.390 OA
ATOM     23  H   UNL     1       2.800  -3.550  -4.688  0.00  0.00    +0.210 HD
ENDBRANCH  21  22
ENDBRANCH   4  16
TORSDOF 4
