REMARK  Name = ZINC13567612
REMARK  6 active torsions:
REMARK  status: ('A' for Active; 'I' for Inactive)
REMARK    1  A    between atoms: C_1  and  C_2
REMARK    2  A    between atoms: C_2  and  C_3
REMARK    3  A    between atoms: C_3  and  N_4
REMARK    4  A    between atoms: C_14  and  C_32
REMARK    5  A    between atoms: C_15  and  N_31
REMARK    6  A    between atoms: N_16  and  C_24
REMARK                            x       y       z     vdW  Elec       q    Type
REMARK                         _______ _______ _______ _____ _____    ______ ____
ROOT
ATOM      1  N   UNL     1      -3.376   0.901   2.388  0.00  0.00    -0.270 N 
ATOM      2  C   UNL     1      -4.590   1.561   2.339  0.00  0.00    +0.041 A 
ATOM      3  C   UNL     1      -5.348   1.944   1.231  0.00  0.00    +0.024 A 
ATOM      4  C   UNL     1      -6.543   2.601   1.476  0.00  0.00    +0.002 A 
ATOM      5  C   UNL     1      -6.979   2.871   2.757  0.00  0.00    +0.000 A 
ATOM      6  C   UNL     1      -6.234   2.495   3.870  0.00  0.00    +0.007 A 
ATOM      7  C   UNL     1      -5.044   1.841   3.633  0.00  0.00    -0.001 A 
ATOM      8  C   UNL     1      -4.008   1.300   4.570  0.00  0.00    +0.141 C 
ATOM      9  C   UNL     1      -2.959   0.699   3.654  0.00  0.00    +0.240 C 
ATOM     10  O   UNL     1      -1.937   0.144   3.997  0.00  0.00    -0.274 OA
ATOM     11  C   UNL     1      -4.587   0.230   5.447  0.00  0.00    +0.089 C 
ATOM     12  C   UNL     1      -4.850   0.470   6.758  0.00  0.00    +0.108 C 
ATOM     13  N   UNL     1      -4.580   1.705   7.302  0.00  0.00    -0.260 N 
ATOM     14  C   UNL     1      -3.704   2.562   6.689  0.00  0.00    +0.025 C 
ATOM     15  C   UNL     1      -3.396   2.411   5.382  0.00  0.00    +0.037 C 
ATOM     16  C   UNL     1      -2.500   3.285   4.744  0.00  0.00    +0.162 C 
ATOM     17  O   UNL     1      -2.234   3.115   3.570  0.00  0.00    -0.292 OA
ATOM     18  C   UNL     1      -1.863   4.428   5.486  0.00  0.00    +0.080 C 
ATOM     19  C   UNL     1      -2.802   4.875   6.612  0.00  0.00    +0.014 C 
ATOM     20  C   UNL     1      -3.091   3.669   7.509  0.00  0.00    +0.052 C 
ENDROOT
BRANCH  13  21
ATOM     21  C   UNL     1      -5.207   2.090   8.494  0.00  0.00    +0.040 A 
ATOM     22  C   UNL     1      -4.616   1.798   9.716  0.00  0.00    +0.026 A 
ATOM     23  C   UNL     1      -5.233   2.182  10.890  0.00  0.00    +0.040 A 
ATOM     24  C   UNL     1      -6.446   2.850  10.849  0.00  0.00    +0.124 A 
ATOM     25  C   UNL     1      -7.039   3.138   9.632  0.00  0.00    +0.040 A 
ATOM     26  C   UNL     1      -6.423   2.760   8.455  0.00  0.00    +0.026 A 
ATOM     27  F   UNL     1      -7.051   3.220  11.999  0.00  0.00    -0.205 F 
ENDBRANCH  13  21
BRANCH  12  28
ATOM     28  N   UNL     1      -5.387  -0.523   7.543  0.00  0.00    -0.345 N 
ATOM     29  H   UNL     1      -5.659  -1.363   7.143  0.00  0.00    +0.144 HD
ATOM     30  H   UNL     1      -5.494  -0.382   8.497  0.00  0.00    +0.144 HD
ENDBRANCH  12  28
BRANCH  11  31
ATOM     31  C   UNL     1      -4.867  -1.061   4.894  0.00  0.00    +0.100 C 
ATOM     32  N   UNL     1      -5.088  -2.086   4.457  0.00  0.00    -0.191 NA
ENDBRANCH  11  31
BRANCH   1  33
ATOM     33  C   UNL     1      -2.632   0.467   1.202  0.00  0.00    +0.113 C 
BRANCH  33  35
ATOM     34  C   UNL     1      -0.907   1.129  -0.480  0.00  0.00    +0.005 C 
ATOM     35  C   UNL     1      -1.684   1.583   0.758  0.00  0.00    +0.016 C 
ENDBRANCH  33  35
ENDBRANCH   1  33
TORSDOF 5
