REMARK  Name = ZINC56712471
REMARK  8 active torsions:
REMARK  status: ('A' for Active; 'I' for Inactive)
REMARK    1  A    between atoms: C_1  and  C_2
REMARK    2  A    between atoms: C_2  and  C_4
REMARK    3  A    between atoms: C_2  and  N_12
REMARK    4  A    between atoms: C_4  and  C_5
REMARK    5  A    between atoms: C_8  and  O_11
REMARK    6  A    between atoms: N_15  and  C_16
REMARK    7  A    between atoms: C_19  and  C_22
REMARK    8  A    between atoms: N_24  and  C_25
REMARK                            x       y       z     vdW  Elec       q    Type
REMARK                         _______ _______ _______ _____ _____    ______ ____
ROOT
ATOM      1  N   UNL     1       0.661  -1.084   1.140  0.00  0.00    -0.296 N 
ATOM      2  C   UNL     1       2.003  -1.202   1.126  0.00  0.00    +0.304 C 
ATOM      3  O   UNL     1       2.581  -1.450   0.085  0.00  0.00    -0.253 OA
ATOM      4  N   UNL     1       2.706  -1.046   2.266  0.00  0.00    -0.269 N 
ATOM      5  H   UNL     1       0.200  -0.886   1.970  0.00  0.00    +0.151 HD
ATOM      6  H   UNL     1       2.253  -0.783   3.082  0.00  0.00    +0.156 HD
ENDROOT
BRANCH   4   7
ATOM      7  C   UNL     1       4.083  -1.263   2.271  0.00  0.00    +0.035 A 
ATOM      8  C   UNL     1       4.844  -0.918   1.159  0.00  0.00    +0.024 A 
ATOM      9  C   UNL     1       6.204  -1.131   1.161  0.00  0.00    +0.015 A 
ATOM     10  C   UNL     1       6.820  -1.693   2.282  0.00  0.00    +0.037 A 
ATOM     11  C   UNL     1       6.053  -2.038   3.398  0.00  0.00    +0.015 A 
ATOM     12  C   UNL     1       4.694  -1.818   3.391  0.00  0.00    +0.024 A 
BRANCH  10  13
ATOM     13  C   UNL     1       8.278  -1.923   2.288  0.00  0.00    +0.244 C 
ATOM     14  O   UNL     1       8.945  -1.623   1.316  0.00  0.00    -0.270 OA
ATOM     15  N   UNL     1       8.871  -2.465   3.370  0.00  0.00    -0.308 N 
ATOM     16  H   UNL     1       8.339  -2.704   4.146  0.00  0.00    +0.149 HD
BRANCH  15  17
ATOM     17  C   UNL     1      10.318  -2.693   3.376  0.00  0.00    +0.073 C 
ATOM     18  C   UNL     1      10.637  -4.079   2.777  0.00  0.00    +0.022 C 
ATOM     19  C   UNL     1      11.822  -4.597   3.628  0.00  0.00    +0.002 C 
ATOM     20  C   UNL     1      11.463  -4.102   5.052  0.00  0.00    +0.002 C 
ATOM     21  C   UNL     1      10.844  -2.708   4.822  0.00  0.00    +0.022 C 
ENDBRANCH  15  17
ENDBRANCH  10  13
ENDBRANCH   4   7
BRANCH   1  23
ATOM     22  C   UNL     1      -0.140   0.073  -0.861  0.00  0.00    +0.028 C 
ATOM     23  C   UNL     1      -0.102  -1.254  -0.099  0.00  0.00    +0.076 C 
BRANCH  23  24
ATOM     24  C   UNL     1      -1.530  -1.689   0.237  0.00  0.00    +0.057 C 
BRANCH  24  25
ATOM     25  C   UNL     1      -1.501  -3.053   0.877  0.00  0.00    -0.045 A 
ATOM     26  C   UNL     1      -1.581  -4.187   0.090  0.00  0.00    +0.007 A 
ATOM     27  C   UNL     1      -1.556  -5.438   0.675  0.00  0.00    +0.045 A 
ATOM     28  C   UNL     1      -1.449  -5.557   2.053  0.00  0.00    +0.117 A 
ATOM     29  C   UNL     1      -1.368  -4.417   2.841  0.00  0.00    +0.045 A 
ATOM     30  C   UNL     1      -1.389  -3.168   2.251  0.00  0.00    +0.007 A 
BRANCH  28  31
ATOM     31  O   UNL     1      -1.424  -6.787   2.631  0.00  0.00    -0.507 OA
ATOM     32  H   UNL     1      -0.536  -7.157   2.729  0.00  0.00    +0.292 HD
ENDBRANCH  28  31
ENDBRANCH  24  25
ENDBRANCH  23  24
ENDBRANCH   1  23
TORSDOF 7
