REMARK  Name = ZINC20094525
REMARK  7 active torsions:
REMARK  status: ('A' for Active; 'I' for Inactive)
REMARK    1  A    between atoms: C_1  and  C_2
REMARK    2  A    between atoms: C_5  and  C_7
REMARK    3  A    between atoms: C_8  and  C_23
REMARK    4  A    between atoms: C_9  and  N_22
REMARK    5  A    between atoms: C_11  and  S_15
REMARK    6  A    between atoms: C_12  and  C_13
REMARK    7  A    between atoms: S_15  and  C_16
REMARK                            x       y       z     vdW  Elec       q    Type
REMARK                         _______ _______ _______ _____ _____    ______ ____
ROOT
ATOM      1  C   UNL     1      -1.244   2.129   0.016  0.00  0.00    +0.058 A 
ATOM      2  C   UNL     1      -0.017   1.428   0.002  0.00  0.00    +0.103 A 
ATOM      3  C   UNL     1       1.185   2.159  -0.008  0.00  0.00    +0.136 A 
ATOM      4  N   UNL     1       1.177   3.483   0.002  0.00  0.00    -0.223 NA
ATOM      5  C   UNL     1       0.052   4.183   0.020  0.00  0.00    +0.122 A 
ATOM      6  C   UNL     1      -1.200   3.541   0.031  0.00  0.00    +0.096 A 
ENDROOT
BRANCH   1  11
ATOM      7  C   UNL     1      -5.725   0.425  -1.443  0.00  0.00    +0.086 C 
ATOM      8  C   UNL     1      -4.490   0.661  -0.613  0.00  0.00    +0.103 A 
ATOM      9  C   UNL     1      -4.247   0.130   0.604  0.00  0.00    +0.045 A 
ATOM     10  C   UNL     1      -2.988   0.601   1.016  0.00  0.00    +0.050 A 
ATOM     11  C   UNL     1      -2.526   1.411   0.020  0.00  0.00    +0.138 A 
ATOM     12  O   UNL     1      -3.450   1.433  -0.962  0.00  0.00    -0.460 OA
ENDBRANCH   1  11
BRANCH   3  13
ATOM     13  N   UNL     1       2.390   1.486  -0.027  0.00  0.00    -0.342 N 
ATOM     14  H   UNL     1       3.335   2.050  -0.035  0.00  0.00    +0.144 HD
ATOM     15  H   UNL     1       2.406   0.387  -0.035  0.00  0.00    +0.144 HD
ENDBRANCH   3  13
BRANCH   6  16
ATOM     16  C   UNL     1      -2.410   4.306   0.052  0.00  0.00    +0.103 C 
ATOM     17  N   UNL     1      -3.370   4.914   0.068  0.00  0.00    -0.191 NA
ENDBRANCH   6  16
BRANCH   2  18
ATOM     18  C   UNL     1       0.003  -0.004  -0.009  0.00  0.00    +0.103 C 
ATOM     19  N   UNL     1       0.018  -1.140  -0.018  0.00  0.00    -0.191 NA
ENDBRANCH   2  18
BRANCH   5  20
ATOM     20  S   UNL     1       0.126   5.943   0.032  0.00  0.00    -0.069 S 
BRANCH  20  21
ATOM     21  C   UNL     1       1.867   6.176   0.169  0.00  0.00    +0.014 A 
ATOM     22  C   UNL     1       2.474   6.168   1.418  0.00  0.00    +0.015 A 
ATOM     23  C   UNL     1       3.840   6.345   1.521  0.00  0.00    +0.001 A 
ATOM     24  C   UNL     1       4.601   6.541   0.383  0.00  0.00    +0.000 A 
ATOM     25  C   UNL     1       3.999   6.556  -0.862  0.00  0.00    +0.001 A 
ATOM     26  C   UNL     1       2.634   6.374  -0.972  0.00  0.00    +0.015 A 
ENDBRANCH  20  21
ENDBRANCH   5  20
TORSDOF 6
