REMARK  Name = ZINC02843262
REMARK  5 active torsions:
REMARK  status: ('A' for Active; 'I' for Inactive)
REMARK    1  A    between atoms: C_11  and  N_22
REMARK    2  A    between atoms: C_13  and  S_15
REMARK    3  A    between atoms: S_15  and  C_16
REMARK    4  A    between atoms: N_22  and  S_23
REMARK    5  A    between atoms: S_23  and  C_26
REMARK                            x       y       z     vdW  Elec       q    Type
REMARK                         _______ _______ _______ _____ _____    ______ ____
ROOT
ATOM      1  C   UNL     1      -0.237   4.098   0.024  0.00  0.00    +0.001 A 
ATOM      2  C   UNL     1       1.018   3.560   0.010  0.00  0.00    +0.008 A 
ATOM      3  C   UNL     1       1.156   2.163   0.003  0.00  0.00    -0.017 A 
ATOM      4  C   UNL     1       2.389   1.489  -0.012  0.00  0.00    +0.008 A 
ATOM      5  C   UNL     1       2.392   0.124  -0.020  0.00  0.00    +0.001 A 
ATOM      6  C   UNL     1       1.213  -0.626  -0.013  0.00  0.00    +0.005 A 
ATOM      7  C   UNL     1       0.002  -0.004   0.002  0.00  0.00    -0.024 A 
ATOM      8  C   UNL     1      -0.017   1.387   0.010  0.00  0.00    -0.009 A 
ATOM      9  C   UNL     1      -1.289   1.949   0.019  0.00  0.00    -0.019 A 
ATOM     10  C   UNL     1      -1.388   3.307   0.031  0.00  0.00    +0.006 A 
ATOM     11  C   UNL     1      -2.284   0.813   0.018  0.00  0.00    +0.125 C 
ATOM     12  C   UNL     1      -1.432  -0.475   0.013  0.00  0.00    +0.107 C 
ENDROOT
BRANCH  11  13
ATOM     13  N   UNL     1      -3.112   0.864   1.226  0.00  0.00    -0.181 NA
ATOM     14  H   UNL     1      -2.788   0.474   2.053  0.00  0.00    +0.149 HD
BRANCH  13  15
ATOM     15  S   UNL     1      -4.601   1.586   1.178  0.00  0.00    +0.059 S 
ATOM     16  O   UNL     1      -5.160   1.450   2.478  0.00  0.00    -0.153 OA
ATOM     17  O   UNL     1      -4.420   2.850   0.555  0.00  0.00    -0.153 OA
BRANCH  15  18
ATOM     18  C   UNL     1      -5.610   0.630   0.095  0.00  0.00    +0.105 A 
ATOM     19  C   UNL     1      -5.654   0.932  -1.254  0.00  0.00    +0.030 A 
ATOM     20  C   UNL     1      -6.440   0.179  -2.105  0.00  0.00    +0.022 A 
ATOM     21  C   UNL     1      -7.192  -0.870  -1.606  0.00  0.00    +0.041 A 
ATOM     22  C   UNL     1      -7.152  -1.168  -0.256  0.00  0.00    +0.022 A 
ATOM     23  C   UNL     1      -6.361  -0.418   0.594  0.00  0.00    +0.030 A 
ATOM     24 CL   UNL     1      -8.186  -1.811  -2.674  0.00  0.00    -0.084 Cl
ENDBRANCH  15  18
ENDBRANCH  13  15
ENDBRANCH  11  13
BRANCH  12  25
ATOM     25  S   UNL     1      -1.787  -1.445  -1.477  0.00  0.00    -0.087 S 
BRANCH  25  26
ATOM     26  C   UNL     1      -0.793  -2.889  -1.293  0.00  0.00    +0.161 A 
ATOM     27  N   UNL     1       0.028  -3.219  -0.315  0.00  0.00    -0.133 NA
ATOM     28  N   UNL     1       0.715  -4.410  -0.371  0.00  0.00    -0.125 NA
ATOM     29  C   UNL     1       0.550  -5.215  -1.402  0.00  0.00    +0.180 A 
ATOM     30  S   UNL     1      -0.633  -4.299  -2.378  0.00  0.00    -0.025 S 
ATOM     31  N   UNL     1       1.137  -6.448  -1.659  0.00  0.00    -0.336 N 
ATOM     32  H   UNL     1       1.768  -6.826  -1.026  0.00  0.00    +0.144 HD
ATOM     33  H   UNL     1       0.915  -6.931  -2.470  0.00  0.00    +0.144 HD
ENDBRANCH  25  26
ENDBRANCH  12  25
TORSDOF 5
