REMARK  Name = ZINC22421146
REMARK  12 active torsions:
REMARK  status: ('A' for Active; 'I' for Inactive)
REMARK    1  A    between atoms: C_1  and  C_2
REMARK    2  A    between atoms: C_2  and  C_4
REMARK    3  A    between atoms: C_2  and  N_16
REMARK    4  A    between atoms: N_6  and  C_7
REMARK    5  A    between atoms: C_10  and  C_13
REMARK    6  A    between atoms: N_16  and  C_17
REMARK    7  A    between atoms: C_20  and  O_32
REMARK    8  A    between atoms: C_21  and  O_23
REMARK    9  A    between atoms: O_23  and  C_24
REMARK   10  A    between atoms: C_27  and  O_30
REMARK   11  A    between atoms: O_30  and  C_31
REMARK   12  A    between atoms: O_32  and  C_33
REMARK                            x       y       z     vdW  Elec       q    Type
REMARK                         _______ _______ _______ _____ _____    ______ ____
ROOT
ATOM      1  N   UNL     1       1.224  -0.051   6.301  0.00  0.00    -0.333 N 
ATOM      2  H   UNL     1       0.723   0.298   7.215  0.00  0.00    +0.147 HD
ENDROOT
BRANCH   1   3
ATOM      3  C   UNL     1       0.767   0.370   5.047  0.00  0.00    +0.031 A 
ATOM      4  C   UNL     1       1.400  -0.071   3.893  0.00  0.00    +0.027 A 
ATOM      5  C   UNL     1       0.949   0.344   2.654  0.00  0.00    +0.051 A 
ATOM      6  C   UNL     1      -0.135   1.202   2.561  0.00  0.00    +0.162 A 
ATOM      7  C   UNL     1      -0.768   1.651   3.716  0.00  0.00    +0.172 A 
ATOM      8  C   UNL     1      -0.320   1.230   4.958  0.00  0.00    +0.073 A 
BRANCH   6   9
ATOM      9  O   UNL     1      -0.578   1.610   1.341  0.00  0.00    -0.491 OA
ATOM     10  C   UNL     1       0.122   1.114   0.198  0.00  0.00    +0.277 C 
ENDBRANCH   6   9
BRANCH   7  11
ATOM     11  O   UNL     1      -1.827   2.498   3.627  0.00  0.00    -0.452 OA
BRANCH  11  12
ATOM     12  C   UNL     1      -3.045   1.968   3.333  0.00  0.00    +0.129 A 
ATOM     13  C   UNL     1      -3.197   0.593   3.235  0.00  0.00    +0.050 A 
ATOM     14  C   UNL     1      -4.435   0.054   2.943  0.00  0.00    +0.049 A 
ATOM     15  C   UNL     1      -5.523   0.889   2.736  0.00  0.00    +0.120 A 
ATOM     16  C   UNL     1      -5.370   2.264   2.828  0.00  0.00    +0.049 A 
ATOM     17  C   UNL     1      -4.133   2.803   3.126  0.00  0.00    +0.050 A 
BRANCH  15  18
ATOM     18  O   UNL     1      -6.741   0.359   2.442  0.00  0.00    -0.495 OA
ATOM     19  C   UNL     1      -6.826  -1.065   2.363  0.00  0.00    +0.277 C 
ENDBRANCH  15  18
ENDBRANCH  11  12
ENDBRANCH   7  11
ENDBRANCH   1   3
BRANCH   1  21
ATOM     20  C   UNL     1       3.667  -0.148   6.357  0.00  0.00    +0.038 C 
ATOM     21  C   UNL     1       2.371  -0.959   6.394  0.00  0.00    +0.154 C 
BRANCH  21  22
ATOM     22  C   UNL     1       2.297  -1.729   7.688  0.00  0.00    +0.237 C 
ATOM     23  O   UNL     1       1.377  -1.539   8.455  0.00  0.00    -0.273 OA
ATOM     24  N   UNL     1       3.253  -2.629   7.991  0.00  0.00    -0.284 N 
ATOM     25  H   UNL     1       4.125  -2.749   7.332  0.00  0.00    +0.155 HD
BRANCH  24  26
ATOM     26  C   UNL     1       3.136  -3.409   9.142  0.00  0.00    +0.033 A 
ATOM     27  C   UNL     1       2.569  -2.869  10.291  0.00  0.00    +0.024 A 
ATOM     28  C   UNL     1       2.448  -3.637  11.427  0.00  0.00    +0.015 A 
ATOM     29  C   UNL     1       2.905  -4.958  11.428  0.00  0.00    +0.037 A 
ATOM     30  C   UNL     1       3.479  -5.496  10.272  0.00  0.00    +0.015 A 
ATOM     31  C   UNL     1       3.593  -4.723   9.138  0.00  0.00    +0.024 A 
BRANCH  29  32
ATOM     32  C   UNL     1       2.782  -5.783  12.645  0.00  0.00    +0.242 C 
ATOM     33  O   UNL     1       3.180  -6.932  12.644  0.00  0.00    -0.270 OA
ATOM     34  N   UNL     1       2.228  -5.263  13.758  0.00  0.00    -0.325 N 
ATOM     35  H   UNL     1       2.136  -5.878  14.666  0.00  0.00    +0.145 HD
ATOM     36  H   UNL     1       1.868  -4.224  13.760  0.00  0.00    +0.145 HD
ENDBRANCH  29  32
ENDBRANCH  24  26
ENDBRANCH  21  22
ENDBRANCH   1  21
TORSDOF 9
