REMARK  Name = ZINC35926734
REMARK  12 active torsions:
REMARK  status: ('A' for Active; 'I' for Inactive)
REMARK    1  A    between atoms: C_1  and  C_2
REMARK    2  A    between atoms: C_6  and  N_8
REMARK    3  A    between atoms: N_11  and  C_14
REMARK    4  A    between atoms: C_14  and  C_15
REMARK    5  A    between atoms: C_29  and  C_31
REMARK    6  A    between atoms: C_31  and  C_32
REMARK    7  A    between atoms: C_32  and  C_34
REMARK    8  A    between atoms: C_32  and  C_35
REMARK    9  A    between atoms: C_35  and  C_36
REMARK   10  A    between atoms: C_36  and  C_37
REMARK   11  A    between atoms: C_36  and  C_38
REMARK   12  A    between atoms: C_36  and  C_39
REMARK                            x       y       z     vdW  Elec       q    Type
REMARK                         _______ _______ _______ _____ _____    ______ ____
ROOT
ATOM      1  C   UNL     1      -4.195  -5.342   5.854  0.00  0.00    +0.034 A 
ATOM      2  C   UNL     1      -3.825  -5.716   7.113  0.00  0.00    +0.091 A 
ATOM      3  C   UNL     1      -3.300  -7.005   7.312  0.00  0.00    +0.253 A 
ATOM      4  O   UNL     1      -2.961  -7.373   8.425  0.00  0.00    -0.268 OA
ATOM      5  N   UNL     1      -3.180  -7.829   6.249  0.00  0.00    -0.295 N 
ATOM      6  H   UNL     1      -2.821  -8.722   6.363  0.00  0.00    +0.172 HD
ATOM      7  C   UNL     1      -3.565  -7.400   5.016  0.00  0.00    +0.198 A 
ATOM      8  N   UNL     1      -4.061  -6.192   4.838  0.00  0.00    -0.223 NA
ATOM      9  N   UNL     1      -3.440  -8.241   3.943  0.00  0.00    -0.298 N 
ATOM     10  C   UNL     1      -3.013  -9.634   4.130  0.00  0.00    +0.127 C 
ATOM     11  C   UNL     1      -4.065 -10.557   3.502  0.00  0.00    +0.126 C 
ATOM     12  N   UNL     1      -4.356 -10.082   2.142  0.00  0.00    -0.298 N 
ATOM     13  C   UNL     1      -4.783  -8.688   1.955  0.00  0.00    +0.126 C 
ATOM     14  C   UNL     1      -3.736  -7.767   2.583  0.00  0.00    +0.127 C 
ATOM     15  C   UNL     1      -4.233 -10.909   1.085  0.00  0.00    +0.216 C 
ATOM     16  O   UNL     1      -3.880 -12.058   1.252  0.00  0.00    -0.276 OA
ENDROOT
BRANCH   1  17
ATOM     17  C   UNL     1      -4.760  -3.966   5.614  0.00  0.00    -0.022 C 
BRANCH  17  21
ATOM     18  N   UNL     1      -3.077  -1.686   2.535  0.00  0.00    -0.333 N 
ATOM     19  C   UNL     1      -3.327  -1.002   3.813  0.00  0.00    +0.086 C 
ATOM     20  C   UNL     1      -4.338  -1.827   4.616  0.00  0.00    -0.059 C 
ATOM     21  N   UNL     1      -3.846  -3.204   4.752  0.00  0.00    +0.385 N 
ATOM     22  C   UNL     1      -3.776  -3.842   3.431  0.00  0.00    -0.059 C 
ATOM     23  C   UNL     1      -2.743  -3.118   2.569  0.00  0.00    +0.086 C 
ATOM     24  H   UNL     1      -2.927  -3.192   5.168  0.00  0.00    -0.081 HD
BRANCH  18  30
ATOM     25  C   UNL     1      -4.144   2.434   0.077  0.00  0.00    +0.044 C 
ATOM     26  C   UNL     1      -3.675   1.002   0.102  0.00  0.00    -0.049 A 
ATOM     27  C   UNL     1      -3.327   0.369  -1.078  0.00  0.00    +0.003 A 
ATOM     28  C   UNL     1      -2.896  -0.945  -1.060  0.00  0.00    +0.002 A 
ATOM     29  C   UNL     1      -2.812  -1.629   0.137  0.00  0.00    +0.023 A 
ATOM     30  C   UNL     1      -3.161  -0.997   1.323  0.00  0.00    +0.030 A 
ATOM     31  C   UNL     1      -3.588   0.325   1.302  0.00  0.00    +0.026 A 
ENDBRANCH  18  30
ENDBRANCH  17  21
ENDBRANCH   1  17
BRANCH  15  32
ATOM     32  C   UNL     1      -4.535 -10.408  -0.303  0.00  0.00    +0.099 C 
BRANCH  32  33
ATOM     33  C   UNL     1      -4.318 -11.538  -1.312  0.00  0.00    -0.005 C 
ATOM     34  C   UNL     1      -2.838 -11.925  -1.334  0.00  0.00    +0.008 C 
BRANCH  33  35
ATOM     35  C   UNL     1      -4.743 -11.067  -2.704  0.00  0.00    +0.010 C 
BRANCH  35  36
ATOM     36  C   UNL     1      -5.059 -12.282  -3.579  0.00  0.00    -0.037 C 
ATOM     37  C   UNL     1      -6.204 -13.078  -2.950  0.00  0.00    +0.010 C 
ATOM     38  C   UNL     1      -5.472 -11.811  -4.975  0.00  0.00    +0.010 C 
ATOM     39  C   UNL     1      -3.818 -13.171  -3.686  0.00  0.00    +0.010 C 
ENDBRANCH  35  36
ENDBRANCH  33  35
ENDBRANCH  32  33
ENDBRANCH  15  32
TORSDOF 7
