REMARK  Name = ZINC01500244
REMARK  7 active torsions:
REMARK  status: ('A' for Active; 'I' for Inactive)
REMARK    1  A    between atoms: C_1  and  C_2
REMARK    2  A    between atoms: C_2  and  C_3
REMARK    3  A    between atoms: C_2  and  C_4
REMARK    4  A    between atoms: C_2  and  C_5
REMARK    5  A    between atoms: C_8  and  C_11
REMARK    6  A    between atoms: C_11  and  N_12
REMARK    7  A    between atoms: N_15  and  C_18
REMARK                            x       y       z     vdW  Elec       q    Type
REMARK                         _______ _______ _______ _____ _____    ______ ____
ROOT
ATOM      1  N   UNL     1       1.360   2.000  -0.000  0.00  0.00    -0.279 N 
ATOM      2  C   UNL     1       2.141   2.319  -1.204  0.00  0.00    +0.129 C 
ATOM      3  C   UNL     1       3.489   2.818  -0.649  0.00  0.00    +0.134 C 
ATOM      4  N   UNL     1       3.324   2.728   0.810  0.00  0.00    -0.254 N 
ATOM      5  C   UNL     1       2.097   2.265   1.086  0.00  0.00    +0.309 C 
ATOM      6  O   UNL     1       1.692   2.097   2.220  0.00  0.00    -0.252 OA
ENDROOT
BRANCH   4   7
ATOM      7  C   UNL     1       4.293   3.077   1.760  0.00  0.00    +0.041 A 
ATOM      8  C   UNL     1       3.977   3.061   3.112  0.00  0.00    +0.027 A 
ATOM      9  C   UNL     1       4.932   3.405   4.050  0.00  0.00    +0.051 A 
ATOM     10  C   UNL     1       6.206   3.767   3.644  0.00  0.00    +0.166 A 
ATOM     11  C   UNL     1       6.525   3.785   2.289  0.00  0.00    +0.168 A 
ATOM     12  C   UNL     1       5.570   3.434   1.350  0.00  0.00    +0.073 A 
ATOM     13  O   UNL     1       7.827   4.172   2.152  0.00  0.00    -0.453 OA
ATOM     14  C   UNL     1       8.419   3.995   3.453  0.00  0.00    +0.466 C 
ATOM     15  O   UNL     1       7.309   4.144   4.357  0.00  0.00    -0.453 OA
ENDBRANCH   4   7
BRANCH   1  16
ATOM     16  C   UNL     1      -0.010   1.481   0.010  0.00  0.00    +0.144 C 
BRANCH  16  20
ATOM     17  C   UNL     1       0.083  -2.789  -0.051  0.00  0.00    -0.042 A 
ATOM     18  C   UNL     1       0.084  -2.115   1.156  0.00  0.00    +0.004 A 
ATOM     19  C   UNL     1       0.054  -0.733   1.175  0.00  0.00    +0.005 A 
ATOM     20  C   UNL     1       0.023  -0.025  -0.011  0.00  0.00    -0.030 A 
ATOM     21  C   UNL     1       0.017  -0.700  -1.218  0.00  0.00    +0.005 A 
ATOM     22  C   UNL     1       0.052  -2.081  -1.238  0.00  0.00    +0.004 A 
BRANCH  17  24
ATOM     23  C   UNL     1      -1.111  -4.843   0.658  0.00  0.00    +0.015 C 
ATOM     24  C   UNL     1       0.117  -4.296  -0.073  0.00  0.00    -0.013 C 
ATOM     25  C   UNL     1       0.108  -4.785  -1.522  0.00  0.00    +0.015 C 
ATOM     26  C   UNL     1       1.387  -4.788   0.625  0.00  0.00    +0.015 C 
ENDBRANCH  17  24
ENDBRANCH  16  20
ENDBRANCH   1  16
TORSDOF 4
