REMARK  Name = ZINC54446354
REMARK  9 active torsions:
REMARK  status: ('A' for Active; 'I' for Inactive)
REMARK    1  A    between atoms: C_1  and  C_2
REMARK    2  A    between atoms: N_7  and  C_9
REMARK    3  A    between atoms: C_9  and  C_10
REMARK    4  A    between atoms: C_9  and  C_11
REMARK    5  A    between atoms: C_9  and  C_12
REMARK    6  A    between atoms: C_12  and  N_13
REMARK    7  A    between atoms: N_16  and  C_17
REMARK    8  A    between atoms: C_19  and  N_24
REMARK    9  A    between atoms: C_25  and  C_27
REMARK                            x       y       z     vdW  Elec       q    Type
REMARK                         _______ _______ _______ _____ _____    ______ ____
ROOT
ATOM      1  N   UNL     1       2.157  -4.452   1.074  0.00  0.00    -0.300 N 
ATOM      2  C   UNL     1       2.304  -5.777   0.869  0.00  0.00    +0.304 C 
ATOM      3  O   UNL     1       1.890  -6.569   1.693  0.00  0.00    -0.253 OA
ATOM      4  N   UNL     1       2.910  -6.222  -0.249  0.00  0.00    -0.268 N 
ATOM      5  H   UNL     1       2.488  -3.820   0.417  0.00  0.00    +0.150 HD
ATOM      6  H   UNL     1       3.180  -5.595  -0.938  0.00  0.00    +0.156 HD
ENDROOT
BRANCH   4   7
ATOM      7  C   UNL     1       3.149  -7.591  -0.417  0.00  0.00    +0.055 A 
ATOM      8  C   UNL     1       2.243  -8.520   0.073  0.00  0.00    +0.048 A 
ATOM      9  C   UNL     1       2.483  -9.876  -0.096  0.00  0.00    +0.035 A 
ATOM     10  C   UNL     1       3.631 -10.300  -0.755  0.00  0.00    +0.025 A 
ATOM     11  C   UNL     1       4.532  -9.373  -1.242  0.00  0.00    +0.023 A 
ATOM     12  C   UNL     1       4.293  -8.021  -1.080  0.00  0.00    +0.062 A 
ATOM     13 CL   UNL     1       5.424  -6.860  -1.700  0.00  0.00    -0.082 Cl
BRANCH   9  14
ATOM     14  N   UNL     1       1.571 -10.816   0.398  0.00  0.00    -0.286 N 
ATOM     15  C   UNL     1       1.485 -12.035  -0.172  0.00  0.00    +0.214 C 
ATOM     16  O   UNL     1       2.120 -12.282  -1.175  0.00  0.00    -0.276 OA
ATOM     17  C   UNL     1       0.601 -13.091   0.439  0.00  0.00    +0.109 C 
ATOM     18  H   UNL     1       1.001 -10.590   1.149  0.00  0.00    +0.155 HD
ENDBRANCH   9  14
ENDBRANCH   4   7
BRANCH   1  19
ATOM     19  C   UNL     1       1.499  -3.968   2.290  0.00  0.00    +0.093 C 
BRANCH  19  20
ATOM     20  C   UNL     1       1.462  -2.438   2.275  0.00  0.00    -0.055 C 
ATOM     21  C   UNL     1       2.892  -1.895   2.218  0.00  0.00    -0.008 C 
ATOM     22  C   UNL     1       0.775  -1.932   3.545  0.00  0.00    -0.008 C 
BRANCH  20  28
ATOM     23  C   UNL     1      -0.045   1.506  -0.202  0.00  0.00    +0.005 C 
ATOM     24  C   UNL     1      -0.017  -0.024  -0.188  0.00  0.00    -0.031 C 
ATOM     25  C   UNL     1      -1.450  -0.562  -0.205  0.00  0.00    -0.001 C 
ATOM     26  C   UNL     1      -1.413  -2.090  -0.112  0.00  0.00    -0.018 C 
ATOM     27  C   UNL     1      -0.655  -2.500   1.153  0.00  0.00    -0.078 C 
ATOM     28  N   UNL     1       0.716  -1.978   1.097  0.00  0.00    +0.384 N 
ATOM     29  C   UNL     1       0.691  -0.510   1.079  0.00  0.00    -0.075 C 
ATOM     30  H   UNL     1       1.169  -2.315   0.261  0.00  0.00    -0.081 HD
ENDBRANCH  20  28
ENDBRANCH  19  20
ENDBRANCH   1  19
TORSDOF 5
