REMARK  Name = ZINC13636566
REMARK  5 active torsions:
REMARK  status: ('A' for Active; 'I' for Inactive)
REMARK    1  A    between atoms: C_4  and  N_7
REMARK    2  A    between atoms: N_7  and  S_8
REMARK    3  A    between atoms: S_8  and  C_11
REMARK    4  A    between atoms: C_24  and  C_27
REMARK    5  A    between atoms: C_30  and  O_33
REMARK                            x       y       z     vdW  Elec       q    Type
REMARK                         _______ _______ _______ _____ _____    ______ ____
ROOT
ATOM      1  C   UNL     1       0.704  -3.074  -0.474  0.00  0.00    +0.109 A 
ATOM      2  C   UNL     1      -0.574  -2.544  -0.450  0.00  0.00    +0.030 A 
ATOM      3  C   UNL     1      -0.756  -1.177  -0.415  0.00  0.00    +0.025 A 
ATOM      4  C   UNL     1       0.339  -0.323  -0.404  0.00  0.00    +0.031 A 
ATOM      5  C   UNL     1       1.629  -0.866  -0.415  0.00  0.00    -0.018 A 
ATOM      6  C   UNL     1       1.801  -2.233  -0.457  0.00  0.00    +0.034 A 
ATOM      7  C   UNL     1       2.767   0.077  -0.372  0.00  0.00    +0.049 C 
ATOM      8  C   UNL     1       4.099  -0.269  -0.931  0.00  0.00    -0.023 C 
ATOM      9  C   UNL     1       4.676   0.843  -1.370  0.00  0.00    -0.030 C 
ATOM     10  C   UNL     1       3.740   2.035  -1.163  0.00  0.00    +0.033 C 
ATOM     11  C   UNL     1       2.365   1.353  -1.169  0.00  0.00    +0.029 C 
ATOM     12  C   UNL     1       1.264   2.009  -0.354  0.00  0.00    +0.105 C 
ATOM     13  N   UNL     1       0.129   1.062  -0.383  0.00  0.00    -0.336 N 
ATOM     14  H   UNL     1      -0.778   1.405  -0.391  0.00  0.00    +0.147 HD
ENDROOT
BRANCH  12  15
ATOM     15  C   UNL     1       1.726   2.226   1.064  0.00  0.00    -0.027 A 
ATOM     16  C   UNL     1       1.508   1.249   2.018  0.00  0.00    +0.009 A 
ATOM     17  C   UNL     1       1.936   1.443   3.317  0.00  0.00    +0.046 A 
ATOM     18  C   UNL     1       2.573   2.624   3.667  0.00  0.00    +0.117 A 
ATOM     19  C   UNL     1       2.784   3.606   2.710  0.00  0.00    +0.046 A 
ATOM     20  C   UNL     1       2.360   3.404   1.411  0.00  0.00    +0.009 A 
BRANCH  18  21
ATOM     21  O   UNL     1       2.989   2.820   4.946  0.00  0.00    -0.507 OA
ATOM     22  H   UNL     1       2.329   3.239   5.515  0.00  0.00    +0.292 HD
ENDBRANCH  18  21
ENDBRANCH  12  15
BRANCH   1  23
ATOM     23  S   UNL     1       0.933  -4.820  -0.528  0.00  0.00    +0.072 S 
ATOM     24  O   UNL     1      -0.199  -5.357  -1.199  0.00  0.00    -0.150 OA
ATOM     25  O   UNL     1       2.262  -5.042  -0.978  0.00  0.00    -0.150 OA
BRANCH  23  26
ATOM     26  N   UNL     1       0.863  -5.371   1.032  0.00  0.00    -0.216 N 
ATOM     27  H   UNL     1       0.172  -5.999   1.294  0.00  0.00    +0.174 HD
BRANCH  26  31
ATOM     28  C   UNL     1       3.655  -4.061   3.830  0.00  0.00    +0.000 A 
ATOM     29  C   UNL     1       2.312  -4.087   4.156  0.00  0.00    +0.002 A 
ATOM     30  C   UNL     1       1.383  -4.521   3.230  0.00  0.00    +0.024 A 
ATOM     31  C   UNL     1       1.800  -4.931   1.970  0.00  0.00    +0.048 A 
ATOM     32  C   UNL     1       3.151  -4.909   1.648  0.00  0.00    +0.024 A 
ATOM     33  C   UNL     1       4.074  -4.470   2.576  0.00  0.00    +0.002 A 
ENDBRANCH  26  31
ENDBRANCH  23  26
ENDBRANCH   1  23
TORSDOF 5
