REMARK  Name = ZINC63161469
REMARK  3 active torsions:
REMARK  status: ('A' for Active; 'I' for Inactive)
REMARK    1  A    between atoms: C_2  and  C_23
REMARK    2  A    between atoms: C_8  and  N_9
REMARK    3  A    between atoms: C_16  and  C_17
REMARK                            x       y       z     vdW  Elec       q    Type
REMARK                         _______ _______ _______ _____ _____    ______ ____
ROOT
ATOM      1  N   UNL     1      -1.311  -0.696   0.073  0.00  0.00    -0.265 N 
ATOM      2  C   UNL     1      -1.243  -2.036  -0.054  0.00  0.00    +0.307 C 
ATOM      3  O   UNL     1      -0.161  -2.592  -0.062  0.00  0.00    -0.252 OA
ATOM      4  N   UNL     1      -2.373  -2.760  -0.173  0.00  0.00    -0.282 N 
ATOM      5  C   UNL     1      -3.737  -2.211  -0.291  0.00  0.00    +0.110 C 
ATOM      6  C   UNL     1      -4.551  -3.320  -1.003  0.00  0.00    +0.021 C 
ATOM      7  C   UNL     1      -3.938  -4.603  -0.381  0.00  0.00    +0.024 C 
ATOM      8  C   UNL     1      -2.451  -4.228  -0.212  0.00  0.00    +0.081 C 
ATOM      9  H   UNL     1      -2.173  -0.260   0.153  0.00  0.00    +0.157 HD
ENDROOT
BRANCH   1  17
ATOM     10  C   UNL     1       0.154   0.870   1.160  0.00  0.00    +0.042 A 
ATOM     11  C   UNL     1       1.337   1.623   1.152  0.00  0.00    +0.073 A 
ATOM     12  C   UNL     1       2.178   1.550   0.095  0.00  0.00    +0.098 A 
ATOM     13  N   UNL     1       1.894   0.752  -0.968  0.00  0.00    -0.327 N 
ATOM     14  H   UNL     1       2.510   0.713  -1.717  0.00  0.00    +0.168 HD
ATOM     15  C   UNL     1       0.767   0.015  -0.995  0.00  0.00    +0.270 A 
ATOM     16  O   UNL     1       0.525  -0.697  -1.956  0.00  0.00    -0.266 OA
ATOM     17  C   UNL     1      -0.135   0.067   0.091  0.00  0.00    +0.100 A 
BRANCH  11  18
ATOM     18  C   UNL     1       1.671   2.514   2.320  0.00  0.00    +0.419 C 
ATOM     19  F   UNL     1       2.890   3.156   2.083  0.00  0.00    -0.166 F 
ATOM     20  F   UNL     1       0.663   3.470   2.480  0.00  0.00    -0.166 F 
ATOM     21  F   UNL     1       1.769   1.741   3.482  0.00  0.00    -0.166 F 
ENDBRANCH  11  18
ENDBRANCH   1  17
BRANCH   8  22
ATOM     22  C   UNL     1      -1.914  -4.812   1.096  0.00  0.00    +0.010 C 
ATOM     23  C   UNL     1      -2.048  -6.336   1.065  0.00  0.00    +0.005 C 
ATOM     24  C   UNL     1      -1.511  -6.921   2.373  0.00  0.00    +0.000 C 
ATOM     25  C   UNL     1      -2.314  -6.362   3.549  0.00  0.00    +0.000 C 
ATOM     26  C   UNL     1      -2.181  -4.838   3.580  0.00  0.00    +0.000 C 
ATOM     27  C   UNL     1      -2.717  -4.253   2.272  0.00  0.00    +0.005 C 
ENDBRANCH   8  22
TORSDOF 3
