REMARK  Name = ZINC09124227
REMARK  19 active torsions:
REMARK  status: ('A' for Active; 'I' for Inactive)
REMARK    1  A    between atoms: C_1  and  C_2
REMARK    2  A    between atoms: C_2  and  O_3
REMARK    3  A    between atoms: O_3  and  C_4
REMARK    4  A    between atoms: C_6  and  C_16
REMARK    5  A    between atoms: C_9  and  O_10
REMARK    6  A    between atoms: O_10  and  C_11
REMARK    7  A    between atoms: C_11  and  C_12
REMARK    8  A    between atoms: C_12  and  C_13
REMARK    9  A    between atoms: C_13  and  C_14
REMARK   10  A    between atoms: C_13  and  C_15
REMARK   11  A    between atoms: C_18  and  C_28
REMARK   12  A    between atoms: C_19  and  O_27
REMARK   13  A    between atoms: N_22  and  C_23
REMARK   14  A    between atoms: C_23  and  C_24
REMARK   15  A    between atoms: C_24  and  N_79
REMARK   16  A    between atoms: C_25  and  N_79
REMARK   17  A    between atoms: C_26  and  N_79
REMARK   18  A    between atoms: C_28  and  C_30
REMARK   19  A    between atoms: C_37  and  C_40
REMARK                            x       y       z     vdW  Elec       q    Type
REMARK                         _______ _______ _______ _____ _____    ______ ____
ROOT
ATOM      1  C   UNL     1      -1.438  -1.409  -0.042  0.00  0.00    +0.144 C 
ATOM      2  C   UNL     1      -2.614  -0.460  -0.021  0.00  0.00    +0.071 C 
ATOM      3  C   UNL     1      -3.731  -1.220  -0.104  0.00  0.00    +0.188 C 
ATOM      4  C   UNL     1      -3.344  -2.645  -0.175  0.00  0.00    +0.282 C 
ATOM      5  O   UNL     1      -4.122  -3.575  -0.257  0.00  0.00    -0.267 OA
ATOM      6  N   UNL     1      -2.004  -2.760  -0.136  0.00  0.00    -0.285 N 
ENDROOT
BRANCH   1   9
ATOM      7  C   UNL     1       1.233  -0.356   2.414  0.00  0.00    +0.162 A 
ATOM      8  C   UNL     1       0.499  -0.487   1.245  0.00  0.00    +0.055 A 
ATOM      9  C   UNL     1      -0.639  -1.272   1.228  0.00  0.00    -0.019 A 
ATOM     10  C   UNL     1      -1.042  -1.936   2.372  0.00  0.00    +0.009 A 
ATOM     11  C   UNL     1      -0.312  -1.813   3.539  0.00  0.00    +0.050 A 
ATOM     12  C   UNL     1       0.827  -1.024   3.565  0.00  0.00    +0.162 A 
BRANCH   7  13
ATOM     13  O   UNL     1       2.349   0.419   2.434  0.00  0.00    -0.489 OA
BRANCH  13  15
ATOM     14  C   UNL     1       4.101   1.713   1.386  0.00  0.00    +0.048 C 
ATOM     15  C   UNL     1       2.772   0.981   1.190  0.00  0.00    +0.226 C 
ENDBRANCH  13  15
ENDBRANCH   7  13
BRANCH  12  16
ATOM     16  O   UNL     1       1.546  -0.903   4.713  0.00  0.00    -0.488 OA
BRANCH  16  17
ATOM     17  C   UNL     1       1.070  -1.618   5.855  0.00  0.00    +0.229 C 
BRANCH  17  18
ATOM     18  C   UNL     1       2.002  -1.361   7.041  0.00  0.00    +0.044 C 
BRANCH  18  19
ATOM     19  C   UNL     1       1.492  -2.126   8.264  0.00  0.00    -0.014 C 
ATOM     20  C   UNL     1       1.581  -3.630   7.998  0.00  0.00    +0.007 C 
ATOM     21  C   UNL     1       2.350  -1.772   9.481  0.00  0.00    +0.007 C 
ENDBRANCH  18  19
ENDBRANCH  17  18
ENDBRANCH  16  17
ENDBRANCH  12  16
ENDBRANCH   1   9
BRANCH   3  22
ATOM     22  O   UNL     1      -4.999  -0.750  -0.119  0.00  0.00    -0.502 OA
ATOM     23  H   UNL     1      -5.638  -1.517  -0.187  0.00  0.00    +0.292 HD
ENDBRANCH   3  22
BRANCH   2  24
ATOM     24  C   UNL     1      -2.556   1.002   0.067  0.00  0.00    +0.195 C 
ATOM     25  O   UNL     1      -2.976   1.570   1.058  0.00  0.00    -0.287 OA
BRANCH  24  26
ATOM     26  C   UNL     1      -1.988   1.787  -1.047  0.00  0.00    +0.023 A 
ATOM     27  C   UNL     1      -1.430   1.138  -2.153  0.00  0.00    +0.015 A 
ATOM     28  C   UNL     1      -0.909   1.870  -3.194  0.00  0.00    +0.046 A 
ATOM     29  C   UNL     1      -0.925   3.266  -3.155  0.00  0.00    +0.124 A 
ATOM     30  C   UNL     1      -1.472   3.906  -2.046  0.00  0.00    -0.002 A 
ATOM     31  C   UNL     1      -1.998   3.185  -1.003  0.00  0.00    +0.019 A 
ATOM     32  C   UNL     1      -1.335   5.398  -2.283  0.00  0.00    +0.083 C 
ATOM     33  C   UNL     1      -0.305   5.444  -3.436  0.00  0.00    +0.175 C 
ATOM     34  O   UNL     1      -0.479   4.166  -4.071  0.00  0.00    -0.488 OA
ATOM     35  C   UNL     1      -0.630   6.580  -4.408  0.00  0.00    +0.052 C 
ENDBRANCH  24  26
ENDBRANCH   2  24
BRANCH   6  36
ATOM     36  C   UNL     1      -1.245  -4.011  -0.183  0.00  0.00    +0.090 C 
BRANCH  36  37
ATOM     37  C   UNL     1      -0.930  -4.362  -1.639  0.00  0.00    -0.060 C 
BRANCH  37  40
ATOM     38  C   UNL     1      -0.052  -6.111  -3.065  0.00  0.00    -0.097 C 
ATOM     39  C   UNL     1       1.156  -5.453  -1.073  0.00  0.00    -0.097 C 
ATOM     40  N   UNL     1      -0.183  -5.637  -1.671  0.00  0.00    +0.377 N 
ATOM     41  H   UNL     1      -0.698  -6.339  -1.127  0.00  0.00    -0.083 HD
ENDBRANCH  37  40
ENDBRANCH  36  37
ENDBRANCH   6  36
TORSDOF 13
