REMARK  Name = ZINC12403376
REMARK  7 active torsions:
REMARK  status: ('A' for Active; 'I' for Inactive)
REMARK    1  A    between atoms: C_1  and  C_2
REMARK    2  A    between atoms: C_2  and  C_3
REMARK    3  A    between atoms: C_6  and  O_10
REMARK    4  A    between atoms: O_10  and  C_11
REMARK    5  A    between atoms: C_11  and  C_12
REMARK    6  A    between atoms: N_14  and  N_15
REMARK    7  A    between atoms: N_18  and  C_19
REMARK                            x       y       z     vdW  Elec       q    Type
REMARK                         _______ _______ _______ _____ _____    ______ ____
ROOT
ATOM      1  C   UNL     1      -3.042   4.483   6.404  0.00  0.00    +0.267 C 
ATOM      2  O   UNL     1      -3.894   3.709   6.786  0.00  0.00    -0.271 OA
ATOM      3  N   UNL     1      -2.821   5.629   7.078  0.00  0.00    -0.230 N 
ATOM      4  H   UNL     1      -2.048   6.331   6.731  0.00  0.00    +0.173 HD
ENDROOT
BRANCH   3   5
ATOM      5  N   UNL     1      -3.575   5.926   8.220  0.00  0.00    -0.218 N 
ATOM      6  C   UNL     1      -3.354   7.072   8.894  0.00  0.00    +0.316 C 
ATOM      7  O   UNL     1      -4.008   7.330   9.886  0.00  0.00    -0.251 OA
ATOM      8  N   UNL     1      -2.407   7.932   8.469  0.00  0.00    -0.295 N 
ATOM      9  H   UNL     1      -4.348   5.224   8.567  0.00  0.00    +0.174 HD
ATOM     10  H   UNL     1      -1.815   7.699   7.572  0.00  0.00    +0.151 HD
BRANCH   8  11
ATOM     11  C   UNL     1      -2.166   9.178   9.202  0.00  0.00    +0.074 C 
ATOM     12  C   UNL     1      -3.147  10.249   8.722  0.00  0.00    +0.022 C 
ATOM     13  C   UNL     1      -2.896  11.550   9.487  0.00  0.00    +0.002 C 
ATOM     14  C   UNL     1      -1.462  12.021   9.235  0.00  0.00    +0.000 C 
ATOM     15  C   UNL     1      -0.481  10.950   9.715  0.00  0.00    +0.002 C 
ATOM     16  C   UNL     1      -0.733   9.649   8.950  0.00  0.00    +0.022 C 
ENDBRANCH   8  11
ENDBRANCH   3   5
BRANCH   1  17
ATOM     17  C   UNL     1      -2.231   4.163   5.175  0.00  0.00    +0.326 C 
BRANCH  17  18
ATOM     18  O   UNL     1      -2.649   2.904   4.642  0.00  0.00    -0.482 OA
BRANCH  18  22
ATOM     19  C   UNL     1      -0.718   1.572   1.248  0.00  0.00    -0.046 A 
ATOM     20  C   UNL     1      -0.359   2.779   1.818  0.00  0.00    +0.007 A 
ATOM     21  C   UNL     1      -1.008   3.230   2.951  0.00  0.00    +0.047 A 
ATOM     22  C   UNL     1      -2.013   2.465   3.524  0.00  0.00    +0.135 A 
ATOM     23  C   UNL     1      -2.368   1.251   2.954  0.00  0.00    +0.060 A 
ATOM     24  C   UNL     1      -1.719   0.807   1.817  0.00  0.00    +0.022 A 
ATOM     25 BR   UNL     1      -3.737   0.204   3.732  0.00  0.00    -0.047 Br
BRANCH  19  27
ATOM     26  C   UNL     1      -0.753   1.593  -1.232  0.00  0.00    +0.009 C 
ATOM     27  C   UNL     1      -0.013   1.086   0.008  0.00  0.00    +0.032 C 
ENDBRANCH  19  27
ENDBRANCH  18  22
ENDBRANCH  17  18
ENDBRANCH   1  17
TORSDOF 6
