REMARK  Name = ZINC00887419
REMARK  12 active torsions:
REMARK  status: ('A' for Active; 'I' for Inactive)
REMARK    1  A    between atoms: C_1  and  C_2
REMARK    2  A    between atoms: C_5  and  N_8
REMARK    3  A    between atoms: N_8  and  C_9
REMARK    4  A    between atoms: C_9  and  C_11
REMARK    5  A    between atoms: C_9  and  C_15
REMARK    6  A    between atoms: C_11  and  C_12
REMARK    7  A    between atoms: C_12  and  C_13
REMARK    8  A    between atoms: C_12  and  C_14
REMARK    9  A    between atoms: N_17  and  C_18
REMARK   10  A    between atoms: C_24  and  C_26
REMARK   11  A    between atoms: C_26  and  N_27
REMARK   12  A    between atoms: C_29  and  C_32
REMARK                            x       y       z     vdW  Elec       q    Type
REMARK                         _______ _______ _______ _____ _____    ______ ____
ROOT
ATOM      1  N   UNL     1      -2.095   1.071   1.272  0.00  0.00    -0.258 N 
ATOM      2  C   UNL     1      -3.050   1.941   0.887  0.00  0.00    +0.244 C 
ATOM      3  O   UNL     1      -2.826   3.133   0.904  0.00  0.00    -0.273 OA
ENDROOT
BRANCH   1   8
ATOM      4  C   UNL     1      -3.278  -4.467   1.618  0.00  0.00    +0.044 C 
ATOM      5  C   UNL     1      -2.963  -2.996   1.526  0.00  0.00    -0.050 A 
ATOM      6  C   UNL     1      -3.507  -2.115   2.444  0.00  0.00    +0.005 A 
ATOM      7  C   UNL     1      -3.221  -0.767   2.362  0.00  0.00    +0.024 A 
ATOM      8  C   UNL     1      -2.386  -0.295   1.357  0.00  0.00    +0.037 A 
ATOM      9  C   UNL     1      -1.847  -1.181   0.434  0.00  0.00    +0.024 A 
ATOM     10  C   UNL     1      -2.132  -2.529   0.525  0.00  0.00    +0.005 A 
ENDBRANCH   1   8
BRANCH   1  11
ATOM     11  C   UNL     1      -0.752   1.555   1.600  0.00  0.00    +0.167 C 
BRANCH  11  12
ATOM     12  C   UNL     1      -0.381   1.105   2.989  0.00  0.00    +0.234 C 
ATOM     13  O   UNL     1      -1.162   0.444   3.641  0.00  0.00    -0.274 OA
ATOM     14  N   UNL     1       0.818   1.436   3.507  0.00  0.00    -0.311 N 
ATOM     15  H   UNL     1       1.443   1.964   2.986  0.00  0.00    +0.149 HD
BRANCH  14  16
ATOM     16  C   UNL     1       1.179   0.998   4.858  0.00  0.00    +0.073 C 
ATOM     17  C   UNL     1       0.626   1.992   5.881  0.00  0.00    +0.022 C 
ATOM     18  C   UNL     1       1.003   1.534   7.292  0.00  0.00    +0.002 C 
ATOM     19  C   UNL     1       2.526   1.467   7.417  0.00  0.00    +0.000 C 
ATOM     20  C   UNL     1       3.079   0.473   6.394  0.00  0.00    +0.002 C 
ATOM     21  C   UNL     1       2.702   0.931   4.983  0.00  0.00    +0.022 C 
ENDBRANCH  14  16
ENDBRANCH  11  12
BRANCH  11  22
ATOM     22  C   UNL     1       0.254   0.990   0.595  0.00  0.00    +0.035 C 
BRANCH  22  23
ATOM     23  C   UNL     1      -0.070   1.520  -0.803  0.00  0.00    -0.015 C 
ATOM     24  C   UNL     1       0.135   3.036  -0.835  0.00  0.00    +0.007 C 
ATOM     25  C   UNL     1       0.856   0.859  -1.826  0.00  0.00    +0.007 C 
ENDBRANCH  22  23
ENDBRANCH  11  22
ENDBRANCH   1  11
BRANCH   2  26
ATOM     26  C   UNL     1      -4.395   1.433   0.436  0.00  0.00    +0.264 C 
BRANCH  26  27
ATOM     27  N   UNL     1      -5.203   2.554  -0.048  0.00  0.00    -0.154 N 
ATOM     28  N   UNL     1      -5.235   2.980  -1.264  0.00  0.00    -0.129 NA
ATOM     29  C   UNL     1      -6.073   3.998  -1.314  0.00  0.00    +0.211 A 
ATOM     30  N   UNL     1      -6.546   4.166  -0.069  0.00  0.00    -0.107 NA
ATOM     31  N   UNL     1      -5.998   3.265   0.673  0.00  0.00    -0.045 NA
BRANCH  29  32
ATOM     32  C   UNL     1      -6.423   4.797  -2.508  0.00  0.00    +0.060 A 
ATOM     33  C   UNL     1      -7.286   5.854  -2.616  0.00  0.00    +0.019 A 
ATOM     34  C   UNL     1      -7.451   6.453  -3.846  0.00  0.00    +0.008 A 
ATOM     35  C   UNL     1      -6.763   5.971  -4.913  0.00  0.00    +0.046 A 
ATOM     36  S   UNL     1      -5.836   4.630  -4.186  0.00  0.00    -0.093 S 
ENDBRANCH  29  32
ENDBRANCH  26  27
ENDBRANCH   2  26
TORSDOF 9
