REMARK  Name = ZINC01185872
REMARK  7 active torsions:
REMARK  status: ('A' for Active; 'I' for Inactive)
REMARK    1  A    between atoms: C_1  and  C_2
REMARK    2  A    between atoms: C_9  and  C_11
REMARK    3  A    between atoms: C_14  and  N_18
REMARK    4  A    between atoms: C_16  and  O_17
REMARK    5  A    between atoms: N_18  and  C_19
REMARK    6  A    between atoms: C_19  and  N_21
REMARK    7  A    between atoms: C_22  and  C_24
REMARK                            x       y       z     vdW  Elec       q    Type
REMARK                         _______ _______ _______ _____ _____    ______ ____
ROOT
ATOM      1  C   UNL     1       0.111  -5.523   2.293  0.00  0.00    +0.078 A 
ATOM      2  C   UNL     1       0.500  -5.546   3.634  0.00  0.00    +0.018 A 
ATOM      3  C   UNL     1       0.510  -6.736   4.327  0.00  0.00    +0.024 A 
ATOM      4  C   UNL     1       0.134  -7.918   3.696  0.00  0.00    +0.036 A 
ATOM      5  C   UNL     1      -0.255  -7.904   2.362  0.00  0.00    +0.069 A 
ATOM      6  C   UNL     1      -0.274  -6.713   1.659  0.00  0.00    +0.131 A 
ENDROOT
BRANCH   1  15
ATOM      7  C   UNL     1       0.522   1.419  -0.175  0.00  0.00    +0.044 C 
ATOM      8  C   UNL     1       0.290  -0.070  -0.131  0.00  0.00    -0.048 A 
ATOM      9  C   UNL     1      -0.157  -0.731  -1.266  0.00  0.00    +0.007 A 
ATOM     10  C   UNL     1      -0.374  -2.094  -1.241  0.00  0.00    +0.049 A 
ATOM     11  C   UNL     1      -0.146  -2.809  -0.077  0.00  0.00    +0.156 A 
ATOM     12  C   UNL     1       0.306  -2.144   1.074  0.00  0.00    +0.110 A 
ATOM     13  C   UNL     1       0.528  -0.765   1.033  0.00  0.00    +0.035 A 
ATOM     14  N   UNL     1       0.439  -3.086   2.043  0.00  0.00    -0.209 NA
ATOM     15  C   UNL     1       0.099  -4.250   1.547  0.00  0.00    +0.232 A 
ATOM     16  O   UNL     1      -0.262  -4.114   0.257  0.00  0.00    -0.435 OA
ENDBRANCH   1  15
BRANCH   6  17
ATOM     17  O   UNL     1      -0.660  -6.697   0.357  0.00  0.00    -0.506 OA
ATOM     18  H   UNL     1       0.065  -6.830  -0.269  0.00  0.00    +0.292 HD
ENDBRANCH   6  17
BRANCH   4  19
ATOM     19  N   UNL     1       0.147  -9.120   4.404  0.00  0.00    -0.296 N 
ATOM     20  H   UNL     1       0.908  -9.345   4.962  0.00  0.00    +0.154 HD
BRANCH  19  21
ATOM     21  C   UNL     1      -0.897  -9.967   4.314  0.00  0.00    +0.141 C 
ATOM     22  S   UNL     1      -2.190  -9.621   3.247  0.00  0.00    -0.018 S 
BRANCH  21  23
ATOM     23  N   UNL     1      -0.922 -11.087   5.063  0.00  0.00    -0.263 N 
ATOM     24  C   UNL     1      -1.967 -11.935   4.972  0.00  0.00    +0.256 C 
ATOM     25  O   UNL     1      -2.886 -11.688   4.214  0.00  0.00    -0.269 OA
ATOM     26  H   UNL     1      -0.190 -11.284   5.667  0.00  0.00    +0.157 HD
BRANCH  24  27
ATOM     27  C   UNL     1      -1.995 -13.152   5.786  0.00  0.00    +0.074 A 
ATOM     28  C   UNL     1      -2.960 -14.147   5.839  0.00  0.00    +0.021 A 
ATOM     29  C   UNL     1      -2.706 -15.179   6.710  0.00  0.00    +0.008 A 
ATOM     30  C   UNL     1      -1.563 -15.160   7.439  0.00  0.00    +0.046 A 
ATOM     31  S   UNL     1      -0.793 -13.745   6.962  0.00  0.00    -0.092 S 
ENDBRANCH  24  27
ENDBRANCH  21  23
ENDBRANCH  19  21
ENDBRANCH   4  19
TORSDOF 6
