REMARK  Name = ZINC02060841
REMARK  12 active torsions:
REMARK  status: ('A' for Active; 'I' for Inactive)
REMARK    1  A    between atoms: C_1  and  C_2
REMARK    2  A    between atoms: C_5  and  C_8
REMARK    3  A    between atoms: C_8  and  S_9
REMARK    4  A    between atoms: S_9  and  C_10
REMARK    5  A    between atoms: C_10  and  C_11
REMARK    6  A    between atoms: C_11  and  N_12
REMARK    7  A    between atoms: C_13  and  C_15
REMARK    8  A    between atoms: C_15  and  N_16
REMARK    9  A    between atoms: N_16  and  C_17
REMARK   10  A    between atoms: N_16  and  S_26
REMARK   11  A    between atoms: C_21  and  N_23
REMARK   12  A    between atoms: S_26  and  C_29
REMARK                            x       y       z     vdW  Elec       q    Type
REMARK                         _______ _______ _______ _____ _____    ______ ____
ROOT
ATOM      1  N   UNL     1       0.041   1.050  -8.963  0.00  0.00    -0.194 N 
ENDROOT
BRANCH   1   2
ATOM      2  C   UNL     1      -1.000   0.292  -9.503  0.00  0.00    +0.054 A 
ATOM      3  C   UNL     1      -1.187   0.246 -10.879  0.00  0.00    +0.025 A 
ATOM      4  C   UNL     1      -2.215  -0.508 -11.410  0.00  0.00    +0.004 A 
ATOM      5  C   UNL     1      -3.064  -1.209 -10.573  0.00  0.00    +0.033 A 
ATOM      6  C   UNL     1      -2.884  -1.162  -9.203  0.00  0.00    +0.128 A 
ATOM      7  C   UNL     1      -1.855  -0.413  -8.666  0.00  0.00    +0.057 A 
BRANCH   6   8
ATOM      8  N   UNL     1      -3.795  -1.913  -8.311  0.00  0.00    +0.056 N 
ATOM      9  O   UNL     1      -3.638  -1.872  -7.104  0.00  0.00    -0.126 OA
ATOM     10  O   UNL     1      -4.703  -2.574  -8.784  0.00  0.00    -0.126 OA
ENDBRANCH   6   8
ENDBRANCH   1   2
BRANCH   1  11
ATOM     11  S   UNL     1       0.136   2.672  -9.282  0.00  0.00    +0.075 S 
ATOM     12  O   UNL     1      -1.148   3.071  -9.743  0.00  0.00    -0.150 OA
ATOM     13  O   UNL     1       0.761   3.272  -8.156  0.00  0.00    -0.150 OA
BRANCH  11  14
ATOM     14  C   UNL     1       1.243   2.872 -10.638  0.00  0.00    +0.109 A 
ATOM     15  C   UNL     1       2.606   2.932 -10.415  0.00  0.00    +0.029 A 
ATOM     16  C   UNL     1       3.475   3.084 -11.479  0.00  0.00    +0.002 A 
ATOM     17  C   UNL     1       2.980   3.187 -12.766  0.00  0.00    +0.000 A 
ATOM     18  C   UNL     1       1.617   3.132 -12.989  0.00  0.00    +0.002 A 
ATOM     19  C   UNL     1       0.748   2.975 -11.925  0.00  0.00    +0.029 A 
ENDBRANCH  11  14
ENDBRANCH   1  11
BRANCH   1  20
ATOM     20  C   UNL     1       1.049   0.410  -8.114  0.00  0.00    +0.227 C 
BRANCH  20  22
ATOM     21  N   UNL     1       1.312  -0.197  -5.731  0.00  0.00    -0.313 N 
ATOM     22  C   UNL     1       0.547   0.353  -6.694  0.00  0.00    +0.232 C 
ATOM     23  O   UNL     1      -0.545   0.803  -6.419  0.00  0.00    -0.274 OA
ATOM     24  H   UNL     1       2.185  -0.557  -5.951  0.00  0.00    +0.149 HD
BRANCH  21  25
ATOM     25  C   UNL     1       0.824  -0.253  -4.350  0.00  0.00    +0.115 C 
BRANCH  25  26
ATOM     26  C   UNL     1       1.876  -0.921  -3.464  0.00  0.00    +0.088 C 
BRANCH  26  27
ATOM     27  S   UNL     1       1.272  -0.989  -1.755  0.00  0.00    -0.155 S 
BRANCH  27  28
ATOM     28  C   UNL     1       2.618  -1.798  -0.846  0.00  0.00    +0.104 C 
BRANCH  28  33
ATOM     29  C   UNL     1       1.169  -2.263   4.729  0.00  0.00    +0.044 C 
ATOM     30  C   UNL     1       1.547  -2.142   3.276  0.00  0.00    -0.050 A 
ATOM     31  C   UNL     1       1.225  -3.154   2.391  0.00  0.00    +0.003 A 
ATOM     32  C   UNL     1       1.572  -3.043   1.057  0.00  0.00    +0.005 A 
ATOM     33  C   UNL     1       2.240  -1.919   0.608  0.00  0.00    -0.038 A 
ATOM     34  C   UNL     1       2.566  -0.909   1.494  0.00  0.00    +0.005 A 
ATOM     35  C   UNL     1       2.216  -1.018   2.827  0.00  0.00    +0.003 A 
ENDBRANCH  28  33
ENDBRANCH  27  28
ENDBRANCH  26  27
ENDBRANCH  25  26
ENDBRANCH  21  25
ENDBRANCH  20  22
ENDBRANCH   1  20
TORSDOF 11
