REMARK  Name = ZINC13064300
REMARK  13 active torsions:
REMARK  status: ('A' for Active; 'I' for Inactive)
REMARK    1  A    between atoms: C_1  and  C_2
REMARK    2  A    between atoms: C_2  and  C_3
REMARK    3  A    between atoms: C_3  and  C_5
REMARK    4  A    between atoms: C_3  and  N_74
REMARK    5  A    between atoms: N_9  and  C_10
REMARK    6  A    between atoms: C_10  and  C_11
REMARK    7  A    between atoms: C_14  and  O_17
REMARK    8  A    between atoms: O_17  and  C_18
REMARK    9  A    between atoms: C_19  and  C_20
REMARK   10  A    between atoms: C_19  and  N_74
REMARK   11  A    between atoms: C_25  and  O_32
REMARK   12  A    between atoms: O_32  and  C_33
REMARK   13  A    between atoms: C_34  and  N_74
REMARK                            x       y       z     vdW  Elec       q    Type
REMARK                         _______ _______ _______ _____ _____    ______ ____
ROOT
ATOM      1  N   UNL     1      -8.205  -1.427   3.850  0.00  0.00    +0.391 N 
ATOM      2  H   UNL     1      -7.604  -1.287   4.670  0.00  0.00    -0.080 HD
ENDROOT
BRANCH   1   3
ATOM      3  C   UNL     1      -7.712  -2.592   3.086  0.00  0.00    -0.067 C 
ATOM      4  C   UNL     1      -8.681  -2.940   1.954  0.00  0.00    -0.015 C 
ATOM      5  C   UNL     1      -8.150  -4.150   1.183  0.00  0.00    -0.002 C 
ATOM      6  C   UNL     1      -8.024  -5.344   2.131  0.00  0.00    -0.000 C 
ATOM      7  C   UNL     1      -7.055  -4.997   3.263  0.00  0.00    -0.002 C 
ATOM      8  C   UNL     1      -7.586  -3.787   4.035  0.00  0.00    -0.015 C 
ENDBRANCH   1   3
BRANCH   1   9
ATOM      9  C   UNL     1      -9.590  -1.670   4.306  0.00  0.00    +0.003 C 
BRANCH   9  10
ATOM     10  C   UNL     1     -10.563  -1.454   3.175  0.00  0.00    +0.138 A 
ATOM     11  N   UNL     1     -10.623  -0.410   2.384  0.00  0.00    -0.115 NA
ATOM     12  N   UNL     1     -11.585  -0.600   1.548  0.00  0.00    -0.023 NA
ATOM     13  N   UNL     1     -12.140  -1.738   1.786  0.00  0.00    -0.044 NA
ATOM     14  N   UNL     1     -11.534  -2.297   2.778  0.00  0.00    -0.226 N 
BRANCH  14  15
ATOM     15  C   UNL     1     -11.847  -3.602   3.365  0.00  0.00    +0.182 C 
BRANCH  15  16
ATOM     16  C   UNL     1     -12.862  -3.428   4.465  0.00  0.00    -0.026 A 
ATOM     17  C   UNL     1     -12.440  -3.209   5.764  0.00  0.00    +0.009 A 
ATOM     18  C   UNL     1     -13.368  -3.043   6.774  0.00  0.00    +0.046 A 
ATOM     19  C   UNL     1     -14.724  -3.108   6.486  0.00  0.00    +0.120 A 
ATOM     20  C   UNL     1     -15.144  -3.333   5.183  0.00  0.00    +0.046 A 
ATOM     21  C   UNL     1     -14.212  -3.492   4.176  0.00  0.00    +0.009 A 
BRANCH  19  22
ATOM     22  O   UNL     1     -15.639  -2.950   7.478  0.00  0.00    -0.495 OA
ATOM     23  C   UNL     1     -15.134  -2.722   8.796  0.00  0.00    +0.277 C 
ENDBRANCH  19  22
ENDBRANCH  15  16
ENDBRANCH  14  15
ENDBRANCH   9  10
BRANCH   9  25
ATOM     24  C   UNL     1      -9.012  -1.013   6.646  0.00  0.00    +0.002 C 
ATOM     25  C   UNL     1      -9.909  -0.701   5.446  0.00  0.00    -0.011 C 
ENDBRANCH   9  25
ENDBRANCH   1   9
BRANCH   1  26
ATOM     26  C   UNL     1      -8.157  -0.214   3.007  0.00  0.00    -0.036 C 
BRANCH  26  27
ATOM     27  C   UNL     1      -6.721   0.224   2.871  0.00  0.00    +0.001 A 
ATOM     28  C   UNL     1      -6.065   0.037   1.698  0.00  0.00    +0.017 A 
ATOM     29  C   UNL     1      -4.673   0.472   1.598  0.00  0.00    -0.001 A 
ATOM     30  C   UNL     1      -3.946   0.304   0.413  0.00  0.00    +0.013 A 
ATOM     31  C   UNL     1      -2.650   0.725   0.347  0.00  0.00    +0.046 A 
ATOM     32  C   UNL     1      -2.039   1.311   1.455  0.00  0.00    +0.122 A 
ATOM     33  C   UNL     1      -2.740   1.486   2.636  0.00  0.00    +0.072 A 
ATOM     34  C   UNL     1      -4.062   1.069   2.719  0.00  0.00    +0.053 A 
ATOM     35  N   UNL     1      -4.784   1.230   3.883  0.00  0.00    -0.322 N 
ATOM     36  H   UNL     1      -4.363   1.641   4.654  0.00  0.00    +0.169 HD
ATOM     37  C   UNL     1      -6.064   0.827   3.964  0.00  0.00    +0.251 A 
ATOM     38  O   UNL     1      -6.672   0.985   5.009  0.00  0.00    -0.268 OA
BRANCH  32  39
ATOM     39  O   UNL     1      -0.747   1.719   1.373  0.00  0.00    -0.495 OA
ATOM     40  C   UNL     1      -0.078   1.511   0.128  0.00  0.00    +0.277 C 
ENDBRANCH  32  39
ENDBRANCH  26  27
ENDBRANCH   1  26
TORSDOF 10
