REMARK  Name = ZINC21715367
REMARK  5 active torsions:
REMARK  status: ('A' for Active; 'I' for Inactive)
REMARK    1  A    between atoms: C_4  and  C_7
REMARK    2  A    between atoms: C_7  and  C_8
REMARK    3  A    between atoms: C_7  and  N_14
REMARK    4  A    between atoms: C_22  and  C_31
REMARK    5  A    between atoms: C_25  and  N_30
REMARK                            x       y       z     vdW  Elec       q    Type
REMARK                         _______ _______ _______ _____ _____    ______ ____
ROOT
ATOM      1  N   UNL     1       6.350   6.246   1.035  0.00  0.00    -0.289 NA
ATOM      2  C   UNL     1       5.393   6.608  -0.020  0.00  0.00    +0.104 C 
ATOM      3  C   UNL     1       4.178   5.680   0.057  0.00  0.00    +0.122 C 
ATOM      4  N   UNL     1       4.619   4.286  -0.091  0.00  0.00    -0.314 N 
ATOM      5  C   UNL     1       5.576   3.925   0.964  0.00  0.00    +0.122 C 
ATOM      6  C   UNL     1       6.791   4.853   0.887  0.00  0.00    +0.104 C 
ATOM      7  C   UNL     1       3.535   3.419  -0.098  0.00  0.00    +0.100 A 
ATOM      8  C   UNL     1       3.770   2.044  -0.231  0.00  0.00    +0.057 A 
ATOM      9  C   UNL     1       2.695   1.166  -0.239  0.00  0.00    +0.075 A 
ATOM     10  C   UNL     1       1.356   1.743  -0.105  0.00  0.00    +0.014 A 
ATOM     11  C   UNL     1       0.213   0.939  -0.102  0.00  0.00    +0.033 A 
ATOM     12  C   UNL     1      -1.030   1.527   0.022  0.00  0.00    +0.025 A 
ATOM     13  C   UNL     1      -1.149   2.915   0.154  0.00  0.00    +0.025 A 
ATOM     14  C   UNL     1      -0.050   3.715   0.153  0.00  0.00    +0.028 A 
ATOM     15  C   UNL     1       1.232   3.149   0.024  0.00  0.00    +0.049 A 
ATOM     16  N   UNL     1       2.325   3.917   0.021  0.00  0.00    -0.343 N 
ATOM     17  H   UNL     1       2.185   5.003   0.123  0.00  0.00    +0.167 HD
ENDROOT
BRANCH  12  18
ATOM     18  N   UNL     1      -2.176   0.730   0.020  0.00  0.00    -0.358 N 
ATOM     19  H   UNL     1      -3.168   1.194   0.118  0.00  0.00    +0.142 HD
ATOM     20  H   UNL     1      -2.087  -0.361  -0.080  0.00  0.00    +0.142 HD
ENDBRANCH  12  18
BRANCH   9  21
ATOM     21  C   UNL     1       2.894  -0.291  -0.378  0.00  0.00    +0.387 C 
ATOM     22  O   UNL     1       1.946  -1.045  -0.283  0.00  0.00    -0.241 OA
ATOM     23  O   UNL     1       4.126  -0.784  -0.609  0.00  0.00    -0.241 OA
ENDBRANCH   9  21
BRANCH   1  24
ATOM     24  C   UNL     1       7.497   7.164   1.042  0.00  0.00    +0.117 C 
BRANCH  24  28
ATOM     25  C   UNL     1       6.128  11.150   1.738  0.00  0.00    +0.000 A 
ATOM     26  C   UNL     1       7.066  10.903   0.753  0.00  0.00    +0.000 A 
ATOM     27  C   UNL     1       7.509   9.614   0.528  0.00  0.00    +0.005 A 
ATOM     28  C   UNL     1       7.014   8.570   1.288  0.00  0.00    -0.026 A 
ATOM     29  C   UNL     1       6.072   8.816   2.269  0.00  0.00    +0.005 A 
ATOM     30  C   UNL     1       5.633  10.107   2.498  0.00  0.00    +0.000 A 
ENDBRANCH  24  28
BRANCH  24  31
ATOM     31  C   UNL     1       8.454   6.763   2.135  0.00  0.00    -0.026 A 
ATOM     32  C   UNL     1       7.977   6.482   3.402  0.00  0.00    +0.005 A 
ATOM     33  C   UNL     1       8.854   6.109   4.404  0.00  0.00    +0.000 A 
ATOM     34  C   UNL     1      10.209   6.028   4.141  0.00  0.00    +0.000 A 
ATOM     35  C   UNL     1      10.686   6.315   2.876  0.00  0.00    +0.000 A 
ATOM     36  C   UNL     1       9.809   6.682   1.873  0.00  0.00    +0.005 A 
ENDBRANCH  24  31
ENDBRANCH   1  24
TORSDOF 5
