REMARK  Name = ZINC41295570
REMARK  4 active torsions:
REMARK  status: ('A' for Active; 'I' for Inactive)
REMARK    1  A    between atoms: C_10  and  C_13
REMARK    2  A    between atoms: C_13  and  C_14
REMARK    3  A    between atoms: N_16  and  C_17
REMARK    4  A    between atoms: C_20  and  O_23
REMARK                            x       y       z     vdW  Elec       q    Type
REMARK                         _______ _______ _______ _____ _____    ______ ____
ROOT
ATOM      1  C   UNL     1       3.414  -2.080  -2.397  0.00  0.00    +0.119 C 
ENDROOT
BRANCH   1  11
ATOM      2  C   UNL     1      -0.017   1.377   0.010  0.00  0.00    +0.002 A 
ATOM      3  C   UNL     1       1.166   2.094   0.002  0.00  0.00    +0.001 A 
ATOM      4  C   UNL     1       2.377   1.426  -0.008  0.00  0.00    +0.016 A 
ATOM      5  C   UNL     1       2.401   0.041  -0.015  0.00  0.00    +0.030 A 
ATOM      6  C   UNL     1       1.213  -0.690  -0.015  0.00  0.00    +0.047 A 
ATOM      7  C   UNL     1       0.002  -0.004   0.002  0.00  0.00    +0.024 A 
ATOM      8  N   UNL     1       1.205  -2.081  -0.044  0.00  0.00    -0.284 N 
ATOM      9  C   UNL     1       2.221  -2.873  -0.370  0.00  0.00    +0.231 C 
ATOM     10  O   UNL     1       2.083  -4.071  -0.238  0.00  0.00    -0.274 OA
ATOM     11  C   UNL     1       3.534  -2.357  -0.897  0.00  0.00    +0.146 C 
ATOM     12  S   UNL     1       3.943  -0.819  -0.017  0.00  0.00    -0.110 S 
ATOM     13  H   UNL     1       0.373  -2.517   0.199  0.00  0.00    +0.155 HD
ENDBRANCH   1  11
BRANCH   1  14
ATOM     14  C   UNL     1       4.760  -1.682  -2.944  0.00  0.00    +0.215 C 
ATOM     15  O   UNL     1       5.722  -1.625  -2.207  0.00  0.00    -0.276 OA
ATOM     16  N   UNL     1       4.896  -1.388  -4.252  0.00  0.00    -0.312 N 
ATOM     17  H   UNL     1       4.127  -1.434  -4.842  0.00  0.00    +0.149 HD
BRANCH  16  18
ATOM     18  C   UNL     1       6.205  -1.001  -4.784  0.00  0.00    +0.073 C 
ATOM     19  C   UNL     1       6.416   0.500  -4.576  0.00  0.00    +0.025 C 
ATOM     20  C   UNL     1       5.319   1.275  -5.308  0.00  0.00    +0.033 C 
ATOM     21  C   UNL     1       5.377   0.954  -6.803  0.00  0.00    +0.115 C 
ATOM     22  C   UNL     1       5.166  -0.547  -7.011  0.00  0.00    +0.033 C 
ATOM     23  C   UNL     1       6.264  -1.322  -6.279  0.00  0.00    +0.025 C 
BRANCH  21  24
ATOM     24  O   UNL     1       4.352   1.678  -7.486  0.00  0.00    -0.392 OA
ATOM     25  H   UNL     1       4.330   1.523  -8.440  0.00  0.00    +0.210 HD
ENDBRANCH  21  24
ENDBRANCH  16  18
ENDBRANCH   1  14
TORSDOF 4
