REMARK  Name = ZINC04284496
REMARK  5 active torsions:
REMARK  status: ('A' for Active; 'I' for Inactive)
REMARK    1  A    between atoms: C_3  and  O_12
REMARK    2  A    between atoms: O_12  and  C_13
REMARK    3  A    between atoms: C_15  and  O_25
REMARK    4  A    between atoms: C_17  and  O_24
REMARK    5  A    between atoms: C_19  and  O_23
REMARK                            x       y       z     vdW  Elec       q    Type
REMARK                         _______ _______ _______ _____ _____    ______ ____
ROOT
ATOM      1  O   UNL     1       2.412   5.142  -0.130  0.00  0.00    -0.461 OA
ENDROOT
BRANCH   1   4
ATOM      2  C   UNL     1       5.961   5.897  -0.011  0.00  0.00    +0.012 A 
ATOM      3  C   UNL     1       4.792   5.202  -0.031  0.00  0.00    +0.046 A 
ATOM      4  C   UNL     1       3.563   5.864  -0.106  0.00  0.00    +0.125 A 
ATOM      5  C   UNL     1       3.504   7.229  -0.149  0.00  0.00    +0.054 A 
ATOM      6  C   UNL     1       4.692   7.976  -0.124  0.00  0.00    -0.014 A 
ATOM      7  C   UNL     1       5.938   7.302  -0.053  0.00  0.00    -0.017 A 
ATOM      8  C   UNL     1       7.126   8.051  -0.028  0.00  0.00    +0.023 A 
ATOM      9  C   UNL     1       7.067   9.411  -0.071  0.00  0.00    +0.018 A 
ATOM     10  C   UNL     1       5.842  10.074  -0.140  0.00  0.00    +0.016 A 
ATOM     11  C   UNL     1       4.671   9.381  -0.167  0.00  0.00    +0.010 A 
ATOM     12 BR   UNL     1       8.669  10.415  -0.036  0.00  0.00    -0.050 Br
ENDBRANCH   1   4
BRANCH   1  13
ATOM     13  C   UNL     1       2.538   3.720  -0.082  0.00  0.00    +0.339 C 
ATOM     14  C   UNL     1       1.147   3.087   0.008  0.00  0.00    +0.214 C 
ATOM     15  C   UNL     1       1.286   1.562  -0.002  0.00  0.00    +0.180 C 
ATOM     16  C   UNL     1       2.038   1.137  -1.267  0.00  0.00    +0.171 C 
ATOM     17  C   UNL     1       3.395   1.845  -1.307  0.00  0.00    +0.198 C 
ATOM     18  O   UNL     1       3.194   3.259  -1.265  0.00  0.00    -0.337 OA
BRANCH  16  19
ATOM     19  O   UNL     1       2.238  -0.278  -1.251  0.00  0.00    -0.387 OA
ATOM     20  H   UNL     1       2.709  -0.617  -2.025  0.00  0.00    +0.210 HD
ENDBRANCH  16  19
BRANCH  15  21
ATOM     21  O   UNL     1      -0.011   0.963   0.007  0.00  0.00    -0.386 OA
ATOM     22  H   UNL     1       0.002  -0.004   0.002  0.00  0.00    +0.210 HD
ENDBRANCH  15  21
BRANCH  14  23
ATOM     23  O   UNL     1       0.511   3.501   1.219  0.00  0.00    -0.383 OA
ATOM     24  H   UNL     1       0.390   4.457   1.292  0.00  0.00    +0.210 HD
ENDBRANCH  14  23
ENDBRANCH   1  13
TORSDOF 5
