REMARK  Name = ZINC16187700
REMARK  5 active torsions:
REMARK  status: ('A' for Active; 'I' for Inactive)
REMARK    1  A    between atoms: C_8  and  O_9
REMARK    2  A    between atoms: C_10  and  N_12
REMARK    3  A    between atoms: N_12  and  C_13
REMARK    4  A    between atoms: C_13  and  N_15
REMARK    5  A    between atoms: N_15  and  C_16
REMARK                            x       y       z     vdW  Elec       q    Type
REMARK                         _______ _______ _______ _____ _____    ______ ____
ROOT
ATOM      1  N   UNL     1      -1.245   2.547   0.271  0.00  0.00    -0.296 N 
ATOM      2  H   UNL     1      -1.144   3.140  -0.490  0.00  0.00    +0.154 HD
ENDROOT
BRANCH   1  11
ATOM      3  C   UNL     1      -3.951   0.238   1.229  0.00  0.00    +0.003 A 
ATOM      4  C   UNL     1      -5.027   1.068   1.322  0.00  0.00    +0.012 A 
ATOM      5  C   UNL     1      -4.878   2.440   1.064  0.00  0.00    +0.025 A 
ATOM      6  C   UNL     1      -3.605   2.950   0.713  0.00  0.00    +0.007 A 
ATOM      7  C   UNL     1      -3.459   4.322   0.451  0.00  0.00    +0.010 A 
ATOM      8  C   UNL     1      -4.539   5.147   0.545  0.00  0.00    +0.004 A 
ATOM      9  C   UNL     1      -5.792   4.652   0.894  0.00  0.00    +0.046 A 
ATOM     10  C   UNL     1      -5.975   3.323   1.152  0.00  0.00    +0.125 A 
ATOM     11  C   UNL     1      -2.509   2.067   0.620  0.00  0.00    +0.040 A 
ATOM     12  C   UNL     1      -2.695   0.727   0.881  0.00  0.00    +0.024 A 
BRANCH  10  13
ATOM     13  O   UNL     1      -7.204   2.854   1.492  0.00  0.00    -0.506 OA
ATOM     14  H   UNL     1      -7.377   2.860   2.443  0.00  0.00    +0.292 HD
ENDBRANCH  10  13
ENDBRANCH   1  11
BRANCH   1  15
ATOM     15  C   UNL     1      -0.165   2.188   0.993  0.00  0.00    +0.139 C 
ATOM     16  S   UNL     1      -0.324   1.054   2.266  0.00  0.00    -0.018 S 
BRANCH  15  17
ATOM     17  N   UNL     1       1.042   2.716   0.709  0.00  0.00    -0.297 N 
ATOM     18  H   UNL     1       1.148   3.297  -0.061  0.00  0.00    +0.154 HD
BRANCH  17  19
ATOM     19  C   UNL     1       2.142   2.428   1.524  0.00  0.00    +0.034 A 
ATOM     20  C   UNL     1       1.998   2.410   2.906  0.00  0.00    +0.025 A 
ATOM     21  C   UNL     1       3.083   2.120   3.709  0.00  0.00    +0.023 A 
ATOM     22  C   UNL     1       4.317   1.859   3.139  0.00  0.00    +0.059 A 
ATOM     23  C   UNL     1       4.465   1.881   1.762  0.00  0.00    +0.061 A 
ATOM     24  C   UNL     1       3.380   2.165   0.954  0.00  0.00    +0.044 A 
ATOM     25 CL   UNL     1       6.014   1.552   1.051  0.00  0.00    -0.082 Cl
ATOM     26 CL   UNL     1       5.681   1.501   4.152  0.00  0.00    -0.082 Cl
ENDBRANCH  17  19
ENDBRANCH  15  17
ENDBRANCH   1  15
TORSDOF 5
