REMARK  Name = ZINC08937677
REMARK  6 active torsions:
REMARK  status: ('A' for Active; 'I' for Inactive)
REMARK    1  A    between atoms: C_2  and  C_3
REMARK    2  A    between atoms: C_3  and  N_4
REMARK    3  A    between atoms: C_5  and  C_26
REMARK    4  A    between atoms: C_8  and  S_9
REMARK    5  A    between atoms: S_9  and  C_10
REMARK    6  A    between atoms: C_10  and  C_11
REMARK                            x       y       z     vdW  Elec       q    Type
REMARK                         _______ _______ _______ _____ _____    ______ ____
ROOT
ATOM      1  C   UNL     1       1.874   8.116   2.663  0.00  0.00    +0.173 C 
ENDROOT
BRANCH   1   2
ATOM      2  C   UNL     1       2.887   9.124   3.143  0.00  0.00    +0.227 C 
ATOM      3  O   UNL     1       3.838   9.406   2.445  0.00  0.00    -0.275 OA
ATOM      4  N   UNL     1       2.736   9.711   4.346  0.00  0.00    -0.278 N 
ATOM      5  C   UNL     1       2.060   9.020   5.457  0.00  0.00    +0.204 C 
ATOM      6  C   UNL     1       2.937   9.128   6.683  0.00  0.00    +0.237 C 
ATOM      7  O   UNL     1       2.836   8.298   7.561  0.00  0.00    -0.274 OA
ATOM      8  N   UNL     1       3.823  10.124   6.821  0.00  0.00    -0.253 N 
ATOM      9  C   UNL     1       4.034  11.056   5.880  0.00  0.00    +0.243 C 
ATOM     10  O   UNL     1       4.882  11.903   6.061  0.00  0.00    -0.273 OA
ATOM     11  C   UNL     1       3.236  11.070   4.603  0.00  0.00    +0.114 C 
ATOM     12  C   UNL     1       2.053  12.028   4.742  0.00  0.00    +0.035 C 
ATOM     13  C   UNL     1       1.239  12.025   3.446  0.00  0.00    +0.003 C 
ATOM     14  C   UNL     1       2.129  12.473   2.284  0.00  0.00    +0.000 C 
ATOM     15  C   UNL     1       3.310  11.511   2.146  0.00  0.00    +0.003 C 
ATOM     16  C   UNL     1       4.125  11.513   3.441  0.00  0.00    +0.035 C 
ATOM     17  H   UNL     1       4.337  10.174   7.642  0.00  0.00    +0.158 HD
ENDBRANCH   1   2
BRANCH   1  18
ATOM     18  S   UNL     1       2.351   7.513   1.025  0.00  0.00    -0.077 S 
BRANCH  18  23
ATOM     19  N   UNL     1       0.864   5.618  -0.399  0.00  0.00    -0.302 N 
ATOM     20  C   UNL     1      -0.287   4.909  -0.191  0.00  0.00    +0.139 A 
ATOM     21  N   UNL     1      -0.751   5.256   0.976  0.00  0.00    -0.133 NA
ATOM     22  N   UNL     1       0.027   6.123   1.520  0.00  0.00    -0.122 NA
ATOM     23  C   UNL     1       1.033   6.385   0.718  0.00  0.00    +0.192 A 
BRANCH  20  24
ATOM     24  C   UNL     1      -0.906   3.914  -1.138  0.00  0.00    +0.079 C 
ATOM     25  C   UNL     1      -0.978   2.537  -0.458  0.00  0.00    +0.035 C 
ATOM     26  C   UNL     1      -1.892   1.619  -1.318  0.00  0.00    +0.166 C 
ATOM     27  S   UNL     1      -3.228   2.804  -1.772  0.00  0.00    -0.030 S 
ATOM     28  O   UNL     1      -4.275   2.710  -0.815  0.00  0.00    -0.174 OA
ATOM     29  O   UNL     1      -3.529   2.655  -3.153  0.00  0.00    -0.174 OA
ATOM     30  C   UNL     1      -2.329   4.388  -1.522  0.00  0.00    +0.177 C 
ENDBRANCH  20  24
BRANCH  19  31
ATOM     31  C   UNL     1       1.735   5.566  -1.576  0.00  0.00    +0.152 C 
BRANCH  31  33
ATOM     32  C   UNL     1       2.125   7.486  -3.033  0.00  0.00    +0.005 C 
ATOM     33  C   UNL     1       1.281   6.591  -2.583  0.00  0.00    -0.013 C 
ENDBRANCH  31  33
ENDBRANCH  19  31
ENDBRANCH  18  23
ENDBRANCH   1  18
TORSDOF 6
