REMARK  Name = ZINC64900673
REMARK  5 active torsions:
REMARK  status: ('A' for Active; 'I' for Inactive)
REMARK    1  A    between atoms: C_1  and  C_2
REMARK    2  A    between atoms: C_5  and  C_8
REMARK    3  A    between atoms: C_15  and  C_18
REMARK    4  A    between atoms: N_20  and  N_21
REMARK    5  A    between atoms: N_24  and  C_25
REMARK                            x       y       z     vdW  Elec       q    Type
REMARK                         _______ _______ _______ _____ _____    ______ ____
ROOT
ATOM      1  C   UNL     1       0.059  -4.275  -0.021  0.00  0.00    -0.003 C 
ATOM      2  C   UNL     1       1.311  -4.765  -0.752  0.00  0.00    +0.015 C 
ATOM      3  C   UNL     1       1.331  -6.295  -0.761  0.00  0.00    -0.009 C 
ATOM      4  C   UNL     1       0.084  -6.817  -1.478  0.00  0.00    +0.007 C 
ATOM      5  C   UNL     1      -1.167  -6.327  -0.747  0.00  0.00    -0.009 C 
ATOM      6  C   UNL     1      -1.187  -4.798  -0.739  0.00  0.00    +0.015 C 
ATOM      7  C   UNL     1      -1.153  -6.845   0.693  0.00  0.00    +0.019 C 
ATOM      8  C   UNL     1       0.094  -6.323   1.410  0.00  0.00    +0.050 C 
ATOM      9  C   UNL     1       1.345  -6.813   0.679  0.00  0.00    +0.019 C 
ATOM     10  C   UNL     1       0.074  -4.793   1.418  0.00  0.00    +0.027 C 
ENDROOT
BRANCH   1  15
ATOM     11  C   UNL     1      -0.018   1.503   0.010  0.00  0.00    +0.044 C 
ATOM     12  C   UNL     1       0.002  -0.004   0.002  0.00  0.00    -0.050 A 
ATOM     13  C   UNL     1       0.006  -0.689  -1.199  0.00  0.00    +0.003 A 
ATOM     14  C   UNL     1       0.025  -2.071  -1.206  0.00  0.00    +0.004 A 
ATOM     15  C   UNL     1       0.040  -2.768  -0.013  0.00  0.00    -0.041 A 
ATOM     16  C   UNL     1       0.037  -2.084   1.188  0.00  0.00    +0.004 A 
ATOM     17  C   UNL     1       0.023  -0.702   1.195  0.00  0.00    +0.003 A 
ENDBRANCH   1  15
BRANCH   8  18
ATOM     18  C   UNL     1       0.108  -6.833   2.828  0.00  0.00    +0.235 C 
ATOM     19  O   UNL     1       0.103  -6.050   3.754  0.00  0.00    -0.274 OA
ATOM     20  N   UNL     1       0.127  -8.159   3.067  0.00  0.00    -0.233 N 
ATOM     21  H   UNL     1       0.131  -8.786   2.326  0.00  0.00    +0.173 HD
BRANCH  20  22
ATOM     22  N   UNL     1       0.140  -8.633   4.385  0.00  0.00    -0.218 N 
ATOM     23  C   UNL     1       0.158  -9.960   4.624  0.00  0.00    +0.316 C 
ATOM     24  O   UNL     1       0.170 -10.371   5.768  0.00  0.00    -0.251 OA
ATOM     25  N   UNL     1       0.164 -10.830   3.595  0.00  0.00    -0.295 N 
ATOM     26  H   UNL     1       0.136  -8.007   5.126  0.00  0.00    +0.174 HD
ATOM     27  H   UNL     1       0.155 -10.502   2.682  0.00  0.00    +0.151 HD
BRANCH  25  28
ATOM     28  C   UNL     1       0.184 -12.271   3.854  0.00  0.00    +0.075 C 
ATOM     29  C   UNL     1       1.127 -13.129   3.008  0.00  0.00    +0.024 C 
ATOM     30  C   UNL     1      -0.384 -13.192   2.772  0.00  0.00    +0.024 C 
ENDBRANCH  25  28
ENDBRANCH  20  22
ENDBRANCH   8  18
TORSDOF 4
