REMARK  Name = ZINC55253265
REMARK  4 active torsions:
REMARK  status: ('A' for Active; 'I' for Inactive)
REMARK    1  A    between atoms: C_4  and  O_17
REMARK    2  A    between atoms: C_5  and  C_7
REMARK    3  A    between atoms: O_17  and  C_18
REMARK    4  A    between atoms: C_18  and  C_20
REMARK                            x       y       z     vdW  Elec       q    Type
REMARK                         _______ _______ _______ _____ _____    ______ ____
ROOT
ATOM      1  C   UNL     1      -0.113   1.223  -0.097  0.00  0.00    +0.001 A 
ATOM      2  C   UNL     1       0.989   2.061  -0.113  0.00  0.00    +0.004 A 
ATOM      3  C   UNL     1       2.266   1.535  -0.059  0.00  0.00    +0.047 A 
ATOM      4  C   UNL     1       2.451   0.164   0.012  0.00  0.00    +0.142 A 
ATOM      5  C   UNL     1       1.339  -0.686   0.028  0.00  0.00    +0.062 A 
ATOM      6  C   UNL     1       0.055  -0.144  -0.027  0.00  0.00    +0.015 A 
ENDROOT
BRANCH   5   7
ATOM      7  C   UNL     1       1.525  -2.151   0.102  0.00  0.00    +0.168 A 
ATOM      8  N   UNL     1       2.304  -2.802   0.940  0.00  0.00    -0.129 NA
ATOM      9  N   UNL     1       2.213  -4.068   0.725  0.00  0.00    -0.134 NA
ATOM     10  C   UNL     1       1.376  -4.295  -0.248  0.00  0.00    +0.134 A 
ATOM     11  N   UNL     1       0.916  -3.090  -0.680  0.00  0.00    -0.311 N 
ATOM     12  C   UNL     1      -0.026  -2.858  -1.775  0.00  0.00    +0.125 C 
ATOM     13  C   UNL     1      -0.947  -4.072  -1.917  0.00  0.00    +0.022 C 
ATOM     14  C   UNL     1      -0.321  -5.085  -2.873  0.00  0.00    +0.002 C 
ATOM     15  C   UNL     1       1.015  -5.582  -2.329  0.00  0.00    +0.008 C 
ATOM     16  C   UNL     1       0.966  -5.634  -0.804  0.00  0.00    +0.076 C 
ENDBRANCH   5   7
BRANCH   4  17
ATOM     17  O   UNL     1       3.706  -0.354   0.064  0.00  0.00    -0.425 OA
BRANCH  17  18
ATOM     18  C   UNL     1       4.247  -0.812  -1.076  0.00  0.00    +0.316 C 
ATOM     19  O   UNL     1       3.662  -0.668  -2.123  0.00  0.00    -0.250 OA
BRANCH  18  20
ATOM     20  C   UNL     1       5.584  -1.506  -1.049  0.00  0.00    +0.102 C 
ATOM     21  C   UNL     1       5.979  -1.919  -2.473  0.00  0.00    +0.019 C 
ATOM     22  C   UNL     1       7.246  -2.774  -2.395  0.00  0.00    +0.028 C 
ATOM     23  C   UNL     1       8.279  -2.091  -1.546  0.00  0.00    -0.031 C 
ATOM     24  C   UNL     1       8.019  -1.126  -0.724  0.00  0.00    -0.030 C 
ATOM     25  C   UNL     1       6.649  -0.550  -0.505  0.00  0.00    +0.041 C 
ENDBRANCH  18  20
ENDBRANCH  17  18
ENDBRANCH   4  17
TORSDOF 4
