REMARK  Name = ZINC08720411
REMARK  15 active torsions:
REMARK  status: ('A' for Active; 'I' for Inactive)
REMARK    1  A    between atoms: C_1  and  C_2
REMARK    2  A    between atoms: C_3  and  C_34
REMARK    3  A    between atoms: C_7  and  N_33
REMARK    4  A    between atoms: C_9  and  C_11
REMARK    5  A    between atoms: C_11  and  C_13
REMARK    6  A    between atoms: C_11  and  S_14
REMARK    7  A    between atoms: S_14  and  C_15
REMARK    8  A    between atoms: C_18  and  C_21
REMARK    9  A    between atoms: N_19  and  N_20
REMARK   10  A    between atoms: C_21  and  O_22
REMARK   11  A    between atoms: O_22  and  C_23
REMARK   12  A    between atoms: C_26  and  C_29
REMARK   13  A    between atoms: C_29  and  C_30
REMARK   14  A    between atoms: C_29  and  C_31
REMARK   15  A    between atoms: C_29  and  C_32
REMARK                            x       y       z     vdW  Elec       q    Type
REMARK                         _______ _______ _______ _____ _____    ______ ____
ROOT
ATOM      1  C   UNL     1      -1.699   6.960   2.922  0.00  0.00    +0.209 A 
ATOM      2  N   UNL     1      -2.433   7.761   2.185  0.00  0.00    -0.121 NA
ATOM      3  N   UNL     1      -2.408   8.949   2.674  0.00  0.00    -0.128 NA
ATOM      4  C   UNL     1      -1.657   8.980   3.737  0.00  0.00    +0.189 A 
ATOM      5  N   UNL     1      -1.178   7.714   3.934  0.00  0.00    -0.225 N 
ENDROOT
BRANCH   5   6
ATOM      6  N   UNL     1      -0.350   7.292   4.935  0.00  0.00    -0.295 N 
ATOM      7  H   UNL     1       0.619   7.380   4.665  0.00  0.00    +0.163 HD
ATOM      8  H   UNL     1      -0.533   7.792   5.791  0.00  0.00    +0.163 HD
ENDBRANCH   5   6
BRANCH   1   9
ATOM      9  S   UNL     1      -1.430   5.240   2.651  0.00  0.00    -0.074 S 
BRANCH   9  10
ATOM     10  C   UNL     1      -2.429   4.996   1.162  0.00  0.00    +0.119 C 
ATOM     11  C   UNL     1      -1.826   5.796   0.006  0.00  0.00    +0.028 C 
BRANCH  10  20
ATOM     12  C   UNL     1      -1.520  -1.464  -0.249  0.00  0.00    +0.045 C 
ATOM     13  C   UNL     1      -2.679  -0.501  -0.213  0.00  0.00    -0.028 A 
ATOM     14  C   UNL     1      -3.915  -0.915  -0.526  0.00  0.00    -0.008 A 
ATOM     15  S   UNL     1      -4.907   0.555  -0.340  0.00  0.00    -0.074 S 
ATOM     16  C   UNL     1      -3.634   1.686   0.152  0.00  0.00    +0.114 A 
ATOM     17  C   UNL     1      -2.469   0.887   0.159  0.00  0.00    +0.050 A 
ATOM     18  C   UNL     1      -1.271   1.559   0.527  0.00  0.00    +0.128 A 
ATOM     19  N   UNL     1      -1.321   2.845   0.836  0.00  0.00    -0.216 NA
ATOM     20  C   UNL     1      -2.449   3.533   0.804  0.00  0.00    +0.145 A 
ATOM     21  N   UNL     1      -3.591   2.965   0.470  0.00  0.00    -0.224 NA
ATOM     22  C   UNL     1      -4.361  -2.296  -0.936  0.00  0.00    +0.052 C 
BRANCH  18  23
ATOM     23  N   UNL     1      -0.069   0.876   0.568  0.00  0.00    -0.343 N 
ATOM     24  H   UNL     1       0.768   1.362   0.498  0.00  0.00    +0.144 HD
ATOM     25  H   UNL     1      -0.063  -0.089   0.670  0.00  0.00    +0.144 HD
ENDBRANCH  18  23
ENDBRANCH  10  20
ENDBRANCH   9  10
ENDBRANCH   1   9
BRANCH   4  26
ATOM     26  C   UNL     1      -1.368  10.186   4.593  0.00  0.00    +0.306 C 
BRANCH  26  27
ATOM     27  O   UNL     1      -0.206  10.854   4.098  0.00  0.00    -0.484 OA
BRANCH  27  28
ATOM     28  C   UNL     1       0.193  11.971   4.762  0.00  0.00    +0.121 A 
ATOM     29  C   UNL     1      -0.522  12.418   5.864  0.00  0.00    +0.046 A 
ATOM     30  C   UNL     1      -0.111  13.550   6.540  0.00  0.00    +0.008 A 
ATOM     31  C   UNL     1       1.006  14.244   6.114  0.00  0.00    -0.042 A 
ATOM     32  C   UNL     1       1.718  13.804   5.013  0.00  0.00    +0.008 A 
ATOM     33  C   UNL     1       1.314  12.669   4.336  0.00  0.00    +0.046 A 
BRANCH  31  34
ATOM     34  C   UNL     1       1.449  15.482   6.850  0.00  0.00    -0.013 C 
ATOM     35  C   UNL     1       1.430  16.677   5.895  0.00  0.00    +0.015 C 
ATOM     36  C   UNL     1       0.497  15.748   8.018  0.00  0.00    +0.015 C 
ATOM     37  C   UNL     1       2.868  15.278   7.383  0.00  0.00    +0.015 C 
ENDBRANCH  31  34
ENDBRANCH  27  28
ENDBRANCH  26  27
ENDBRANCH   4  26
TORSDOF 9
