REMARK  Name = ZINC42810191
REMARK  8 active torsions:
REMARK  status: ('A' for Active; 'I' for Inactive)
REMARK    1  A    between atoms: C_1  and  O_2
REMARK    2  A    between atoms: O_2  and  C_3
REMARK    3  A    between atoms: C_3  and  C_4
REMARK    4  A    between atoms: C_4  and  S_5
REMARK    5  A    between atoms: S_5  and  N_8
REMARK    6  A    between atoms: C_11  and  C_14
REMARK    7  A    between atoms: C_17  and  O_21
REMARK    8  A    between atoms: C_18  and  N_20
REMARK                            x       y       z     vdW  Elec       q    Type
REMARK                         _______ _______ _______ _____ _____    ______ ____
ROOT
ATOM      1  N   UNL     1       1.331  -4.453  -2.269  0.00  0.00    -0.108 NA
ATOM      2  C   UNL     1       1.842  -5.268  -3.158  0.00  0.00    +0.191 A 
ATOM      3  N   UNL     1       1.857  -6.645  -3.170  0.00  0.00    -0.332 N 
ATOM      4  C   UNL     1       2.459  -7.284  -4.222  0.00  0.00    +0.055 A 
ATOM      5  C   UNL     1       3.018  -6.559  -5.211  0.00  0.00    +0.075 A 
ATOM      6  S   UNL     1       2.696  -4.886  -4.679  0.00  0.00    -0.056 S 
ATOM      7  H   UNL     1       1.450  -7.152  -2.450  0.00  0.00    +0.168 HD
ENDROOT
BRANCH   4   8
ATOM      8  C   UNL     1       2.496  -8.762  -4.272  0.00  0.00    +0.001 A 
ATOM      9  C   UNL     1       1.912  -9.511  -3.249  0.00  0.00    +0.013 A 
ATOM     10  C   UNL     1       1.947 -10.890  -3.296  0.00  0.00    +0.048 A 
ATOM     11  C   UNL     1       2.562 -11.535  -4.357  0.00  0.00    +0.137 A 
ATOM     12  C   UNL     1       3.148 -10.794  -5.382  0.00  0.00    +0.067 A 
ATOM     13  C   UNL     1       3.110  -9.410  -5.344  0.00  0.00    +0.036 A 
BRANCH  12  14
ATOM     14  N   UNL     1       3.768 -11.448  -6.453  0.00  0.00    -0.355 N 
ATOM     15  H   UNL     1       3.791 -12.418  -6.482  0.00  0.00    +0.142 HD
ATOM     16  H   UNL     1       4.175 -10.932  -7.166  0.00  0.00    +0.142 HD
ENDBRANCH  12  14
BRANCH  11  17
ATOM     17  O   UNL     1       2.595 -12.895  -4.398  0.00  0.00    -0.505 OA
ATOM     18  H   UNL     1       1.839 -13.293  -4.850  0.00  0.00    +0.292 HD
ENDBRANCH  11  17
ENDBRANCH   4   8
BRANCH   1  19
ATOM     19  S   UNL     1       1.438  -2.816  -2.488  0.00  0.00    +0.074 S 
ATOM     20  O   UNL     1       0.680  -2.557  -3.662  0.00  0.00    -0.151 OA
ATOM     21  O   UNL     1       2.830  -2.534  -2.448  0.00  0.00    -0.151 OA
BRANCH  19  22
ATOM     22  C   UNL     1       0.613  -2.097  -1.041  0.00  0.00    +0.221 C 
BRANCH  22  23
ATOM     23  C   UNL     1       0.652  -0.570  -1.138  0.00  0.00    +0.184 C 
BRANCH  23  25
ATOM     24  C   UNL     1      -0.017   1.425   0.010  0.00  0.00    +0.194 C 
ATOM     25  O   UNL     1       0.002  -0.004   0.002  0.00  0.00    -0.381 OA
ENDBRANCH  23  25
ENDBRANCH  22  23
ENDBRANCH  19  22
ENDBRANCH   1  19
TORSDOF 7
