REMARK  Name = ZINC36567192
REMARK  12 active torsions:
REMARK  status: ('A' for Active; 'I' for Inactive)
REMARK    1  A    between atoms: C_1  and  C_2
REMARK    2  A    between atoms: C_2  and  C_3
REMARK    3  A    between atoms: C_3  and  N_4
REMARK    4  A    between atoms: N_4  and  C_5
REMARK    5  A    between atoms: C_5  and  C_7
REMARK    6  A    between atoms: C_5  and  C_16
REMARK    7  A    between atoms: C_8  and  O_15
REMARK    8  A    between atoms: C_10  and  O_14
REMARK    9  A    between atoms: C_12  and  O_13
REMARK   10  A    between atoms: N_18  and  C_19
REMARK   11  A    between atoms: C_25  and  C_27
REMARK   12  A    between atoms: C_27  and  C_28
REMARK                            x       y       z     vdW  Elec       q    Type
REMARK                         _______ _______ _______ _____ _____    ______ ____
ROOT
ATOM      1  C   UNL     1       2.241  -2.354   0.544  0.00  0.00    +0.199 C 
ENDROOT
BRANCH   1   2
ATOM      2  C   UNL     1       2.299  -2.358  -0.962  0.00  0.00    +0.065 A 
ATOM      3  C   UNL     1       2.968  -3.374  -1.627  0.00  0.00    +0.129 A 
ATOM      4  C   UNL     1       3.021  -3.378  -3.013  0.00  0.00    +0.091 A 
ATOM      5  C   UNL     1       2.405  -2.366  -3.733  0.00  0.00    +0.124 A 
ATOM      6  C   UNL     1       1.736  -1.350  -3.068  0.00  0.00    +0.091 A 
ATOM      7  C   UNL     1       1.679  -1.348  -1.682  0.00  0.00    +0.129 A 
BRANCH   7   8
ATOM      8  O   UNL     1       1.019  -0.355  -1.030  0.00  0.00    -0.506 OA
ATOM      9  H   UNL     1       1.590   0.364  -0.729  0.00  0.00    +0.292 HD
ENDBRANCH   7   8
BRANCH   5  10
ATOM     10  O   UNL     1       2.458  -2.369  -5.091  0.00  0.00    -0.507 OA
ATOM     11  H   UNL     1       1.728  -2.843  -5.512  0.00  0.00    +0.292 HD
ENDBRANCH   5  10
BRANCH   3  12
ATOM     12  O   UNL     1       3.571  -4.366  -0.921  0.00  0.00    -0.506 OA
ATOM     13  H   UNL     1       3.026  -5.157  -0.810  0.00  0.00    +0.292 HD
ENDBRANCH   3  12
ENDBRANCH   1   2
BRANCH   1  14
ATOM     14  C   UNL     1       3.520  -1.777   1.095  0.00  0.00    +0.239 C 
ATOM     15  O   UNL     1       3.504  -1.143   2.128  0.00  0.00    -0.273 OA
ATOM     16  N   UNL     1       4.682  -1.967   0.438  0.00  0.00    -0.311 N 
ATOM     17  H   UNL     1       4.687  -2.426  -0.416  0.00  0.00    +0.149 HD
BRANCH  16  18
ATOM     18  C   UNL     1       5.937  -1.480   1.016  0.00  0.00    +0.073 C 
ATOM     19  C   UNL     1       6.135  -0.009   0.640  0.00  0.00    +0.022 C 
ATOM     20  C   UNL     1       7.445   0.499   1.243  0.00  0.00    +0.002 C 
ATOM     21  C   UNL     1       8.612  -0.327   0.698  0.00  0.00    +0.000 C 
ATOM     22  C   UNL     1       8.415  -1.797   1.073  0.00  0.00    +0.002 C 
ATOM     23  C   UNL     1       7.104  -2.306   0.471  0.00  0.00    +0.022 C 
ENDBRANCH  16  18
ENDBRANCH   1  14
BRANCH   1  24
ATOM     24  N   UNL     1       1.108  -1.538   0.987  0.00  0.00    -0.285 N 
ATOM     25  C   UNL     1       1.262  -0.212   1.167  0.00  0.00    +0.221 C 
ATOM     26  O   UNL     1       2.350   0.300   1.009  0.00  0.00    -0.275 OA
BRANCH  24  27
ATOM     27  C   UNL     1      -0.193  -2.165   1.234  0.00  0.00    +0.108 C 
BRANCH  27  29
ATOM     28  C   UNL     1      -1.717  -3.063   2.998  0.00  0.00    +0.005 C 
ATOM     29  C   UNL     1      -0.314  -2.524   2.716  0.00  0.00    +0.016 C 
ENDBRANCH  27  29
ENDBRANCH  24  27
BRANCH  25  30
ATOM     30  C   UNL     1       0.081   0.637   1.566  0.00  0.00    +0.131 C 
BRANCH  30  31
ATOM     31  C   UNL     1       0.518   2.073   1.701  0.00  0.00    -0.039 A 
ATOM     32  C   UNL     1       0.979   2.543   2.917  0.00  0.00    +0.005 A 
ATOM     33  C   UNL     1       1.380   3.860   3.042  0.00  0.00    +0.015 A 
ATOM     34  C   UNL     1       1.319   4.707   1.950  0.00  0.00    +0.018 A 
ATOM     35  C   UNL     1       0.858   4.236   0.734  0.00  0.00    +0.015 A 
ATOM     36  C   UNL     1       0.462   2.918   0.609  0.00  0.00    +0.005 A 
ATOM     37 BR   UNL     1       1.867   6.509   2.120  0.00  0.00    -0.050 Br
ENDBRANCH  30  31
ENDBRANCH  25  30
ENDBRANCH   1  24
TORSDOF 11
