REMARK  Name = ZINC40914640
REMARK  13 active torsions:
REMARK  status: ('A' for Active; 'I' for Inactive)
REMARK    1  A    between atoms: C_1  and  C_2
REMARK    2  A    between atoms: C_2  and  O_3
REMARK    3  A    between atoms: O_3  and  C_4
REMARK    4  A    between atoms: C_6  and  C_19
REMARK    5  A    between atoms: C_9  and  O_10
REMARK    6  A    between atoms: O_10  and  C_11
REMARK    7  A    between atoms: C_11  and  C_12
REMARK    8  A    between atoms: C_15  and  C_18
REMARK    9  A    between atoms: C_21  and  C_30
REMARK   10  A    between atoms: C_22  and  C_29
REMARK   11  A    between atoms: C_30  and  O_32
REMARK   12  A    between atoms: O_32  and  C_33
REMARK   13  A    between atoms: C_33  and  C_34
REMARK                            x       y       z     vdW  Elec       q    Type
REMARK                         _______ _______ _______ _____ _____    ______ ____
ROOT
ATOM      1  C   UNL     1      -0.179  -4.952   0.401  0.00  0.00    +0.179 C 
ATOM      2  C   UNL     1      -1.171  -5.800  -0.350  0.00  0.00    +0.082 C 
ATOM      3  C   UNL     1      -1.025  -7.123  -0.518  0.00  0.00    +0.020 C 
ATOM      4  N   UNL     1       0.045  -7.812  -0.005  0.00  0.00    -0.287 N 
ATOM      5  C   UNL     1       0.844  -7.154   0.921  0.00  0.00    +0.218 A 
ATOM      6  N   UNL     1       0.748  -5.817   1.127  0.00  0.00    -0.221 N 
ATOM      7  N   UNL     1       1.677  -5.500   2.116  0.00  0.00    -0.156 NA
ATOM      8  C   UNL     1       2.273  -6.619   2.447  0.00  0.00    +0.247 A 
ATOM      9  N   UNL     1       1.766  -7.619   1.718  0.00  0.00    -0.201 NA
ATOM     10  C   UNL     1      -2.071  -7.878  -1.298  0.00  0.00    +0.061 C 
ATOM     11  H   UNL     1       0.236  -8.723  -0.277  0.00  0.00    +0.155 HD
ENDROOT
BRANCH   1  14
ATOM     12  C   UNL     1       1.247  -1.931  -1.362  0.00  0.00    +0.162 A 
ATOM     13  C   UNL     1       0.541  -2.719  -0.468  0.00  0.00    +0.055 A 
ATOM     14  C   UNL     1       0.590  -4.097  -0.572  0.00  0.00    -0.015 A 
ATOM     15  C   UNL     1       1.343  -4.691  -1.567  0.00  0.00    +0.010 A 
ATOM     16  C   UNL     1       2.050  -3.910  -2.463  0.00  0.00    +0.050 A 
ATOM     17  C   UNL     1       2.000  -2.529  -2.367  0.00  0.00    +0.162 A 
BRANCH  12  18
ATOM     18  O   UNL     1       1.199  -0.575  -1.261  0.00  0.00    -0.489 OA
BRANCH  18  20
ATOM     19  C   UNL     1       0.473   1.497  -0.250  0.00  0.00    +0.048 C 
ATOM     20  C   UNL     1       0.405  -0.031  -0.204  0.00  0.00    +0.226 C 
ENDBRANCH  18  20
ENDBRANCH  12  18
BRANCH  17  21
ATOM     21  O   UNL     1       2.691  -1.759  -3.251  0.00  0.00    -0.484 OA
BRANCH  21  22
ATOM     22  C   UNL     1       3.442  -2.442  -4.256  0.00  0.00    +0.264 C 
BRANCH  22  23
ATOM     23  C   UNL     1       4.135  -1.433  -5.136  0.00  0.00    -0.010 A 
ATOM     24  C   UNL     1       3.499  -0.946  -6.263  0.00  0.00    +0.007 A 
ATOM     25  C   UNL     1       4.135  -0.021  -7.070  0.00  0.00    +0.004 A 
ATOM     26  C   UNL     1       5.406   0.417  -6.751  0.00  0.00    -0.050 A 
ATOM     27  C   UNL     1       6.042  -0.070  -5.624  0.00  0.00    +0.004 A 
ATOM     28  C   UNL     1       5.405  -0.992  -4.814  0.00  0.00    +0.007 A 
ATOM     29  C   UNL     1       6.100   1.424  -7.631  0.00  0.00    +0.044 C 
ENDBRANCH  22  23
ENDBRANCH  21  22
ENDBRANCH  17  21
ENDBRANCH   1  14
BRANCH   2  30
ATOM     30  C   UNL     1      -2.309  -5.172  -0.903  0.00  0.00    +0.339 C 
ATOM     31  O   UNL     1      -3.221  -4.817  -0.178  0.00  0.00    -0.245 OA
BRANCH  30  32
ATOM     32  O   UNL     1      -2.387  -4.967  -2.235  0.00  0.00    -0.457 OA
BRANCH  32  33
ATOM     33  C   UNL     1      -3.567  -4.327  -2.725  0.00  0.00    +0.268 C 
BRANCH  33  34
ATOM     34  C   UNL     1      -3.475  -4.184  -4.222  0.00  0.00    -0.010 A 
ATOM     35  C   UNL     1      -2.904  -3.052  -4.775  0.00  0.00    +0.007 A 
ATOM     36  C   UNL     1      -2.820  -2.921  -6.148  0.00  0.00    +0.000 A 
ATOM     37  C   UNL     1      -3.306  -3.921  -6.969  0.00  0.00    +0.000 A 
ATOM     38  C   UNL     1      -3.876  -5.053  -6.417  0.00  0.00    +0.000 A 
ATOM     39  C   UNL     1      -3.956  -5.186  -5.043  0.00  0.00    +0.007 A 
ENDBRANCH  33  34
ENDBRANCH  32  33
ENDBRANCH  30  32
ENDBRANCH   2  30
TORSDOF 10
