REMARK  Name = ZINC02858374
REMARK  4 active torsions:
REMARK  status: ('A' for Active; 'I' for Inactive)
REMARK    1  A    between atoms: C_3  and  C_23
REMARK    2  A    between atoms: C_5  and  N_7
REMARK    3  A    between atoms: N_7  and  S_8
REMARK    4  A    between atoms: S_8  and  C_11
REMARK                            x       y       z     vdW  Elec       q    Type
REMARK                         _______ _______ _______ _____ _____    ______ ____
ROOT
ATOM      1  S   UNL     1       1.218  -2.448  -0.023  0.00  0.00    +0.072 S 
ATOM      2  O   UNL     1       2.471  -2.849   0.514  0.00  0.00    -0.150 OA
ATOM      3  O   UNL     1      -0.020  -2.865   0.538  0.00  0.00    -0.150 OA
ENDROOT
BRANCH   1   4
ATOM      4  C   UNL     1       1.207  -0.686  -0.013  0.00  0.00    +0.111 A 
ATOM      5  C   UNL     1       0.002  -0.004   0.002  0.00  0.00    +0.031 A 
ATOM      6  C   UNL     1      -0.017   1.377   0.010  0.00  0.00    +0.030 A 
ATOM      7  C   UNL     1       1.177   2.083   0.002  0.00  0.00    +0.067 A 
ATOM      8  C   UNL     1       2.392   1.396  -0.014  0.00  0.00    +0.069 A 
ATOM      9  C   UNL     1       2.400   0.009  -0.021  0.00  0.00    +0.056 A 
ATOM     10  N   UNL     1       3.399   2.358  -0.018  0.00  0.00    -0.306 N 
ATOM     11  H   UNL     1       4.352   2.181  -0.028  0.00  0.00    +0.170 HD
ATOM     12  C   UNL     1       2.823   3.575  -0.006  0.00  0.00    +0.325 A 
ATOM     13  O   UNL     1       3.422   4.634  -0.007  0.00  0.00    -0.247 OA
ATOM     14  N   UNL     1       1.483   3.442   0.006  0.00  0.00    -0.306 N 
ATOM     15  H   UNL     1       0.841   4.169   0.016  0.00  0.00    +0.170 HD
ENDBRANCH   1   4
BRANCH   1  16
ATOM     16  N   UNL     1       1.206  -2.929  -1.607  0.00  0.00    -0.216 N 
ATOM     17  H   UNL     1       0.444  -3.414  -1.961  0.00  0.00    +0.174 HD
BRANCH  16  22
ATOM     18  C   UNL     1       4.661  -2.546  -2.798  0.00  0.00    +0.002 A 
ATOM     19  C   UNL     1       4.445  -2.057  -4.074  0.00  0.00    +0.012 A 
ATOM     20  C   UNL     1       3.156  -1.856  -4.531  0.00  0.00    +0.057 A 
ATOM     21  C   UNL     1       2.079  -2.149  -3.717  0.00  0.00    +0.036 A 
ATOM     22  C   UNL     1       2.292  -2.636  -2.434  0.00  0.00    +0.049 A 
ATOM     23  C   UNL     1       3.589  -2.837  -1.978  0.00  0.00    +0.024 A 
BRANCH  20  24
ATOM     24  C   UNL     1       2.925  -1.322  -5.921  0.00  0.00    +0.417 C 
ATOM     25  F   UNL     1       4.157  -1.109  -6.549  0.00  0.00    -0.166 F 
ATOM     26  F   UNL     1       2.180  -2.248  -6.659  0.00  0.00    -0.166 F 
ATOM     27  F   UNL     1       2.225  -0.113  -5.847  0.00  0.00    -0.166 F 
ENDBRANCH  20  24
ENDBRANCH  16  22
ENDBRANCH   1  16
TORSDOF 4
