REMARK  Name = ZINC49202795
REMARK  4 active torsions:
REMARK  status: ('A' for Active; 'I' for Inactive)
REMARK    1  A    between atoms: C_1  and  C_2
REMARK    2  A    between atoms: C_2  and  N_3
REMARK    3  A    between atoms: C_5  and  N_10
REMARK    4  A    between atoms: N_13  and  C_14
REMARK                            x       y       z     vdW  Elec       q    Type
REMARK                         _______ _______ _______ _____ _____    ______ ____
ROOT
ATOM      1  N   UNL     1      -0.121  -1.225  -4.668  0.00  0.00    -0.268 N 
ATOM      2  C   UNL     1       0.492  -1.562  -5.821  0.00  0.00    +0.308 C 
ATOM      3  O   UNL     1       1.705  -1.633  -5.865  0.00  0.00    -0.252 OA
ATOM      4  N   UNL     1      -0.240  -1.819  -6.923  0.00  0.00    -0.269 N 
ATOM      5  H   UNL     1      -1.090  -1.238  -4.613  0.00  0.00    +0.156 HD
ATOM      6  H   UNL     1      -1.201  -1.692  -6.908  0.00  0.00    +0.156 HD
ENDROOT
BRANCH   1   9
ATOM      7  N   UNL     1       1.246  -1.190  -1.291  0.00  0.00    -0.314 N 
ATOM      8  C   UNL     1       0.512  -1.539  -2.381  0.00  0.00    +0.112 A 
ATOM      9  C   UNL     1       0.641  -0.856  -3.549  0.00  0.00    +0.051 A 
ATOM     10  C   UNL     1       1.542   0.221  -3.633  0.00  0.00    +0.030 A 
ATOM     11  C   UNL     1       2.275   0.564  -2.536  0.00  0.00    +0.072 A 
ATOM     12  C   UNL     1       2.111  -0.160  -1.343  0.00  0.00    +0.251 A 
ATOM     13  O   UNL     1       2.758   0.142  -0.353  0.00  0.00    -0.268 OA
BRANCH   7  15
ATOM     14  C   UNL     1      -0.015  -1.301   0.802  0.00  0.00    +0.027 C 
ATOM     15  C   UNL     1       1.089  -1.941  -0.043  0.00  0.00    +0.121 C 
ENDBRANCH   7  15
ENDBRANCH   1   9
BRANCH   4  16
ATOM     16  C   UNL     1       0.388  -2.270  -8.089  0.00  0.00    +0.036 A 
ATOM     17  C   UNL     1      -0.120  -1.919  -9.334  0.00  0.00    +0.023 A 
ATOM     18  C   UNL     1       0.502  -2.365 -10.483  0.00  0.00    +0.003 A 
ATOM     19  C   UNL     1       1.629  -3.161 -10.397  0.00  0.00    +0.015 A 
ATOM     20  C   UNL     1       2.138  -3.513  -9.160  0.00  0.00    +0.020 A 
ATOM     21  C   UNL     1       1.523  -3.065  -8.006  0.00  0.00    +0.038 A 
ATOM     22 BR   UNL     1       3.679  -4.603  -9.047  0.00  0.00    -0.050 Br
ENDBRANCH   4  16
TORSDOF 3
