REMARK  Name = ZINC64139162
REMARK  10 active torsions:
REMARK  status: ('A' for Active; 'I' for Inactive)
REMARK    1  A    between atoms: C_1  and  C_2
REMARK    2  A    between atoms: C_5  and  S_20
REMARK    3  A    between atoms: C_7  and  C_8
REMARK    4  A    between atoms: N_10  and  N_11
REMARK    5  A    between atoms: C_12  and  C_14
REMARK    6  A    between atoms: S_20  and  N_23
REMARK    7  A    between atoms: N_23  and  C_24
REMARK    8  A    between atoms: C_24  and  C_25
REMARK    9  A    between atoms: C_24  and  C_26
REMARK   10  A    between atoms: C_24  and  C_27
REMARK                            x       y       z     vdW  Elec       q    Type
REMARK                         _______ _______ _______ _____ _____    ______ ____
ROOT
ATOM      1  C   UNL     1       0.422   1.473  -2.189  0.00  0.00    +0.044 C 
ATOM      2  C   UNL     1       0.809   0.208  -1.467  0.00  0.00    -0.038 A 
ATOM      3  C   UNL     1       0.262  -1.000  -1.847  0.00  0.00    +0.006 A 
ATOM      4  C   UNL     1       0.616  -2.162  -1.185  0.00  0.00    +0.029 A 
ATOM      5  C   UNL     1       1.519  -2.121  -0.137  0.00  0.00    +0.106 A 
ATOM      6  C   UNL     1       2.072  -0.919   0.253  0.00  0.00    +0.042 A 
ATOM      7  C   UNL     1       1.725   0.256  -0.415  0.00  0.00    +0.043 A 
ENDROOT
BRANCH   7   8
ATOM      8  C   UNL     1       2.320   1.546  -0.006  0.00  0.00    +0.260 C 
ATOM      9  O   UNL     1       2.094   2.551  -0.652  0.00  0.00    -0.269 OA
ATOM     10  N   UNL     1       3.112   1.609   1.083  0.00  0.00    -0.230 N 
ATOM     11  H   UNL     1       3.291   0.807   1.598  0.00  0.00    +0.173 HD
BRANCH  10  12
ATOM     12  N   UNL     1       3.675   2.831   1.470  0.00  0.00    -0.229 N 
ATOM     13  C   UNL     1       4.467   2.893   2.559  0.00  0.00    +0.275 C 
ATOM     14  O   UNL     1       4.693   1.888   3.205  0.00  0.00    -0.267 OA
ATOM     15  H   UNL     1       3.495   3.633   0.955  0.00  0.00    +0.173 HD
BRANCH  13  16
ATOM     16  C   UNL     1       5.059   4.178   2.966  0.00  0.00    +0.109 C 
ATOM     17  N   UNL     1       4.905   5.330   2.381  0.00  0.00    -0.254 NA
ATOM     18  C   UNL     1       5.566   6.325   2.977  0.00  0.00    +0.122 C 
ATOM     19  C   UNL     1       6.248   5.915   4.054  0.00  0.00    +0.019 C 
ATOM     20  C   UNL     1       5.967   4.427   4.155  0.00  0.00    +0.105 C 
ATOM     21 BR   UNL     1       7.321   6.964   5.204  0.00  0.00    -0.053 Br
ENDBRANCH  13  16
ENDBRANCH  10  12
ENDBRANCH   7   8
BRANCH   5  22
ATOM     22  S   UNL     1       1.962  -3.606   0.700  0.00  0.00    +0.059 S 
ATOM     23  O   UNL     1       2.187  -3.256   2.058  0.00  0.00    -0.153 OA
ATOM     24  O   UNL     1       1.011  -4.589   0.314  0.00  0.00    -0.153 OA
BRANCH  22  25
ATOM     25  N   UNL     1       3.422  -4.095   0.090  0.00  0.00    -0.185 NA
ATOM     26  H   UNL     1       4.206  -4.109   0.661  0.00  0.00    +0.149 HD
BRANCH  25  27
ATOM     27  C   UNL     1       3.530  -4.507  -1.312  0.00  0.00    +0.032 C 
ATOM     28  C   UNL     1       2.930  -3.422  -2.209  0.00  0.00    +0.029 C 
ATOM     29  C   UNL     1       5.003  -4.711  -1.672  0.00  0.00    +0.029 C 
ATOM     30  C   UNL     1       2.768  -5.817  -1.518  0.00  0.00    +0.029 C 
ENDBRANCH  25  27
ENDBRANCH  22  25
ENDBRANCH   5  22
TORSDOF 6
