REMARK  Name = ZINC12342170
REMARK  5 active torsions:
REMARK  status: ('A' for Active; 'I' for Inactive)
REMARK    1  A    between atoms: C_7  and  C_20
REMARK    2  A    between atoms: C_8  and  N_19
REMARK    3  A    between atoms: C_9  and  C_10
REMARK    4  A    between atoms: C_10  and  C_12
REMARK    5  A    between atoms: N_22  and  C_23
REMARK                            x       y       z     vdW  Elec       q    Type
REMARK                         _______ _______ _______ _____ _____    ______ ____
ROOT
ATOM      1  C   UNL     1      -0.998   1.767  -0.651  0.00  0.00    +0.003 A 
ATOM      2  C   UNL     1      -1.009   3.166  -0.606  0.00  0.00    +0.018 A 
ATOM      3  C   UNL     1       0.138   3.849  -0.390  0.00  0.00    +0.092 A 
ATOM      4  N   UNL     1       1.317   3.192  -0.207  0.00  0.00    -0.311 N 
ATOM      5  C   UNL     1       1.355   1.829  -0.240  0.00  0.00    +0.061 A 
ATOM      6  C   UNL     1       0.179   1.100  -0.462  0.00  0.00    +0.027 A 
ATOM      7  C   UNL     1       2.690   1.415  -0.023  0.00  0.00    +0.083 A 
ATOM      8  C   UNL     1       3.462   2.582   0.142  0.00  0.00    +0.067 A 
ATOM      9  C   UNL     1       2.599   3.669   0.026  0.00  0.00    +0.116 A 
ENDROOT
BRANCH   7  10
ATOM     10  C   UNL     1       3.176   0.037   0.020  0.00  0.00    +0.252 C 
ATOM     11  O   UNL     1       3.557  -0.507  -1.001  0.00  0.00    -0.270 OA
ATOM     12  N   UNL     1       3.204  -0.631   1.190  0.00  0.00    -0.281 N 
ATOM     13  H   UNL     1       2.971  -0.176   2.015  0.00  0.00    +0.155 HD
BRANCH  12  14
ATOM     14  C   UNL     1       3.567  -1.983   1.216  0.00  0.00    +0.034 A 
ATOM     15  C   UNL     1       3.242  -2.811   0.149  0.00  0.00    +0.026 A 
ATOM     16  C   UNL     1       3.607  -4.142   0.174  0.00  0.00    +0.040 A 
ATOM     17  C   UNL     1       4.286  -4.655   1.266  0.00  0.00    +0.124 A 
ATOM     18  C   UNL     1       4.605  -3.833   2.334  0.00  0.00    +0.040 A 
ATOM     19  C   UNL     1       4.247  -2.499   2.311  0.00  0.00    +0.026 A 
ATOM     20  F   UNL     1       4.637  -5.960   1.291  0.00  0.00    -0.205 F 
ENDBRANCH  12  14
ENDBRANCH   7  10
BRANCH   8  21
ATOM     21  N   UNL     1       4.827   2.637   0.378  0.00  0.00    -0.356 N 
ATOM     22  H   UNL     1       5.254   3.489   0.557  0.00  0.00    +0.142 HD
ATOM     23  H   UNL     1       5.354   1.823   0.363  0.00  0.00    +0.142 HD
ENDBRANCH   8  21
BRANCH   9  24
ATOM     24  C   UNL     1       2.967   5.025   0.128  0.00  0.00    +0.212 C 
ATOM     25  O   UNL     1       2.914   5.592   1.206  0.00  0.00    -0.285 OA
BRANCH  24  26
ATOM     26  C   UNL     1       3.417   5.762  -1.074  0.00  0.00    +0.024 A 
ATOM     27  C   UNL     1       3.391   5.145  -2.325  0.00  0.00    +0.013 A 
ATOM     28  C   UNL     1       3.807   5.838  -3.442  0.00  0.00    +0.021 A 
ATOM     29  C   UNL     1       4.261   7.141  -3.322  0.00  0.00    +0.041 A 
ATOM     30  C   UNL     1       4.295   7.757  -2.082  0.00  0.00    +0.021 A 
ATOM     31  C   UNL     1       3.876   7.075  -0.959  0.00  0.00    +0.013 A 
ATOM     32 CL   UNL     1       4.790   8.005  -4.732  0.00  0.00    -0.084 Cl
ENDBRANCH  24  26
ENDBRANCH   9  24
TORSDOF 5
