REMARK  Name = ZINC65080623
REMARK  7 active torsions:
REMARK  status: ('A' for Active; 'I' for Inactive)
REMARK    1  A    between atoms: C_1  and  C_2
REMARK    2  A    between atoms: C_2  and  C_3
REMARK    3  A    between atoms: C_2  and  C_4
REMARK    4  A    between atoms: C_2  and  C_12
REMARK    5  A    between atoms: N_14  and  C_15
REMARK    6  A    between atoms: C_19  and  S_21
REMARK    7  A    between atoms: S_21  and  N_24
REMARK                            x       y       z     vdW  Elec       q    Type
REMARK                         _______ _______ _______ _____ _____    ______ ____
ROOT
ATOM      1  C   UNL     1       0.720  -0.381  -1.298  0.00  0.00    +0.227 C 
ATOM      2  O   UNL     1       0.149  -0.986  -2.180  0.00  0.00    -0.275 OA
ATOM      3  N   UNL     1       1.964   0.096  -1.504  0.00  0.00    -0.285 N 
ATOM      4  H   UNL     1       2.450   0.515  -0.777  0.00  0.00    +0.155 HD
ENDROOT
BRANCH   3   5
ATOM      5  C   UNL     1       2.554  -0.013  -2.769  0.00  0.00    +0.035 A 
ATOM      6  C   UNL     1       3.925  -0.197  -2.883  0.00  0.00    +0.023 A 
ATOM      7  C   UNL     1       4.505  -0.304  -4.132  0.00  0.00    +0.004 A 
ATOM      8  C   UNL     1       3.720  -0.227  -5.268  0.00  0.00    +0.028 A 
ATOM      9  C   UNL     1       2.355  -0.043  -5.158  0.00  0.00    +0.107 A 
ATOM     10  C   UNL     1       1.768   0.059  -3.911  0.00  0.00    +0.051 A 
BRANCH   9  11
ATOM     11  S   UNL     1       1.360   0.056  -6.609  0.00  0.00    +0.056 S 
ATOM     12  O   UNL     1       0.189   0.776  -6.250  0.00  0.00    -0.153 OA
ATOM     13  O   UNL     1       2.218   0.473  -7.662  0.00  0.00    -0.153 OA
BRANCH  11  14
ATOM     14  N   UNL     1       0.875  -1.485  -6.976  0.00  0.00    -0.204 NA
ATOM     15  H   UNL     1       0.026  -1.633  -7.422  0.00  0.00    +0.144 HD
ATOM     16  H   UNL     1       1.439  -2.239  -6.744  0.00  0.00    +0.144 HD
ENDBRANCH  11  14
ENDBRANCH   9  11
ENDBRANCH   3   5
BRANCH   1  18
ATOM     17  C   UNL     1      -0.212   1.334   0.231  0.00  0.00    +0.025 C 
ATOM     18  C   UNL     1       0.040  -0.161   0.029  0.00  0.00    +0.067 C 
ATOM     19  C   UNL     1       0.935  -0.684   1.154  0.00  0.00    +0.025 C 
BRANCH  18  20
ATOM     20  C   UNL     1      -1.274  -0.899   0.048  0.00  0.00    -0.031 A 
ATOM     21  C   UNL     1      -1.291  -2.281   0.007  0.00  0.00    +0.006 A 
ATOM     22  C   UNL     1      -2.495  -2.959   0.024  0.00  0.00    +0.022 A 
ATOM     23  C   UNL     1      -3.685  -2.255   0.082  0.00  0.00    +0.059 A 
ATOM     24  C   UNL     1      -3.668  -0.871   0.122  0.00  0.00    +0.060 A 
ATOM     25  C   UNL     1      -2.461  -0.194   0.111  0.00  0.00    +0.026 A 
ATOM     26 CL   UNL     1      -5.160   0.014   0.194  0.00  0.00    -0.082 Cl
ATOM     27 CL   UNL     1      -5.197  -3.106   0.102  0.00  0.00    -0.082 Cl
ENDBRANCH  18  20
ENDBRANCH   1  18
TORSDOF 5
