REMARK  Name = ZINC36495190
REMARK  12 active torsions:
REMARK  status: ('A' for Active; 'I' for Inactive)
REMARK    1  A    between atoms: C_1  and  C_2
REMARK    2  A    between atoms: C_7  and  C_8
REMARK    3  A    between atoms: C_8  and  C_9
REMARK    4  A    between atoms: N_11  and  C_12
REMARK    5  A    between atoms: N_11  and  C_18
REMARK    6  A    between atoms: C_12  and  C_13
REMARK    7  A    between atoms: C_18  and  C_20
REMARK    8  A    between atoms: C_18  and  C_29
REMARK    9  A    between atoms: C_21  and  O_28
REMARK   10  A    between atoms: C_23  and  O_27
REMARK   11  A    between atoms: C_25  and  O_26
REMARK   12  A    between atoms: N_31  and  C_32
REMARK                            x       y       z     vdW  Elec       q    Type
REMARK                         _______ _______ _______ _____ _____    ______ ____
ROOT
ATOM      1  C   UNL     1      -2.986   1.073   4.312  0.00  0.00    +0.200 C 
ENDROOT
BRANCH   1   2
ATOM      2  C   UNL     1      -2.440   2.369   4.853  0.00  0.00    +0.065 A 
ATOM      3  C   UNL     1      -1.368   2.357   5.732  0.00  0.00    +0.129 A 
ATOM      4  C   UNL     1      -0.866   3.550   6.230  0.00  0.00    +0.091 A 
ATOM      5  C   UNL     1      -1.435   4.755   5.848  0.00  0.00    +0.124 A 
ATOM      6  C   UNL     1      -2.507   4.768   4.968  0.00  0.00    +0.091 A 
ATOM      7  C   UNL     1      -3.007   3.575   4.467  0.00  0.00    +0.129 A 
BRANCH   7   8
ATOM      8  O   UNL     1      -4.054   3.588   3.601  0.00  0.00    -0.506 OA
ATOM      9  H   UNL     1      -4.919   3.545   4.030  0.00  0.00    +0.292 HD
ENDBRANCH   7   8
BRANCH   5  10
ATOM     10  O   UNL     1      -0.943   5.924   6.336  0.00  0.00    -0.507 OA
ATOM     11  H   UNL     1      -0.241   6.311   5.796  0.00  0.00    +0.292 HD
ENDBRANCH   5  10
BRANCH   3  12
ATOM     12  O   UNL     1      -0.810   1.176   6.106  0.00  0.00    -0.506 OA
ATOM     13  H   UNL     1      -0.033   0.926   5.588  0.00  0.00    +0.292 HD
ENDBRANCH   3  12
ENDBRANCH   1   2
BRANCH   1  14
ATOM     14  C   UNL     1      -3.833   0.406   5.365  0.00  0.00    +0.239 C 
ATOM     15  O   UNL     1      -3.307  -0.227   6.255  0.00  0.00    -0.273 OA
ATOM     16  N   UNL     1      -5.176   0.514   5.317  0.00  0.00    -0.311 N 
ATOM     17  H   UNL     1      -5.597   1.020   4.605  0.00  0.00    +0.149 HD
BRANCH  16  18
ATOM     18  C   UNL     1      -5.999  -0.135   6.341  0.00  0.00    +0.073 C 
ATOM     19  C   UNL     1      -6.248  -1.592   5.948  0.00  0.00    +0.022 C 
ATOM     20  C   UNL     1      -7.108  -2.269   7.017  0.00  0.00    +0.002 C 
ATOM     21  C   UNL     1      -8.446  -1.537   7.135  0.00  0.00    +0.000 C 
ATOM     22  C   UNL     1      -8.197  -0.079   7.528  0.00  0.00    +0.002 C 
ATOM     23  C   UNL     1      -7.337   0.598   6.459  0.00  0.00    +0.022 C 
ENDBRANCH  16  18
ENDBRANCH   1  14
BRANCH   1  26
ATOM     24  C   UNL     1      -0.910   0.630   3.116  0.00  0.00    +0.221 C 
ATOM     25  O   UNL     1      -0.961   1.757   2.670  0.00  0.00    -0.275 OA
ATOM     26  N   UNL     1      -1.876   0.190   3.947  0.00  0.00    -0.278 N 
BRANCH  24  27
ATOM     27  C   UNL     1       0.232  -0.279   2.740  0.00  0.00    +0.131 C 
BRANCH  27  34
ATOM     28  C   UNL     1       2.304   1.426   3.812  0.00  0.00    +0.044 C 
ATOM     29  C   UNL     1       2.158   1.264   2.321  0.00  0.00    -0.047 A 
ATOM     30  C   UNL     1       3.019   1.926   1.466  0.00  0.00    +0.003 A 
ATOM     31  C   UNL     1       2.885   1.778   0.098  0.00  0.00    +0.000 A 
ATOM     32  C   UNL     1       1.890   0.966  -0.415  0.00  0.00    +0.000 A 
ATOM     33  C   UNL     1       1.030   0.303   0.440  0.00  0.00    +0.004 A 
ATOM     34  C   UNL     1       1.167   0.448   1.808  0.00  0.00    -0.036 A 
ENDBRANCH  27  34
ENDBRANCH  24  27
BRANCH  26  35
ATOM     35  C   UNL     1      -1.815  -1.171   4.485  0.00  0.00    +0.183 C 
BRANCH  35  36
ATOM     36  C   UNL     1      -0.709  -1.260   5.504  0.00  0.00    +0.122 A 
ATOM     37  C   UNL     1      -0.856  -1.155   6.837  0.00  0.00    +0.046 A 
ATOM     38  C   UNL     1       0.431  -1.297   7.404  0.00  0.00    +0.041 A 
ATOM     39  C   UNL     1       1.288  -1.479   6.384  0.00  0.00    +0.195 A 
ATOM     40  O   UNL     1       0.592  -1.461   5.236  0.00  0.00    -0.466 OA
ENDBRANCH  35  36
ENDBRANCH  26  35
ENDBRANCH   1  26
TORSDOF 11
