REMARK  Name = ZINC39467575
REMARK  6 active torsions:
REMARK  status: ('A' for Active; 'I' for Inactive)
REMARK    1  A    between atoms: C_4  and  O_7
REMARK    2  A    between atoms: O_7  and  S_8
REMARK    3  A    between atoms: S_8  and  C_11
REMARK    4  A    between atoms: P_20  and  C_30
REMARK    5  A    between atoms: C_28  and  O_29
REMARK    6  A    between atoms: C_35  and  O_36
REMARK                            x       y       z     vdW  Elec       q    Type
REMARK                         _______ _______ _______ _____ _____    ______ ____
ROOT
ATOM      1  C   UNL     1       3.071  -2.384   1.880  0.00  0.00    +0.165 C 
ATOM      2  C   UNL     1       3.651  -3.558   2.104  0.00  0.00    +0.011 C 
ATOM      3  C   UNL     1       2.814  -4.732   2.552  0.00  0.00    +0.018 C 
ATOM      4  C   UNL     1       2.147  -5.358   1.327  0.00  0.00    -0.003 C 
ATOM      5  C   UNL     1       1.185  -6.474   1.749  0.00  0.00    -0.020 C 
ATOM      6  C   UNL     1       0.564  -7.044   0.467  0.00  0.00    +0.157 C 
ATOM      7  O   UNL     1      -0.312  -8.136   0.801  0.00  0.00    -0.316 OA
ATOM      8  P   UNL     1      -1.424  -7.884   1.963  0.00  0.00    +0.291 P 
ATOM      9  O   UNL     1      -1.849  -9.172   2.554  0.00  0.00    -0.269 OA
ATOM     10  N   UNL     1      -0.662  -6.957   3.096  0.00  0.00    -0.288 NA
ATOM     11  N   UNL     1       0.158  -5.943   2.648  0.00  0.00    +0.398 N 
ATOM     12  C   UNL     1       0.779  -5.369   3.852  0.00  0.00    -0.046 C 
ATOM     13  C   UNL     1       1.731  -4.229   3.512  0.00  0.00    +0.008 C 
ATOM     14  C   UNL     1       0.968  -3.106   2.864  0.00  0.00    +0.023 C 
ATOM     15  C   UNL     1       1.614  -2.238   2.067  0.00  0.00    +0.141 C 
ATOM     16  H   UNL     1      -0.790  -7.120   4.044  0.00  0.00    +0.111 HD
ATOM     17  H   UNL     1      -0.389  -5.246   2.165  0.00  0.00    -0.055 HD
ENDROOT
BRANCH   8  18
ATOM     18  C   UNL     1      -2.855  -7.001   1.282  0.00  0.00    +0.091 A 
ATOM     19  C   UNL     1      -2.881  -5.620   1.286  0.00  0.00    +0.018 A 
ATOM     20  C   UNL     1      -3.972  -4.947   0.768  0.00  0.00    +0.001 A 
ATOM     21  C   UNL     1      -5.040  -5.654   0.244  0.00  0.00    +0.004 A 
ATOM     22  C   UNL     1      -5.018  -7.035   0.238  0.00  0.00    +0.046 A 
ATOM     23  C   UNL     1      -3.922  -7.713   0.753  0.00  0.00    +0.131 A 
BRANCH  23  24
ATOM     24  O   UNL     1      -3.896  -9.072   0.743  0.00  0.00    -0.506 OA
ATOM     25  H   UNL     1      -4.274  -9.478   1.535  0.00  0.00    +0.292 HD
ENDBRANCH  23  24
ENDBRANCH   8  18
BRANCH   1  26
ATOM     26  S   UNL     1       4.038  -1.003   1.368  0.00  0.00    +0.154 S 
ATOM     27  O   UNL     1       5.394  -1.430   1.381  0.00  0.00    -0.131 OA
ATOM     28  O   UNL     1       3.584   0.113   2.122  0.00  0.00    -0.131 OA
BRANCH  26  29
ATOM     29  O   UNL     1       3.685  -0.720  -0.085  0.00  0.00    -0.342 OA
BRANCH  29  33
ATOM     30  C   UNL     1       5.321  -3.396  -2.764  0.00  0.00    +0.000 A 
ATOM     31  C   UNL     1       4.078  -3.645  -2.212  0.00  0.00    +0.004 A 
ATOM     32  C   UNL     1       3.528  -2.750  -1.315  0.00  0.00    +0.048 A 
ATOM     33  C   UNL     1       4.224  -1.601  -0.967  0.00  0.00    +0.157 A 
ATOM     34  C   UNL     1       5.471  -1.354  -1.522  0.00  0.00    +0.048 A 
ATOM     35  C   UNL     1       6.017  -2.252  -2.420  0.00  0.00    +0.004 A 
ENDBRANCH  29  33
ENDBRANCH  26  29
ENDBRANCH   1  26
BRANCH  15  36
ATOM     36  O   UNL     1       0.942  -1.227   1.456  0.00  0.00    -0.505 OA
ATOM     37  H   UNL     1      -0.007  -1.218   1.641  0.00  0.00    +0.292 HD
ENDBRANCH  15  36
TORSDOF 6
