REMARK  Name = ZINC67576967
REMARK  5 active torsions:
REMARK  status: ('A' for Active; 'I' for Inactive)
REMARK    1  A    between atoms: C_1  and  C_2
REMARK    2  A    between atoms: N_4  and  C_5
REMARK    3  A    between atoms: C_8  and  N_12
REMARK    4  A    between atoms: N_15  and  C_16
REMARK    5  A    between atoms: N_25  and  C_27
REMARK                            x       y       z     vdW  Elec       q    Type
REMARK                         _______ _______ _______ _____ _____    ______ ____
ROOT
ATOM      1  N   UNL     1      -0.122  -6.232  -0.826  0.00  0.00    -0.268 N 
ATOM      2  C   UNL     1      -0.282  -6.830   0.371  0.00  0.00    +0.304 C 
ATOM      3  O   UNL     1      -0.310  -6.161   1.386  0.00  0.00    -0.253 OA
ATOM      4  N   UNL     1      -0.413  -8.169   0.443  0.00  0.00    -0.296 N 
ATOM      5  H   UNL     1      -0.034  -6.770  -1.629  0.00  0.00    +0.156 HD
ATOM      6  H   UNL     1      -0.391  -8.703  -0.366  0.00  0.00    +0.151 HD
ENDROOT
BRANCH   4   7
ATOM      7  C   UNL     1      -0.587  -8.818   1.742  0.00  0.00    +0.077 C 
ATOM      8  C   UNL     1      -2.067  -8.846   2.128  0.00  0.00    -0.007 C 
ATOM      9  C   UNL     1      -2.211  -9.421   3.533  0.00  0.00    +0.003 C 
ATOM     10  C   UNL     1      -1.583 -10.799   3.671  0.00  0.00    +0.001 C 
ATOM     11  C   UNL     1      -0.189 -10.888   3.071  0.00  0.00    +0.003 C 
ATOM     12  C   UNL     1      -0.104 -10.269   1.681  0.00  0.00    -0.007 C 
ATOM     13  C   UNL     1      -0.920 -11.054   0.666  0.00  0.00    -0.073 C 
ATOM     14  N   UNL     1      -2.357 -10.999   0.912  0.00  0.00    +0.382 N 
ATOM     15  C   UNL     1      -2.864  -9.646   1.109  0.00  0.00    -0.073 C 
ATOM     16  H   UNL     1      -2.599 -11.582   1.698  0.00  0.00    -0.081 HD
BRANCH  14  17
ATOM     17  C   UNL     1      -3.040 -11.576  -0.253  0.00  0.00    -0.069 C 
ATOM     18  C   UNL     1      -4.077 -12.670   0.005  0.00  0.00    -0.017 C 
ATOM     19  C   UNL     1      -2.724 -13.029  -0.611  0.00  0.00    -0.017 C 
ENDBRANCH  14  17
ENDBRANCH   4   7
BRANCH   1  23
ATOM     20  C   UNL     1      -0.003  -2.070  -1.081  0.00  0.00    +0.035 A 
ATOM     21  C   UNL     1       0.536  -2.714   0.025  0.00  0.00    +0.025 A 
ATOM     22  C   UNL     1       0.497  -4.092   0.109  0.00  0.00    +0.026 A 
ATOM     23  C   UNL     1      -0.083  -4.833  -0.911  0.00  0.00    +0.053 A 
ATOM     24  C   UNL     1      -0.623  -4.189  -2.018  0.00  0.00    +0.064 A 
ATOM     25  C   UNL     1      -0.588  -2.811  -2.099  0.00  0.00    +0.045 A 
ATOM     26 CL   UNL     1      -1.347  -5.116  -3.294  0.00  0.00    -0.082 Cl
BRANCH  20  30
ATOM     27  C   UNL     1      -0.989   1.505  -1.734  0.00  0.00    +0.109 C 
ATOM     28  C   UNL     1      -0.984  -0.002  -1.735  0.00  0.00    +0.214 C 
ATOM     29  O   UNL     1      -1.899  -0.611  -2.247  0.00  0.00    -0.276 OA
ATOM     30  N   UNL     1       0.037  -0.672  -1.165  0.00  0.00    -0.286 N 
ATOM     31  H   UNL     1       0.800  -0.187  -0.815  0.00  0.00    +0.155 HD
ENDBRANCH  20  30
ENDBRANCH   1  23
TORSDOF 4
