REMARK  Name = ZINC18200818
REMARK  4 active torsions:
REMARK  status: ('A' for Active; 'I' for Inactive)
REMARK    1  A    between atoms: C_1  and  C_2
REMARK    2  A    between atoms: C_5  and  C_7
REMARK    3  A    between atoms: N_13  and  C_16
REMARK    4  A    between atoms: C_28  and  C_31
REMARK                            x       y       z     vdW  Elec       q    Type
REMARK                         _______ _______ _______ _____ _____    ______ ____
ROOT
ATOM      1  C   UNL     1       1.043  -4.062  -0.027  0.00  0.00    +0.099 C 
ATOM      2  C   UNL     1       1.888  -4.285   1.196  0.00  0.00    +0.070 A 
ATOM      3  C   UNL     1       3.258  -4.356   1.140  0.00  0.00    +0.125 A 
ATOM      4  N   UNL     1       3.724  -4.558   2.403  0.00  0.00    -0.277 N 
ATOM      5  H   UNL     1       4.655  -4.644   2.661  0.00  0.00    +0.189 HD
ATOM      6  N   UNL     1       2.618  -4.619   3.266  0.00  0.00    -0.218 N 
ATOM      7  C   UNL     1       1.500  -4.453   2.525  0.00  0.00    +0.278 A 
ATOM      8  O   UNL     1       0.355  -4.450   2.944  0.00  0.00    -0.265 OA
ATOM      9  N   UNL     1       3.934  -4.233  -0.049  0.00  0.00    -0.303 N 
ATOM     10  C   UNL     1       3.228  -4.346  -1.225  0.00  0.00    +0.017 C 
ATOM     11  C   UNL     1       1.883  -4.272  -1.268  0.00  0.00    +0.025 C 
ATOM     12  C   UNL     1       1.191  -4.389  -2.490  0.00  0.00    +0.162 C 
ATOM     13  O   UNL     1      -0.023  -4.340  -2.492  0.00  0.00    -0.292 OA
ATOM     14  C   UNL     1       1.921  -4.572  -3.791  0.00  0.00    +0.091 C 
ATOM     15  C   UNL     1       3.308  -3.931  -3.675  0.00  0.00    +0.068 C 
ATOM     16  C   UNL     1       4.032  -4.565  -2.487  0.00  0.00    +0.063 C 
ATOM     17  H   UNL     1       4.891  -4.070  -0.060  0.00  0.00    +0.153 HD
ENDROOT
BRANCH   1  22
ATOM     18  C   UNL     1      -0.018   1.503   0.010  0.00  0.00    +0.051 C 
ATOM     19  C   UNL     1       0.002  -0.004   0.002  0.00  0.00    -0.013 A 
ATOM     20  C   UNL     1      -1.039  -0.872   0.002  0.00  0.00    +0.011 A 
ATOM     21  C   UNL     1      -0.780  -2.230  -0.007  0.00  0.00    +0.012 A 
ATOM     22  C   UNL     1       0.507  -2.653  -0.016  0.00  0.00    +0.002 A 
ATOM     23  S   UNL     1       1.404  -1.109  -0.018  0.00  0.00    -0.097 S 
ENDBRANCH   1  22
BRANCH   6  24
ATOM     24  C   UNL     1       2.665  -4.817   4.649  0.00  0.00    +0.067 A 
ATOM     25  C   UNL     1       1.488  -4.863   5.386  0.00  0.00    +0.028 A 
ATOM     26  C   UNL     1       1.538  -5.058   6.752  0.00  0.00    +0.002 A 
ATOM     27  C   UNL     1       2.758  -5.208   7.387  0.00  0.00    +0.000 A 
ATOM     28  C   UNL     1       3.931  -5.163   6.656  0.00  0.00    +0.002 A 
ATOM     29  C   UNL     1       3.888  -4.974   5.289  0.00  0.00    +0.028 A 
ENDBRANCH   6  24
BRANCH  15  30
ATOM     30  C   UNL     1       4.091  -4.180  -4.939  0.00  0.00    +0.109 A 
ATOM     31  C   UNL     1       4.587  -3.234  -5.757  0.00  0.00    +0.045 A 
ATOM     32  C   UNL     1       5.244  -3.909  -6.812  0.00  0.00    +0.041 A 
ATOM     33  C   UNL     1       5.109  -5.226  -6.576  0.00  0.00    +0.195 A 
ATOM     34  O   UNL     1       4.415  -5.385  -5.437  0.00  0.00    -0.468 OA
ENDBRANCH  15  30
TORSDOF 3
