REMARK  Name = ZINC00664433
REMARK  4 active torsions:
REMARK  status: ('A' for Active; 'I' for Inactive)
REMARK    1  A    between atoms: C_3  and  C_6
REMARK    2  A    between atoms: C_13  and  N_27
REMARK    3  A    between atoms: C_14  and  C_25
REMARK    4  A    between atoms: C_15  and  C_17
REMARK                            x       y       z     vdW  Elec       q    Type
REMARK                         _______ _______ _______ _____ _____    ______ ____
ROOT
ATOM      1  C   UNL     1       3.736   1.822  -0.024  0.00  0.00    +0.080 A 
ATOM      2  C   UNL     1       4.754   1.370  -0.818  0.00  0.00    +0.054 A 
ATOM      3  C   UNL     1       5.908   2.115  -0.507  0.00  0.00    +0.245 A 
ATOM      4  N   UNL     1       5.606   2.972   0.426  0.00  0.00    -0.135 NA
ATOM      5  N   UNL     1       4.250   2.824   0.753  0.00  0.00    -0.273 N 
ATOM      6  H   UNL     1       3.763   3.340   1.415  0.00  0.00    +0.189 HD
ATOM      7  O   UNL     1       7.095   1.898  -1.137  0.00  0.00    -0.421 OA
ATOM      8  C   UNL     1       7.077   1.143  -2.253  0.00  0.00    +0.201 C 
ATOM      9  C   UNL     1       6.035   0.381  -2.645  0.00  0.00    +0.098 C 
ATOM     10  C   UNL     1       4.750   0.284  -1.861  0.00  0.00    +0.102 C 
ENDROOT
BRANCH  10  11
ATOM     11  C   UNL     1       4.662  -1.064  -1.192  0.00  0.00    -0.033 A 
ATOM     12  C   UNL     1       5.644  -1.458  -0.302  0.00  0.00    +0.007 A 
ATOM     13  C   UNL     1       5.565  -2.693   0.313  0.00  0.00    +0.040 A 
ATOM     14  C   UNL     1       4.502  -3.537   0.036  0.00  0.00    +0.137 A 
ATOM     15  C   UNL     1       3.519  -3.141  -0.856  0.00  0.00    +0.053 A 
ATOM     16  C   UNL     1       3.598  -1.903  -1.465  0.00  0.00    +0.022 A 
ATOM     17 BR   UNL     1       2.067  -4.292  -1.234  0.00  0.00    -0.047 Br
ATOM     18  F   UNL     1       4.424  -4.745   0.636  0.00  0.00    -0.204 F 
ENDBRANCH  10  11
BRANCH   1  21
ATOM     19  C   UNL     1      -0.016   1.354   0.009  0.00  0.00    +0.008 A 
ATOM     20  C   UNL     1       1.177   2.042   0.002  0.00  0.00    +0.017 A 
ATOM     21  C   UNL     1       2.348   1.328  -0.013  0.00  0.00    +0.037 A 
ATOM     22  S   UNL     1       1.752  -0.355  -0.017  0.00  0.00    -0.095 S 
ATOM     23  C   UNL     1       0.002  -0.004   0.002  0.00  0.00    +0.046 A 
ENDBRANCH   1  21
BRANCH   8  24
ATOM     24  N   UNL     1       8.198   1.149  -3.046  0.00  0.00    -0.328 N 
ATOM     25  H   UNL     1       8.966   1.685  -2.795  0.00  0.00    +0.145 HD
ATOM     26  H   UNL     1       8.221   0.617  -3.857  0.00  0.00    +0.145 HD
ENDBRANCH   8  24
BRANCH   9  27
ATOM     27  C   UNL     1       6.154  -0.370  -3.859  0.00  0.00    +0.101 C 
ATOM     28  N   UNL     1       6.248  -0.965  -4.822  0.00  0.00    -0.191 NA
ENDBRANCH   9  27
TORSDOF 4
