REMARK  Name = ZINC48797112
REMARK  10 active torsions:
REMARK  status: ('A' for Active; 'I' for Inactive)
REMARK    1  A    between atoms: C_1  and  C_2
REMARK    2  A    between atoms: C_2  and  C_3
REMARK    3  A    between atoms: C_2  and  C_4
REMARK    4  A    between atoms: C_4  and  C_5
REMARK    5  A    between atoms: C_5  and  C_7
REMARK    6  A    between atoms: C_5  and  N_11
REMARK    7  A    between atoms: N_9  and  C_10
REMARK    8  A    between atoms: N_11  and  C_12
REMARK    9  A    between atoms: C_12  and  C_13
REMARK   10  A    between atoms: C_18  and  O_19
REMARK                            x       y       z     vdW  Elec       q    Type
REMARK                         _______ _______ _______ _____ _____    ______ ____
ROOT
ATOM      1  N   UNL     1      -0.875  -2.427  -1.436  0.00  0.00    +0.389 N 
ATOM      2  H   UNL     1      -1.499  -2.103  -2.160  0.00  0.00    -0.084 HD
ATOM      3  H   UNL     1       0.032  -2.002  -1.558  0.00  0.00    -0.084 HD
ENDROOT
BRANCH   1   4
ATOM      4  C   UNL     1      -1.416  -2.058  -0.121  0.00  0.00    +0.017 C 
BRANCH   4   5
ATOM      5  C   UNL     1      -2.819  -2.590   0.013  0.00  0.00    +0.199 C 
ATOM      6  O   UNL     1      -3.320  -3.216  -0.898  0.00  0.00    -0.278 OA
ATOM      7  N   UNL     1      -3.518  -2.371   1.144  0.00  0.00    -0.320 N 
ATOM      8  C   UNL     1      -4.882  -2.888   1.274  0.00  0.00    +0.128 C 
ATOM      9  H   UNL     1      -3.118  -1.870   1.872  0.00  0.00    +0.148 HD
ENDBRANCH   4   5
BRANCH   4  10
ATOM     10  C   UNL     1      -1.433  -0.534   0.013  0.00  0.00    -0.004 C 
BRANCH  10  12
ATOM     11  C   UNL     1      -0.019   1.526   0.010  0.00  0.00    +0.007 C 
ATOM     12  C   UNL     1       0.002  -0.004   0.002  0.00  0.00    -0.018 C 
ATOM     13  C   UNL     1       0.742  -0.511   1.242  0.00  0.00    +0.007 C 
ENDBRANCH  10  12
ENDBRANCH   4  10
ENDBRANCH   1   4
BRANCH   1  14
ATOM     14  C   UNL     1      -0.746  -3.888  -1.520  0.00  0.00    -0.042 C 
BRANCH  14  15
ATOM     15  C   UNL     1      -0.191  -4.268  -2.868  0.00  0.00    -0.022 A 
ATOM     16  C   UNL     1      -1.040  -4.709  -3.866  0.00  0.00    +0.005 A 
ATOM     17  C   UNL     1      -0.532  -5.057  -5.104  0.00  0.00    +0.002 A 
ATOM     18  C   UNL     1       0.826  -4.964  -5.348  0.00  0.00    +0.019 A 
ATOM     19  C   UNL     1       1.679  -4.523  -4.354  0.00  0.00    +0.059 A 
ATOM     20  C   UNL     1       1.170  -4.168  -3.111  0.00  0.00    +0.132 A 
ATOM     21 BR   UNL     1       3.536  -4.397  -4.688  0.00  0.00    -0.047 Br
BRANCH  20  22
ATOM     22  O   UNL     1       2.006  -3.729  -2.134  0.00  0.00    -0.505 OA
ATOM     23  H   UNL     1       2.358  -4.433  -1.572  0.00  0.00    +0.292 HD
ENDBRANCH  20  22
ENDBRANCH  14  15
ENDBRANCH   1  14
TORSDOF 7
