REMARK  Name = ZINC12368964
REMARK  4 active torsions:
REMARK  status: ('A' for Active; 'I' for Inactive)
REMARK    1  A    between atoms: C_6  and  O_7
REMARK    2  A    between atoms: O_7  and  S_8
REMARK    3  A    between atoms: S_8  and  C_11
REMARK    4  A    between atoms: C_14  and  C_16
REMARK                            x       y       z     vdW  Elec       q    Type
REMARK                         _______ _______ _______ _____ _____    ______ ____
ROOT
ATOM      1  S   UNL     1       2.619   3.587  -0.004  0.00  0.00    +0.157 S 
ATOM      2  O   UNL     1       1.748   4.557   0.560  0.00  0.00    -0.131 OA
ATOM      3  O   UNL     1       3.907   3.315   0.532  0.00  0.00    -0.131 OA
ENDROOT
BRANCH   1   4
ATOM      4  C   UNL     1       1.741   2.059  -0.004  0.00  0.00    +0.166 A 
ATOM      5  C   UNL     1       2.233   0.793  -0.015  0.00  0.00    +0.039 A 
ATOM      6  C   UNL     1       1.359  -0.269  -0.012  0.00  0.00    +0.021 A 
ATOM      7  C   UNL     1       0.002  -0.004   0.002  0.00  0.00    +0.059 A 
ATOM      8  S   UNL     1      -0.022   1.781   0.012  0.00  0.00    -0.063 S 
BRANCH   7   9
ATOM      9  C   UNL     1      -1.126  -0.946   0.007  0.00  0.00    +0.174 A 
ATOM     10  C   UNL     1      -2.463  -0.634   0.027  0.00  0.00    +0.073 A 
ATOM     11  C   UNL     1      -3.103  -1.888   0.021  0.00  0.00    +0.157 A 
ATOM     12  N   UNL     1      -2.160  -2.788   0.007  0.00  0.00    -0.086 NA
ATOM     13  O   UNL     1      -1.058  -2.291  -0.001  0.00  0.00    -0.354 OA
ENDBRANCH   7   9
ENDBRANCH   1   4
BRANCH   1  14
ATOM     14  O   UNL     1       2.829   3.984  -1.459  0.00  0.00    -0.342 OA
BRANCH  14  20
ATOM     15  C   UNL     1       0.858   3.591  -2.731  0.00  0.00    +0.050 A 
ATOM     16  C   UNL     1      -0.280   4.077  -3.346  0.00  0.00    +0.023 A 
ATOM     17  C   UNL     1      -0.562   5.431  -3.311  0.00  0.00    +0.041 A 
ATOM     18  C   UNL     1       0.292   6.300  -2.655  0.00  0.00    +0.023 A 
ATOM     19  C   UNL     1       1.427   5.818  -2.034  0.00  0.00    +0.050 A 
ATOM     20  C   UNL     1       1.712   4.460  -2.068  0.00  0.00    +0.157 A 
ATOM     21 CL   UNL     1      -1.989   6.039  -4.090  0.00  0.00    -0.084 Cl
ENDBRANCH  14  20
ENDBRANCH   1  14
TORSDOF 4
