REMARK  Name = ZINC39531155
REMARK  8 active torsions:
REMARK  status: ('A' for Active; 'I' for Inactive)
REMARK    1  A    between atoms: C_4  and  C_7
REMARK    2  A    between atoms: C_7  and  C_8
REMARK    3  A    between atoms: C_11  and  C_14
REMARK    4  A    between atoms: C_14  and  C_16
REMARK    5  A    between atoms: C_14  and  N_25
REMARK    6  A    between atoms: C_16  and  N_17
REMARK    7  A    between atoms: N_17  and  C_18
REMARK    8  A    between atoms: C_18  and  C_19
REMARK                            x       y       z     vdW  Elec       q    Type
REMARK                         _______ _______ _______ _____ _____    ______ ____
ROOT
ATOM      1  C   UNL     1       5.450  -1.675   5.388  0.00  0.00    +0.070 C 
ENDROOT
BRANCH   1   2
ATOM      2  N   UNL     1       4.318  -2.168   6.184  0.00  0.00    -0.298 NA
ATOM      3  C   UNL     1       3.845  -3.465   5.681  0.00  0.00    +0.066 C 
ATOM      4  C   UNL     1       2.708  -3.971   6.572  0.00  0.00    -0.063 C 
ATOM      5  N   UNL     1       1.611  -2.995   6.567  0.00  0.00    +0.400 N 
ATOM      6  C   UNL     1       2.093  -1.711   7.096  0.00  0.00    +0.116 C 
ATOM      7  C   UNL     1       3.224  -1.187   6.209  0.00  0.00    +0.099 C 
ATOM      8  O   UNL     1       1.019  -0.768   7.106  0.00  0.00    -0.251 OA
ATOM      9  H   UNL     1       1.280  -2.866   5.623  0.00  0.00    -0.082 HD
ATOM     10  H   UNL     1       0.857  -3.334   7.145  0.00  0.00    -0.082 HD
ENDBRANCH   1   2
BRANCH   1  14
ATOM     11  C   UNL     1       4.265  -1.329   1.298  0.00  0.00    -0.043 A 
ATOM     12  C   UNL     1       4.439  -2.578   1.864  0.00  0.00    +0.004 A 
ATOM     13  C   UNL     1       4.823  -2.690   3.188  0.00  0.00    +0.005 A 
ATOM     14  C   UNL     1       5.033  -1.553   3.945  0.00  0.00    -0.032 A 
ATOM     15  C   UNL     1       4.859  -0.304   3.378  0.00  0.00    +0.005 A 
ATOM     16  C   UNL     1       4.480  -0.192   2.054  0.00  0.00    +0.004 A 
BRANCH  11  17
ATOM     17  C   UNL     1       3.847  -1.208  -0.145  0.00  0.00    +0.070 C 
BRANCH  17  21
ATOM     18  C   UNL     1       7.319  -1.079  -2.629  0.00  0.00    +0.000 A 
ATOM     19  C   UNL     1       6.735  -2.293  -2.321  0.00  0.00    +0.000 A 
ATOM     20  C   UNL     1       5.612  -2.335  -1.516  0.00  0.00    +0.004 A 
ATOM     21  C   UNL     1       5.073  -1.162  -1.020  0.00  0.00    -0.043 A 
ATOM     22  C   UNL     1       5.657   0.052  -1.329  0.00  0.00    +0.004 A 
ATOM     23  C   UNL     1       6.780   0.094  -2.134  0.00  0.00    +0.000 A 
ENDBRANCH  17  21
ENDBRANCH  11  17
ENDBRANCH   1  14
BRANCH   1  24
ATOM     24  C   UNL     1       6.618  -2.656   5.500  0.00  0.00    -0.058 C 
BRANCH  24  25
ATOM     25  N   UNL     1       6.947  -2.867   6.916  0.00  0.00    +0.383 N 
ATOM     26  H   UNL     1       7.205  -1.986   7.336  0.00  0.00    -0.085 HD
ATOM     27  H   UNL     1       6.143  -3.245   7.395  0.00  0.00    -0.085 HD
BRANCH  25  28
ATOM     28  C   UNL     1       8.069  -3.809   7.023  0.00  0.00    -0.047 C 
BRANCH  28  29
ATOM     29  C   UNL     1       8.406  -4.025   8.476  0.00  0.00    -0.064 A 
ATOM     30  C   UNL     1       9.328  -3.206   9.101  0.00  0.00    +0.002 A 
ATOM     31  C   UNL     1       9.637  -3.404  10.434  0.00  0.00    +0.000 A 
ATOM     32  C   UNL     1       9.024  -4.421  11.142  0.00  0.00    +0.000 A 
ATOM     33  C   UNL     1       8.101  -5.239  10.517  0.00  0.00    +0.000 A 
ATOM     34  C   UNL     1       7.789  -5.038   9.186  0.00  0.00    +0.002 A 
ENDBRANCH  28  29
ENDBRANCH  25  28
ENDBRANCH  24  25
ENDBRANCH   1  24
TORSDOF 8
