REMARK  Name = ZINC54621192
REMARK  7 active torsions:
REMARK  status: ('A' for Active; 'I' for Inactive)
REMARK    1  A    between atoms: C_4  and  C_7
REMARK    2  A    between atoms: C_7  and  C_9
REMARK    3  A    between atoms: C_7  and  N_20
REMARK    4  A    between atoms: C_18  and  O_19
REMARK    5  A    between atoms: N_20  and  C_21
REMARK    6  A    between atoms: C_24  and  S_27
REMARK    7  A    between atoms: S_27  and  N_30
REMARK                            x       y       z     vdW  Elec       q    Type
REMARK                         _______ _______ _______ _____ _____    ______ ____
ROOT
ATOM      1  C   UNL     1       3.711  -0.707  -0.038  0.00  0.00    +0.135 C 
ENDROOT
BRANCH   1   2
ATOM      2  C   UNL     1       4.105  -1.125  -1.431  0.00  0.00    +0.021 A 
ATOM      3  C   UNL     1       3.932  -2.449  -1.824  0.00  0.00    +0.010 A 
ATOM      4  C   UNL     1       4.277  -2.859  -3.076  0.00  0.00    +0.010 A 
ATOM      5  C   UNL     1       4.816  -1.935  -3.987  0.00  0.00    +0.004 A 
ATOM      6  C   UNL     1       5.184  -2.321  -5.290  0.00  0.00    +0.011 A 
ATOM      7  C   UNL     1       5.701  -1.369  -6.122  0.00  0.00    +0.020 A 
ATOM      8  C   UNL     1       5.850  -0.059  -5.671  0.00  0.00    +0.111 A 
ATOM      9  N   UNL     1       5.506   0.296  -4.457  0.00  0.00    -0.251 NA
ATOM     10  C   UNL     1       4.995  -0.586  -3.594  0.00  0.00    +0.113 A 
ATOM     11  C   UNL     1       4.620  -0.197  -2.291  0.00  0.00    +0.148 A 
BRANCH  11  12
ATOM     12  O   UNL     1       4.776   1.092  -1.891  0.00  0.00    -0.504 OA
ATOM     13  H   UNL     1       5.636   1.277  -1.490  0.00  0.00    +0.292 HD
ENDBRANCH  11  12
ENDBRANCH   1   2
BRANCH   1  17
ATOM     14  C   UNL     1      -0.306   0.744  -0.069  0.00  0.00    +0.000 A 
ATOM     15  C   UNL     1       0.750   1.635  -0.074  0.00  0.00    +0.000 A 
ATOM     16  C   UNL     1       2.050   1.165  -0.063  0.00  0.00    +0.006 A 
ATOM     17  C   UNL     1       2.294  -0.195  -0.048  0.00  0.00    -0.023 A 
ATOM     18  C   UNL     1       1.237  -1.086  -0.042  0.00  0.00    +0.006 A 
ATOM     19  C   UNL     1      -0.063  -0.617  -0.054  0.00  0.00    +0.000 A 
ENDBRANCH   1  17
BRANCH   1  20
ATOM     20  N   UNL     1       3.808  -1.859   0.863  0.00  0.00    -0.333 N 
ATOM     21  H   UNL     1       3.743  -2.759   0.508  0.00  0.00    +0.147 HD
BRANCH  20  22
ATOM     22  C   UNL     1       3.994  -1.660   2.233  0.00  0.00    +0.028 A 
ATOM     23  C   UNL     1       4.082  -0.371   2.744  0.00  0.00    +0.025 A 
ATOM     24  C   UNL     1       4.266  -0.179   4.099  0.00  0.00    +0.030 A 
ATOM     25  C   UNL     1       4.362  -1.267   4.947  0.00  0.00    +0.105 A 
ATOM     26  C   UNL     1       4.275  -2.551   4.442  0.00  0.00    +0.030 A 
ATOM     27  C   UNL     1       4.086  -2.751   3.088  0.00  0.00    +0.025 A 
BRANCH  25  28
ATOM     28  S   UNL     1       4.598  -1.016   6.675  0.00  0.00    +0.056 S 
ATOM     29  O   UNL     1       5.203  -2.200   7.178  0.00  0.00    -0.153 OA
ATOM     30  O   UNL     1       5.193   0.266   6.822  0.00  0.00    -0.153 OA
BRANCH  28  31
ATOM     31  N   UNL     1       3.096  -0.922   7.365  0.00  0.00    -0.204 NA
ATOM     32  H   UNL     1       2.963  -1.215   8.281  0.00  0.00    +0.144 HD
ATOM     33  H   UNL     1       2.348  -0.575   6.854  0.00  0.00    +0.144 HD
ENDBRANCH  28  31
ENDBRANCH  25  28
ENDBRANCH  20  22
ENDBRANCH   1  20
TORSDOF 7
