REMARK  Name = ZINC36502714
REMARK  12 active torsions:
REMARK  status: ('A' for Active; 'I' for Inactive)
REMARK    1  A    between atoms: C_1  and  C_2
REMARK    2  A    between atoms: C_2  and  C_33
REMARK    3  A    between atoms: C_3  and  C_4
REMARK    4  A    between atoms: N_6  and  C_7
REMARK    5  A    between atoms: N_6  and  C_13
REMARK    6  A    between atoms: C_7  and  C_8
REMARK    7  A    between atoms: C_13  and  C_15
REMARK    8  A    between atoms: C_13  and  C_24
REMARK    9  A    between atoms: C_16  and  O_23
REMARK   10  A    between atoms: C_18  and  O_22
REMARK   11  A    between atoms: C_20  and  O_21
REMARK   12  A    between atoms: N_26  and  C_27
REMARK                            x       y       z     vdW  Elec       q    Type
REMARK                         _______ _______ _______ _____ _____    ______ ____
ROOT
ATOM      1  C   UNL     1       0.076   0.331   3.913  0.00  0.00    +0.200 C 
ENDROOT
BRANCH   1   2
ATOM      2  C   UNL     1      -1.222   0.749   4.556  0.00  0.00    +0.065 A 
ATOM      3  C   UNL     1      -1.999  -0.188   5.222  0.00  0.00    +0.129 A 
ATOM      4  C   UNL     1      -3.192   0.197   5.814  0.00  0.00    +0.091 A 
ATOM      5  C   UNL     1      -3.609   1.517   5.740  0.00  0.00    +0.124 A 
ATOM      6  C   UNL     1      -2.832   2.454   5.076  0.00  0.00    +0.091 A 
ATOM      7  C   UNL     1      -1.636   2.070   4.488  0.00  0.00    +0.129 A 
BRANCH   7   8
ATOM      8  O   UNL     1      -0.872   2.989   3.841  0.00  0.00    -0.506 OA
ATOM      9  H   UNL     1      -1.079   3.081   2.901  0.00  0.00    +0.292 HD
ENDBRANCH   7   8
BRANCH   5  10
ATOM     10  O   UNL     1      -4.779   1.894   6.319  0.00  0.00    -0.507 OA
ATOM     11  H   UNL     1      -4.689   2.179   7.239  0.00  0.00    +0.292 HD
ENDBRANCH   5  10
BRANCH   3  12
ATOM     12  O   UNL     1      -1.590  -1.482   5.294  0.00  0.00    -0.506 OA
ATOM     13  H   UNL     1      -1.116  -1.700   6.107  0.00  0.00    +0.292 HD
ENDBRANCH   3  12
ENDBRANCH   1   2
BRANCH   1  14
ATOM     14  C   UNL     1       1.125   0.138   4.978  0.00  0.00    +0.239 C 
ATOM     15  O   UNL     1       1.962  -0.730   4.854  0.00  0.00    -0.273 OA
ATOM     16  N   UNL     1       1.132   0.930   6.068  0.00  0.00    -0.311 N 
ATOM     17  H   UNL     1       0.462   1.625   6.168  0.00  0.00    +0.149 HD
BRANCH  16  18
ATOM     18  C   UNL     1       2.152   0.743   7.103  0.00  0.00    +0.073 C 
ATOM     19  C   UNL     1       1.696  -0.345   8.078  0.00  0.00    +0.022 C 
ATOM     20  C   UNL     1       2.761  -0.541   9.158  0.00  0.00    +0.002 C 
ATOM     21  C   UNL     1       2.964   0.772   9.918  0.00  0.00    +0.000 C 
ATOM     22  C   UNL     1       3.420   1.860   8.944  0.00  0.00    +0.002 C 
ATOM     23  C   UNL     1       2.355   2.056   7.863  0.00  0.00    +0.022 C 
ENDBRANCH  16  18
ENDBRANCH   1  14
BRANCH   1  26
ATOM     24  C   UNL     1      -0.580  -0.909   1.921  0.00  0.00    +0.241 C 
ATOM     25  O   UNL     1      -0.830   0.150   1.379  0.00  0.00    -0.271 OA
ATOM     26  N   UNL     1      -0.121  -0.927   3.188  0.00  0.00    -0.275 N 
BRANCH  24  29
ATOM     27  C   UNL     1      -1.717  -0.861  -0.662  0.00  0.00    +0.039 C 
ATOM     28  C   UNL     1      -1.247  -2.156  -0.051  0.00  0.00    -0.071 C 
ATOM     29  C   UNL     1      -0.777  -2.172   1.193  0.00  0.00    +0.066 C 
ATOM     30  C   UNL     1      -1.309  -3.433  -0.849  0.00  0.00    +0.039 C 
ENDBRANCH  24  29
BRANCH  26  31
ATOM     31  C   UNL     1       0.180  -2.203   3.841  0.00  0.00    +0.183 C 
BRANCH  31  32
ATOM     32  C   UNL     1       1.459  -2.766   3.277  0.00  0.00    +0.122 A 
ATOM     33  C   UNL     1       2.607  -2.944   3.955  0.00  0.00    +0.046 A 
ATOM     34  C   UNL     1       3.540  -3.492   3.045  0.00  0.00    +0.041 A 
ATOM     35  C   UNL     1       2.906  -3.617   1.865  0.00  0.00    +0.195 A 
ATOM     36  O   UNL     1       1.644  -3.182   2.013  0.00  0.00    -0.466 OA
ENDBRANCH  31  32
ENDBRANCH  26  31
ENDBRANCH   1  26
TORSDOF 10
