REMARK  Name = ZINC59723310
REMARK  12 active torsions:
REMARK  status: ('A' for Active; 'I' for Inactive)
REMARK    1  A    between atoms: C_1  and  C_2
REMARK    2  A    between atoms: C_2  and  N_3
REMARK    3  A    between atoms: N_6  and  C_9
REMARK    4  A    between atoms: C_12  and  C_34
REMARK    5  A    between atoms: C_14  and  N_15
REMARK    6  A    between atoms: C_16  and  C_18
REMARK    7  A    between atoms: C_19  and  C_20
REMARK    8  A    between atoms: C_23  and  C_25
REMARK    9  A    between atoms: C_30  and  N_31
REMARK   10  A    between atoms: C_34  and  O_36
REMARK   11  A    between atoms: O_36  and  C_37
REMARK   12  A    between atoms: C_37  and  C_38
REMARK                            x       y       z     vdW  Elec       q    Type
REMARK                         _______ _______ _______ _____ _____    ______ ____
ROOT
ATOM      1  C   UNL     1       0.803  -2.828   4.609  0.00  0.00    +0.051 A 
ATOM      2  C   UNL     1      -0.422  -3.479   4.686  0.00  0.00    +0.026 A 
ATOM      3  C   UNL     1      -0.688  -4.334   5.732  0.00  0.00    +0.017 A 
ATOM      4  C   UNL     1       0.276  -4.549   6.723  0.00  0.00    +0.061 A 
ATOM      5  C   UNL     1       1.510  -3.894   6.648  0.00  0.00    +0.040 A 
ATOM      6  C   UNL     1       1.774  -3.042   5.593  0.00  0.00    +0.056 A 
ENDROOT
BRANCH   1  10
ATOM      7  N   UNL     1       0.697  -0.509   1.192  0.00  0.00    +0.382 N 
ATOM      8  C   UNL     1      -0.054  -0.133   2.397  0.00  0.00    -0.060 C 
ATOM      9  C   UNL     1       0.746  -0.533   3.642  0.00  0.00    +0.086 C 
ATOM     10  N   UNL     1       1.067  -1.965   3.549  0.00  0.00    -0.332 N 
ATOM     11  C   UNL     1       1.675  -2.461   2.304  0.00  0.00    +0.086 C 
ATOM     12  C   UNL     1       0.832  -1.970   1.123  0.00  0.00    -0.060 C 
ATOM     13  H   UNL     1       1.613  -0.089   1.225  0.00  0.00    -0.082 HD
BRANCH   7  15
ATOM     14  C   UNL     1      -0.051   1.501   0.010  0.00  0.00    -0.017 C 
ATOM     15  C   UNL     1      -0.018  -0.029   0.002  0.00  0.00    -0.082 C 
ENDBRANCH   7  15
ENDBRANCH   1  10
BRANCH   6  16
ATOM     16  N   UNL     1       3.010  -2.389   5.512  0.00  0.00    -0.280 N 
ATOM     17  C   UNL     1       3.637  -1.991   6.637  0.00  0.00    +0.241 C 
ATOM     18  O   UNL     1       3.169  -2.271   7.726  0.00  0.00    -0.270 OA
ATOM     19  H   UNL     1       3.415  -2.223   4.646  0.00  0.00    +0.155 HD
BRANCH  17  20
ATOM     20  C   UNL     1       4.838  -1.248   6.552  0.00  0.00    +0.071 C 
ATOM     21  C   UNL     1       5.469  -0.847   7.685  0.00  0.00    +0.051 C 
BRANCH  21  22
ATOM     22  C   UNL     1       6.669  -0.105   7.601  0.00  0.00    +0.129 A 
ATOM     23  C   UNL     1       7.414   0.359   8.669  0.00  0.00    +0.050 A 
ATOM     24  C   UNL     1       8.512   1.037   8.130  0.00  0.00    +0.050 A 
ATOM     25  C   UNL     1       8.402   0.964   6.770  0.00  0.00    +0.138 A 
ATOM     26  O   UNL     1       7.292   0.270   6.463  0.00  0.00    -0.455 OA
BRANCH  25  27
ATOM     27  C   UNL     1       9.348   1.547   5.799  0.00  0.00    +0.047 A 
ATOM     28  C   UNL     1       9.748   2.880   5.922  0.00  0.00    +0.014 A 
ATOM     29  C   UNL     1      10.633   3.418   5.011  0.00  0.00    +0.001 A 
ATOM     30  C   UNL     1      11.124   2.640   3.977  0.00  0.00    +0.002 A 
ATOM     31  C   UNL     1      10.731   1.320   3.848  0.00  0.00    +0.033 A 
ATOM     32  C   UNL     1       9.851   0.767   4.755  0.00  0.00    +0.137 A 
BRANCH  32  33
ATOM     33  N   UNL     1       9.437  -0.647   4.619  0.00  0.00    +0.057 N 
ATOM     34  O   UNL     1       9.873  -1.321   3.715  0.00  0.00    -0.126 OA
ATOM     35  O   UNL     1       8.662  -1.129   5.413  0.00  0.00    -0.126 OA
ENDBRANCH  32  33
ENDBRANCH  25  27
ENDBRANCH  21  22
ENDBRANCH  17  20
ENDBRANCH   6  16
BRANCH   4  36
ATOM     36  C   UNL     1      -0.009  -5.463   7.843  0.00  0.00    +0.339 C 
ATOM     37  O   UNL     1       0.830  -5.649   8.703  0.00  0.00    -0.245 OA
BRANCH  36  38
ATOM     38  O   UNL     1      -1.198  -6.092   7.914  0.00  0.00    -0.461 OA
BRANCH  38  39
ATOM     39  C   UNL     1      -1.405  -6.964   9.027  0.00  0.00    +0.229 C 
ATOM     40  C   UNL     1      -2.802  -7.583   8.937  0.00  0.00    +0.048 C 
ENDBRANCH  38  39
ENDBRANCH  36  38
ENDBRANCH   4  36
TORSDOF 10
