REMARK  Name = ZINC01165706
REMARK  10 active torsions:
REMARK  status: ('A' for Active; 'I' for Inactive)
REMARK    1  A    between atoms: C_1  and  C_2
REMARK    2  A    between atoms: C_2  and  C_3
REMARK    3  A    between atoms: C_2  and  C_4
REMARK    4  A    between atoms: N_6  and  C_7
REMARK    5  A    between atoms: C_11  and  N_13
REMARK    6  A    between atoms: N_13  and  C_14
REMARK    7  A    between atoms: C_14  and  N_16
REMARK    8  A    between atoms: C_17  and  C_19
REMARK    9  A    between atoms: C_20  and  C_21
REMARK   10  A    between atoms: C_25  and  N_27
REMARK                            x       y       z     vdW  Elec       q    Type
REMARK                         _______ _______ _______ _____ _____    ______ ____
ROOT
ATOM      1  C   UNL     1      -2.459   9.528  -0.376  0.00  0.00    +0.141 C 
ATOM      2  S   UNL     1      -1.075  10.441  -0.803  0.00  0.00    -0.018 S 
ENDROOT
BRANCH   1   3
ATOM      3  N   UNL     1      -2.426   8.182  -0.447  0.00  0.00    -0.264 N 
ATOM      4  C   UNL     1      -1.305   7.556  -0.854  0.00  0.00    +0.242 C 
ATOM      5  O   UNL     1      -0.321   8.205  -1.158  0.00  0.00    -0.270 OA
ATOM      6  H   UNL     1      -3.210   7.665  -0.205  0.00  0.00    +0.157 HD
BRANCH   4   7
ATOM      7  C   UNL     1      -1.269   6.095  -0.931  0.00  0.00    +0.068 C 
ATOM      8  C   UNL     1      -0.146   5.468  -1.339  0.00  0.00    +0.013 C 
BRANCH   8   9
ATOM      9  C   UNL     1      -0.111   3.999  -1.416  0.00  0.00    -0.023 A 
ATOM     10  C   UNL     1      -1.239   3.249  -1.068  0.00  0.00    +0.008 A 
ATOM     11  C   UNL     1      -1.200   1.874  -1.148  0.00  0.00    +0.003 A 
ATOM     12  C   UNL     1      -0.044   1.234  -1.562  0.00  0.00    +0.033 A 
ATOM     13  C   UNL     1       1.077   1.969  -1.908  0.00  0.00    +0.127 A 
ATOM     14  C   UNL     1       1.051   3.346  -1.838  0.00  0.00    +0.040 A 
BRANCH  13  15
ATOM     15  N   UNL     1       2.305   1.275  -2.354  0.00  0.00    +0.056 N 
ATOM     16  O   UNL     1       2.330   0.059  -2.417  0.00  0.00    -0.126 OA
ATOM     17  O   UNL     1       3.292   1.920  -2.659  0.00  0.00    -0.126 OA
ENDBRANCH  13  15
ENDBRANCH   8   9
ENDBRANCH   4   7
ENDBRANCH   1   3
BRANCH   1  18
ATOM     18  N   UNL     1      -3.581  10.154   0.031  0.00  0.00    -0.297 N 
ATOM     19  H   UNL     1      -4.381   9.641   0.221  0.00  0.00    +0.154 HD
BRANCH  18  24
ATOM     20  C   UNL     1      -4.191  13.500   1.439  0.00  0.00    +0.035 A 
ATOM     21  C   UNL     1      -3.606  14.302   0.466  0.00  0.00    +0.023 A 
ATOM     22  C   UNL     1      -3.017  13.726  -0.642  0.00  0.00    +0.004 A 
ATOM     23  C   UNL     1      -3.007  12.352  -0.788  0.00  0.00    +0.023 A 
ATOM     24  C   UNL     1      -3.590  11.545   0.180  0.00  0.00    +0.034 A 
ATOM     25  C   UNL     1      -4.188  12.121   1.292  0.00  0.00    +0.046 A 
BRANCH  20  28
ATOM     26  C   UNL     1      -5.448  15.253   2.443  0.00  0.00    +0.220 C 
ATOM     27  O   UNL     1      -5.481  15.825   1.374  0.00  0.00    -0.275 OA
ATOM     28  N   UNL     1      -4.788  14.084   2.562  0.00  0.00    -0.285 N 
ATOM     29  H   UNL     1      -4.726  13.647   3.426  0.00  0.00    +0.155 HD
BRANCH  26  31
ATOM     30  C   UNL     1      -5.121  16.114   4.745  0.00  0.00    +0.017 C 
ATOM     31  C   UNL     1      -6.144  15.850   3.639  0.00  0.00    +0.069 C 
ATOM     32  C   UNL     1      -6.811  17.167   3.236  0.00  0.00    +0.017 C 
ENDBRANCH  26  31
ENDBRANCH  20  28
ENDBRANCH  18  24
ENDBRANCH   1  18
TORSDOF 8
