REMARK  Name = ZINC25164307
REMARK  8 active torsions:
REMARK  status: ('A' for Active; 'I' for Inactive)
REMARK    1  A    between atoms: C_6  and  N_7
REMARK    2  A    between atoms: C_8  and  N_30
REMARK    3  A    between atoms: C_9  and  C_28
REMARK    4  A    between atoms: C_10  and  C_12
REMARK    5  A    between atoms: C_12  and  C_13
REMARK    6  A    between atoms: C_13  and  C_14
REMARK    7  A    between atoms: C_14  and  N_15
REMARK    8  A    between atoms: C_16  and  C_18
REMARK                            x       y       z     vdW  Elec       q    Type
REMARK                         _______ _______ _______ _____ _____    ______ ____
ROOT
ATOM      1  N   UNL     1       0.624   3.540   0.015  0.00  0.00    -0.217 N 
ATOM      2  C   UNL     1       1.091   2.271   0.004  0.00  0.00    +0.138 A 
ATOM      3  C   UNL     1      -0.017   1.428   0.010  0.00  0.00    +0.114 A 
ATOM      4  C   UNL     1      -1.166   2.253   0.019  0.00  0.00    +0.083 A 
ATOM      5  N   UNL     1      -0.774   3.497   0.028  0.00  0.00    -0.168 NA
ENDROOT
BRANCH   1  11
ATOM      6  C   UNL     1       2.617   4.725   0.697  0.00  0.00    +0.030 A 
ATOM      7  C   UNL     1       3.391   5.869   0.690  0.00  0.00    +0.040 A 
ATOM      8  C   UNL     1       2.957   6.996   0.012  0.00  0.00    +0.124 A 
ATOM      9  C   UNL     1       1.750   6.976  -0.665  0.00  0.00    +0.040 A 
ATOM     10  C   UNL     1       0.975   5.833  -0.665  0.00  0.00    +0.030 A 
ATOM     11  C   UNL     1       1.409   4.702   0.014  0.00  0.00    +0.068 A 
ATOM     12  F   UNL     1       3.713   8.116   0.011  0.00  0.00    -0.205 F 
ENDBRANCH   1  11
BRANCH   2  13
ATOM     13  N   UNL     1       2.417   1.884  -0.012  0.00  0.00    -0.342 N 
ATOM     14  H   UNL     1       2.678   0.816  -0.020  0.00  0.00    +0.144 HD
ATOM     15  H   UNL     1       3.212   2.644  -0.016  0.00  0.00    +0.144 HD
ENDBRANCH   2  13
BRANCH   3  16
ATOM     16  C   UNL     1       0.002  -0.004   0.002  0.00  0.00    +0.104 C 
ATOM     17  N   UNL     1       0.018  -1.140  -0.004  0.00  0.00    -0.191 NA
ENDBRANCH   3  16
BRANCH   4  18
ATOM     18  C   UNL     1      -2.596   1.778   0.022  0.00  0.00    +0.060 C 
BRANCH  18  19
ATOM     19  C   UNL     1      -3.074   1.609   1.466  0.00  0.00    +0.025 C 
BRANCH  19  20
ATOM     20  C   UNL     1      -4.525   1.125   1.469  0.00  0.00    +0.104 C 
BRANCH  20  21
ATOM     21  N   UNL     1      -4.983   0.964   2.852  0.00  0.00    -0.315 N 
ATOM     22  C   UNL     1      -6.239   0.544   3.101  0.00  0.00    +0.216 C 
ATOM     23  O   UNL     1      -6.991   0.300   2.181  0.00  0.00    -0.276 OA
ATOM     24  H   UNL     1      -4.301   1.185   3.686  0.00  0.00    +0.149 HD
BRANCH  22  25
ATOM     25  C   UNL     1      -6.710   0.378   4.523  0.00  0.00    +0.078 C 
ATOM     26  C   UNL     1      -5.911  -0.743   5.227  0.00  0.00    +0.016 C 
ATOM     27  C   UNL     1      -6.983  -1.807   5.615  0.00  0.00    -0.010 C 
ATOM     28  C   UNL     1      -7.807  -1.133   6.755  0.00  0.00    +0.004 C 
ATOM     29  C   UNL     1      -8.605  -0.013   6.051  0.00  0.00    +0.004 C 
ATOM     30  C   UNL     1      -8.189  -0.115   4.551  0.00  0.00    +0.001 C 
ATOM     31  C   UNL     1      -7.982  -1.665   4.413  0.00  0.00    +0.008 C 
ENDBRANCH  22  25
ENDBRANCH  20  21
ENDBRANCH  19  20
ENDBRANCH  18  19
ENDBRANCH   4  18
TORSDOF 8
