REMARK  Name = ZINC25668940
REMARK  6 active torsions:
REMARK  status: ('A' for Active; 'I' for Inactive)
REMARK    1  A    between atoms: C_4  and  N_7
REMARK    2  A    between atoms: N_10  and  C_11
REMARK    3  A    between atoms: C_14  and  N_17
REMARK    4  A    between atoms: C_18  and  C_20
REMARK    5  A    between atoms: C_20  and  O_21
REMARK    6  A    between atoms: O_21  and  C_22
REMARK                            x       y       z     vdW  Elec       q    Type
REMARK                         _______ _______ _______ _____ _____    ______ ____
ROOT
ATOM      1  C   UNL     1       2.959  14.549   0.198  0.00  0.00    +0.035 A 
ATOM      2  C   UNL     1       4.182  14.218  -0.371  0.00  0.00    +0.025 A 
ATOM      3  C   UNL     1       4.564  12.895  -0.465  0.00  0.00    +0.025 A 
ATOM      4  C   UNL     1       3.725  11.894   0.009  0.00  0.00    +0.034 A 
ATOM      5  C   UNL     1       2.499  12.225   0.572  0.00  0.00    +0.025 A 
ATOM      6  C   UNL     1       2.120  13.548   0.671  0.00  0.00    +0.025 A 
ENDROOT
BRANCH   1  10
ATOM      7  N   UNL     1       1.571  17.623   1.497  0.00  0.00    -0.269 N 
ATOM      8  C   UNL     1       1.864  16.315   1.359  0.00  0.00    +0.308 C 
ATOM      9  O   UNL     1       1.492  15.517   2.197  0.00  0.00    -0.252 OA
ATOM     10  N   UNL     1       2.571  15.891   0.292  0.00  0.00    -0.269 N 
ATOM     11  H   UNL     1       1.842  18.334   0.703  0.00  0.00    +0.156 HD
ATOM     12  H   UNL     1       2.843  16.600  -0.503  0.00  0.00    +0.156 HD
BRANCH   7  16
ATOM     13  C   UNL     1      -0.364  18.973   4.931  0.00  0.00    +0.000 A 
ATOM     14  C   UNL     1       0.590  19.766   4.320  0.00  0.00    +0.002 A 
ATOM     15  C   UNL     1       1.234  19.321   3.182  0.00  0.00    +0.023 A 
ATOM     16  C   UNL     1       0.921  18.077   2.650  0.00  0.00    +0.035 A 
ATOM     17  C   UNL     1      -0.043  17.286   3.263  0.00  0.00    +0.023 A 
ATOM     18  C   UNL     1      -0.678  17.734   4.404  0.00  0.00    +0.002 A 
ENDBRANCH   7  16
ENDBRANCH   1  10
BRANCH   4  19
ATOM     19  N   UNL     1       4.113  10.551  -0.087  0.00  0.00    -0.283 N 
ATOM     20  C   UNL     1       5.408  10.212   0.066  0.00  0.00    +0.255 C 
ATOM     21  O   UNL     1       6.250  11.075   0.202  0.00  0.00    -0.272 OA
ATOM     22  H   UNL     1       3.360   9.774  -0.286  0.00  0.00    +0.155 HD
BRANCH  20  23
ATOM     23  C   UNL     1       5.811   8.759   0.067  0.00  0.00    +0.324 C 
BRANCH  23  24
ATOM     24  O   UNL     1       7.226   8.658   0.242  0.00  0.00    -0.483 OA
BRANCH  24  25
ATOM     25  C   UNL     1       7.756   7.406   0.266  0.00  0.00    +0.122 A 
ATOM     26  C   UNL     1       6.931   6.300   0.124  0.00  0.00    +0.047 A 
ATOM     27  C   UNL     1       7.469   5.029   0.148  0.00  0.00    +0.027 A 
ATOM     28  C   UNL     1       8.836   4.857   0.315  0.00  0.00    +0.037 A 
ATOM     29  C   UNL     1       9.662   5.965   0.457  0.00  0.00    -0.022 A 
ATOM     30  C   UNL     1       9.123   7.236   0.433  0.00  0.00    +0.051 A 
ATOM     31  C   UNL     1      11.146   5.775   0.638  0.00  0.00    +0.046 C 
ATOM     32  C   UNL     1      11.402   4.498   1.443  0.00  0.00    +0.101 C 
ATOM     33  C   UNL     1      10.610   3.360   0.858  0.00  0.00    +0.218 C 
ATOM     34  O   UNL     1      11.077   2.241   0.858  0.00  0.00    -0.275 OA
ATOM     35  N   UNL     1       9.385   3.569   0.340  0.00  0.00    -0.285 N 
ATOM     36  H   UNL     1       8.815   2.721  -0.066  0.00  0.00    +0.155 HD
ENDBRANCH  24  25
ENDBRANCH  23  24
ENDBRANCH  20  23
ENDBRANCH   4  19
TORSDOF 6
