REMARK  Name = ZINC54621225
REMARK  7 active torsions:
REMARK  status: ('A' for Active; 'I' for Inactive)
REMARK    1  A    between atoms: C_6  and  C_12
REMARK    2  A    between atoms: C_7  and  O_11
REMARK    3  A    between atoms: C_12  and  C_14
REMARK    4  A    between atoms: C_12  and  N_21
REMARK    5  A    between atoms: N_21  and  C_22
REMARK    6  A    between atoms: C_25  and  S_28
REMARK    7  A    between atoms: S_28  and  N_31
REMARK                            x       y       z     vdW  Elec       q    Type
REMARK                         _______ _______ _______ _____ _____    ______ ____
ROOT
ATOM      1  C   UNL     1       5.995  -0.906  -0.060  0.00  0.00    +0.135 C 
ENDROOT
BRANCH   1   7
ATOM      2  C   UNL     1      -0.045   1.233   0.533  0.00  0.00    +0.020 A 
ATOM      3  C   UNL     1       1.099   1.959   0.364  0.00  0.00    +0.011 A 
ATOM      4  C   UNL     1       2.318   1.263   0.258  0.00  0.00    +0.004 A 
ATOM      5  C   UNL     1       3.535   1.942   0.084  0.00  0.00    +0.010 A 
ATOM      6  C   UNL     1       4.695   1.234  -0.015  0.00  0.00    +0.010 A 
ATOM      7  C   UNL     1       4.693  -0.156   0.054  0.00  0.00    +0.021 A 
ATOM      8  C   UNL     1       3.529  -0.851   0.222  0.00  0.00    +0.148 A 
ATOM      9  C   UNL     1       2.308  -0.152   0.329  0.00  0.00    +0.113 A 
ATOM     10  N   UNL     1       1.154  -0.802   0.495  0.00  0.00    -0.251 NA
ATOM     11  C   UNL     1       0.017  -0.157   0.595  0.00  0.00    +0.111 A 
BRANCH   8  12
ATOM     12  O   UNL     1       3.547  -2.208   0.287  0.00  0.00    -0.504 OA
ATOM     13  H   UNL     1       3.654  -2.558   1.182  0.00  0.00    +0.292 HD
ENDBRANCH   8  12
ENDBRANCH   1   7
BRANCH   1  14
ATOM     14  C   UNL     1       6.231  -1.286  -1.499  0.00  0.00    -0.023 A 
ATOM     15  C   UNL     1       6.737  -0.354  -2.386  0.00  0.00    +0.008 A 
ATOM     16  C   UNL     1       6.955  -0.701  -3.706  0.00  0.00    +0.038 A 
ATOM     17  C   UNL     1       6.666  -1.984  -4.140  0.00  0.00    +0.123 A 
ATOM     18  C   UNL     1       6.160  -2.917  -3.251  0.00  0.00    +0.038 A 
ATOM     19  C   UNL     1       5.948  -2.569  -1.931  0.00  0.00    +0.008 A 
ATOM     20  F   UNL     1       6.878  -2.325  -5.430  0.00  0.00    -0.205 F 
ENDBRANCH   1  14
BRANCH   1  21
ATOM     21  N   UNL     1       7.092  -0.055   0.406  0.00  0.00    -0.333 N 
ATOM     22  H   UNL     1       6.997   0.910   0.389  0.00  0.00    +0.147 HD
BRANCH  21  23
ATOM     23  C   UNL     1       8.274  -0.632   0.876  0.00  0.00    +0.028 A 
ATOM     24  C   UNL     1       8.413  -2.014   0.896  0.00  0.00    +0.025 A 
ATOM     25  C   UNL     1       9.583  -2.583   1.360  0.00  0.00    +0.030 A 
ATOM     26  C   UNL     1      10.615  -1.777   1.806  0.00  0.00    +0.105 A 
ATOM     27  C   UNL     1      10.479  -0.401   1.787  0.00  0.00    +0.030 A 
ATOM     28  C   UNL     1       9.314   0.174   1.319  0.00  0.00    +0.025 A 
BRANCH  26  29
ATOM     29  S   UNL     1      12.105  -2.506   2.398  0.00  0.00    +0.056 S 
ATOM     30  O   UNL     1      12.706  -1.554   3.266  0.00  0.00    -0.153 OA
ATOM     31  O   UNL     1      11.774  -3.821   2.823  0.00  0.00    -0.153 OA
BRANCH  29  32
ATOM     32  N   UNL     1      13.120  -2.670   1.100  0.00  0.00    -0.204 NA
ATOM     33  H   UNL     1      12.833  -2.379   0.221  0.00  0.00    +0.144 HD
ATOM     34  H   UNL     1      14.002  -3.055   1.220  0.00  0.00    +0.144 HD
ENDBRANCH  29  32
ENDBRANCH  26  29
ENDBRANCH  21  23
ENDBRANCH   1  21
TORSDOF 7
