REMARK  Name = ZINC45821485
REMARK  7 active torsions:
REMARK  status: ('A' for Active; 'I' for Inactive)
REMARK    1  A    between atoms: C_1  and  C_2
REMARK    2  A    between atoms: C_5  and  C_9
REMARK    3  A    between atoms: C_7  and  C_8
REMARK    4  A    between atoms: C_18  and  S_20
REMARK    5  A    between atoms: S_20  and  C_21
REMARK    6  A    between atoms: C_21  and  C_22
REMARK    7  A    between atoms: C_22  and  C_23
REMARK                            x       y       z     vdW  Elec       q    Type
REMARK                         _______ _______ _______ _____ _____    ______ ____
ROOT
ATOM      1  C   UNL     1       0.061  -4.255  -0.021  0.00  0.00    +0.004 A 
ATOM      2  C   UNL     1       0.963  -4.936   0.723  0.00  0.00    +0.056 A 
ATOM      3  S   UNL     1       0.582  -6.642   0.375  0.00  0.00    -0.076 S 
ATOM      4  C   UNL     1      -0.767  -6.404  -0.752  0.00  0.00    +0.117 A 
ATOM      5  C   UNL     1      -0.896  -5.007  -0.828  0.00  0.00    +0.080 A 
ATOM      6  C   UNL     1      -1.933  -4.522  -1.682  0.00  0.00    +0.261 A 
ATOM      7  O   UNL     1      -2.115  -3.323  -1.814  0.00  0.00    -0.267 OA
ATOM      8  N   UNL     1      -2.707  -5.404  -2.340  0.00  0.00    -0.301 N 
ATOM      9  H   UNL     1      -3.413  -5.078  -2.921  0.00  0.00    +0.171 HD
ATOM     10  C   UNL     1      -2.518  -6.749  -2.206  0.00  0.00    +0.170 A 
ATOM     11  N   UNL     1      -1.562  -7.222  -1.433  0.00  0.00    -0.216 NA
ENDROOT
BRANCH   1  16
ATOM     12  C   UNL     1      -0.018   1.503   0.010  0.00  0.00    +0.044 C 
ATOM     13  C   UNL     1       0.002  -0.004   0.002  0.00  0.00    -0.048 A 
ATOM     14  C   UNL     1       0.006  -0.686  -1.202  0.00  0.00    +0.004 A 
ATOM     15  C   UNL     1       0.025  -2.066  -1.215  0.00  0.00    +0.009 A 
ATOM     16  C   UNL     1       0.041  -2.772  -0.013  0.00  0.00    -0.016 A 
ATOM     17  C   UNL     1       0.037  -2.079   1.196  0.00  0.00    +0.012 A 
ATOM     18  C   UNL     1       0.023  -0.699   1.198  0.00  0.00    -0.047 A 
ATOM     19  C   UNL     1       0.025   0.052   2.504  0.00  0.00    +0.044 C 
ENDBRANCH   1  16
BRANCH  10  20
ATOM     20  S   UNL     1      -3.556  -7.866  -3.088  0.00  0.00    -0.087 S 
BRANCH  20  21
ATOM     21  C   UNL     1      -2.945  -9.505  -2.609  0.00  0.00    +0.086 C 
BRANCH  21  22
ATOM     22  C   UNL     1      -3.770 -10.584  -3.313  0.00  0.00    +0.106 C 
BRANCH  22  23
ATOM     23  C   UNL     1      -3.262 -11.945  -2.915  0.00  0.00    +0.211 C 
ATOM     24  O   UNL     1      -2.332 -12.044  -2.143  0.00  0.00    -0.276 OA
ATOM     25  N   UNL     1      -3.842 -13.054  -3.416  0.00  0.00    -0.329 N 
ATOM     26  H   UNL     1      -4.586 -12.975  -4.033  0.00  0.00    +0.145 HD
ATOM     27  H   UNL     1      -3.515 -13.930  -3.160  0.00  0.00    +0.145 HD
ENDBRANCH  22  23
ENDBRANCH  21  22
ENDBRANCH  20  21
ENDBRANCH  10  20
TORSDOF 5
