REMARK  Name = ZINC44817433
REMARK  4 active torsions:
REMARK  status: ('A' for Active; 'I' for Inactive)
REMARK    1  A    between atoms: C_1  and  C_2
REMARK    2  A    between atoms: C_2  and  C_4
REMARK    3  A    between atoms: C_2  and  N_12
REMARK    4  A    between atoms: C_4  and  N_6
REMARK                            x       y       z     vdW  Elec       q    Type
REMARK                         _______ _______ _______ _____ _____    ______ ____
ROOT
ATOM      1  C   UNL     1      -0.019   1.526   0.010  0.00  0.00    +0.038 C 
ATOM      2  C   UNL     1       0.002  -0.004   0.002  0.00  0.00    +0.159 C 
ENDROOT
BRANCH   2   3
ATOM      3  N   UNL     1       0.688  -0.476  -1.203  0.00  0.00    -0.288 N 
ATOM      4  C   UNL     1       0.006  -0.608  -2.358  0.00  0.00    +0.298 C 
ATOM      5  O   UNL     1      -1.178  -0.335  -2.400  0.00  0.00    -0.253 OA
ATOM      6  N   UNL     1       0.637  -1.043  -3.467  0.00  0.00    -0.313 N 
ATOM      7  H   UNL     1       1.632  -0.695  -1.170  0.00  0.00    +0.151 HD
ATOM      8  H   UNL     1       1.582  -1.261  -3.434  0.00  0.00    +0.146 HD
ATOM      9  H   UNL     1       0.146  -1.137  -4.299  0.00  0.00    +0.146 HD
ENDBRANCH   2   3
BRANCH   2  10
ATOM     10  C   UNL     1       0.731  -0.503   1.223  0.00  0.00    +0.258 C 
ATOM     11  O   UNL     1       1.728  -1.188   1.098  0.00  0.00    -0.272 OA
BRANCH  10  12
ATOM     12  N   UNL     1       0.283  -0.195   2.438  0.00  0.00    -0.158 NA
ATOM     13  C   UNL     1       0.926  -0.634   3.514  0.00  0.00    +0.146 C 
ATOM     14  N   UNL     1       0.579  -0.401   4.800  0.00  0.00    -0.325 N 
ATOM     15  C   UNL     1       1.379  -0.949   5.876  0.00  0.00    +0.114 C 
ATOM     16  C   UNL     1       2.571  -1.760   5.327  0.00  0.00    +0.095 C 
ATOM     17  S   UNL     1       2.307  -1.584   3.520  0.00  0.00    -0.092 S 
ATOM     18  H   UNL     1      -0.205   0.133   5.001  0.00  0.00    +0.148 HD
ENDBRANCH  10  12
ENDBRANCH   2  10
TORSDOF 3
