REMARK  Name = ZINC58504373
REMARK  14 active torsions:
REMARK  status: ('A' for Active; 'I' for Inactive)
REMARK    1  A    between atoms: C_1  and  C_2
REMARK    2  A    between atoms: C_2  and  C_3
REMARK    3  A    between atoms: C_3  and  C_4
REMARK    4  A    between atoms: C_4  and  N_5
REMARK    5  A    between atoms: N_5  and  C_6
REMARK    6  A    between atoms: C_9  and  S_26
REMARK    7  A    between atoms: C_11  and  N_12
REMARK    8  A    between atoms: N_12  and  S_13
REMARK    9  A    between atoms: S_13  and  C_16
REMARK   10  A    between atoms: C_17  and  C_25
REMARK   11  A    between atoms: C_18  and  C_24
REMARK   12  A    between atoms: C_20  and  C_23
REMARK   13  A    between atoms: C_21  and  C_22
REMARK   14  A    between atoms: S_26  and  N_29
REMARK                            x       y       z     vdW  Elec       q    Type
REMARK                         _______ _______ _______ _____ _____    ______ ____
ROOT
ATOM      1  C   UNL     1      -2.869  -3.385   1.821  0.00  0.00    +0.050 A 
ATOM      2  C   UNL     1      -1.696  -4.051   2.143  0.00  0.00    +0.027 A 
ATOM      3  C   UNL     1      -1.227  -5.060   1.324  0.00  0.00    +0.030 A 
ATOM      4  C   UNL     1      -1.923  -5.410   0.182  0.00  0.00    +0.107 A 
ATOM      5  C   UNL     1      -3.094  -4.751  -0.147  0.00  0.00    +0.054 A 
ATOM      6  C   UNL     1      -3.575  -3.741   0.672  0.00  0.00    +0.071 A 
ENDROOT
BRANCH   4   7
ATOM      7  S   UNL     1      -1.318  -6.697  -0.858  0.00  0.00    +0.056 S 
ATOM      8  O   UNL     1      -1.860  -6.464  -2.150  0.00  0.00    -0.153 OA
ATOM      9  O   UNL     1       0.081  -6.785  -0.622  0.00  0.00    -0.153 OA
BRANCH   7  10
ATOM     10  N   UNL     1      -1.979  -8.116  -0.316  0.00  0.00    -0.204 NA
ATOM     11  H   UNL     1      -2.148  -8.840  -0.937  0.00  0.00    +0.144 HD
ATOM     12  H   UNL     1      -2.196  -8.221   0.624  0.00  0.00    +0.144 HD
ENDBRANCH   7  10
ENDBRANCH   4   7
BRANCH   1  13
ATOM     13  N   UNL     1      -3.347  -2.363   2.650  0.00  0.00    -0.342 N 
ATOM     14  H   UNL     1      -4.170  -1.901   2.425  0.00  0.00    +0.146 HD
BRANCH  13  15
ATOM     15  C   UNL     1      -2.604  -1.990   3.856  0.00  0.00    +0.101 C 
BRANCH  15  16
ATOM     16  C   UNL     1      -3.336  -0.856   4.577  0.00  0.00    +0.018 C 
BRANCH  16  18
ATOM     17  C   UNL     1      -3.292   0.667   6.557  0.00  0.00    +0.004 C 
ATOM     18  C   UNL     1      -2.560  -0.467   5.836  0.00  0.00    -0.002 C 
ENDBRANCH  16  18
ENDBRANCH  15  16
ENDBRANCH  13  15
ENDBRANCH   1  13
BRANCH   6  19
ATOM     19  N   UNL     1      -4.763  -3.077   0.344  0.00  0.00    -0.214 N 
ATOM     20  H   UNL     1      -4.731  -2.221  -0.111  0.00  0.00    +0.174 HD
BRANCH  19  21
ATOM     21  S   UNL     1      -6.224  -3.753   0.733  0.00  0.00    +0.073 S 
ATOM     22  O   UNL     1      -7.218  -2.796   0.391  0.00  0.00    -0.150 OA
ATOM     23  O   UNL     1      -6.218  -5.069   0.197  0.00  0.00    -0.150 OA
BRANCH  21  24
ATOM     24  C   UNL     1      -6.270  -3.923   2.486  0.00  0.00    +0.115 A 
ATOM     25  C   UNL     1      -6.517  -2.819   3.281  0.00  0.00    -0.021 A 
ATOM     26  C   UNL     1      -6.552  -2.953   4.656  0.00  0.00    -0.045 A 
ATOM     27  C   UNL     1      -6.342  -4.190   5.237  0.00  0.00    +0.007 A 
ATOM     28  C   UNL     1      -6.096  -5.293   4.441  0.00  0.00    -0.045 A 
ATOM     29  C   UNL     1      -6.064  -5.161   3.066  0.00  0.00    -0.021 A 
ATOM     30  C   UNL     1      -5.801  -6.365   2.199  0.00  0.00    +0.046 C 
ATOM     31  C   UNL     1      -5.866  -6.642   5.074  0.00  0.00    +0.044 C 
ATOM     32  C   UNL     1      -6.820  -1.750   5.523  0.00  0.00    +0.044 C 
ATOM     33  C   UNL     1      -6.746  -1.471   2.648  0.00  0.00    +0.046 C 
ENDBRANCH  21  24
ENDBRANCH  19  21
ENDBRANCH   6  19
TORSDOF 9
