REMARK  Name = ZINC20566401
REMARK  6 active torsions:
REMARK  status: ('A' for Active; 'I' for Inactive)
REMARK    1  A    between atoms: C_1  and  C_2
REMARK    2  A    between atoms: C_2  and  C_3
REMARK    3  A    between atoms: C_2  and  C_4
REMARK    4  A    between atoms: C_2  and  N_5
REMARK    5  A    between atoms: C_10  and  C_27
REMARK    6  A    between atoms: C_27  and  C_28
REMARK                            x       y       z     vdW  Elec       q    Type
REMARK                         _______ _______ _______ _____ _____    ______ ____
ROOT
ATOM      1  N   UNL     1       0.688  -0.476  -1.203  0.00  0.00    -0.236 N 
ATOM      2  C   UNL     1       0.091  -1.247  -2.120  0.00  0.00    +0.228 C 
ATOM      3  O   UNL     1      -1.054  -1.640  -2.067  0.00  0.00    -0.275 OA
ATOM      4  C   UNL     1       1.067  -1.550  -3.234  0.00  0.00    +0.107 C 
ATOM      5  C   UNL     1       1.417  -3.053  -3.211  0.00  0.00    +0.076 C 
ATOM      6  N   UNL     1       2.552  -3.166  -2.256  0.00  0.00    -0.295 NA
ATOM      7  C   UNL     1       3.365  -1.965  -2.519  0.00  0.00    +0.136 C 
ATOM      8  C   UNL     1       2.362  -0.816  -2.786  0.00  0.00    +0.122 C 
ATOM      9  C   UNL     1       1.960  -0.168  -1.480  0.00  0.00    +0.229 C 
ATOM     10  O   UNL     1       2.680   0.520  -0.789  0.00  0.00    -0.275 OA
ATOM     11  C   UNL     1       4.276  -1.652  -1.366  0.00  0.00    +0.003 A 
ATOM     12  C   UNL     1       4.059  -1.365  -0.037  0.00  0.00    +0.008 A 
ATOM     13  C   UNL     1       5.131  -1.116   0.802  0.00  0.00    +0.000 A 
ATOM     14  C   UNL     1       6.420  -1.153   0.302  0.00  0.00    +0.002 A 
ATOM     15  C   UNL     1       6.641  -1.438  -1.030  0.00  0.00    +0.023 A 
ATOM     16  C   UNL     1       5.568  -1.691  -1.881  0.00  0.00    +0.039 A 
ATOM     17  N   UNL     1       5.537  -1.995  -3.243  0.00  0.00    -0.283 N 
ATOM     18  C   UNL     1       4.280  -2.170  -3.696  0.00  0.00    +0.243 C 
ATOM     19  O   UNL     1       3.950  -2.442  -4.831  0.00  0.00    -0.273 OA
ATOM     20  H   UNL     1       2.222  -3.178  -1.302  0.00  0.00    +0.124 HD
ATOM     21  H   UNL     1       6.328  -2.071  -3.800  0.00  0.00    +0.155 HD
ENDROOT
BRANCH   1  23
ATOM     22  C   UNL     1      -0.019   1.526   0.010  0.00  0.00    +0.031 C 
ATOM     23  C   UNL     1       0.002  -0.004   0.002  0.00  0.00    +0.036 C 
ATOM     24  C   UNL     1       0.742  -0.511   1.242  0.00  0.00    +0.031 C 
ATOM     25  C   UNL     1      -1.433  -0.534   0.013  0.00  0.00    +0.031 C 
ENDBRANCH   1  23
BRANCH   5  26
ATOM     26  C   UNL     1       0.221  -3.870  -2.719  0.00  0.00    +0.115 C 
BRANCH  26  27
ATOM     27  C   UNL     1       0.541  -5.339  -2.820  0.00  0.00    +0.212 C 
ATOM     28  O   UNL     1       1.619  -5.697  -3.244  0.00  0.00    -0.276 OA
ATOM     29  N   UNL     1      -0.371  -6.255  -2.439  0.00  0.00    -0.329 N 
ATOM     30  H   UNL     1      -1.234  -5.969  -2.101  0.00  0.00    +0.145 HD
ATOM     31  H   UNL     1      -0.166  -7.201  -2.505  0.00  0.00    +0.145 HD
ENDBRANCH  26  27
ENDBRANCH   5  26
TORSDOF 3
