REMARK  Name = ZINC46653065
REMARK  7 active torsions:
REMARK  status: ('A' for Active; 'I' for Inactive)
REMARK    1  A    between atoms: C_1  and  C_2
REMARK    2  A    between atoms: C_2  and  C_4
REMARK    3  A    between atoms: C_2  and  N_15
REMARK    4  A    between atoms: C_16  and  C_18
REMARK    5  A    between atoms: C_18  and  C_19
REMARK    6  A    between atoms: C_19  and  N_20
REMARK    7  A    between atoms: N_23  and  C_24
REMARK                            x       y       z     vdW  Elec       q    Type
REMARK                         _______ _______ _______ _____ _____    ______ ____
ROOT
ATOM      1  N   UNL     1      -1.372  -0.511   0.012  0.00  0.00    -0.309 N 
ATOM      2  C   UNL     1      -2.051  -0.643  -1.145  0.00  0.00    +0.215 C 
ATOM      3  O   UNL     1      -1.524  -0.341  -2.194  0.00  0.00    -0.276 OA
ATOM      4  H   UNL     1      -1.794  -0.752   0.852  0.00  0.00    +0.149 HD
ENDROOT
BRANCH   1   6
ATOM      5  C   UNL     1      -0.019   1.526   0.010  0.00  0.00    +0.033 C 
ATOM      6  C   UNL     1       0.002  -0.004   0.002  0.00  0.00    +0.100 C 
BRANCH   6   7
ATOM      7  C   UNL     1       0.731  -0.503   1.223  0.00  0.00    -0.026 A 
ATOM      8  C   UNL     1       0.079  -0.558   2.441  0.00  0.00    +0.009 A 
ATOM      9  C   UNL     1       0.740  -1.016   3.566  0.00  0.00    +0.048 A 
ATOM     10  C   UNL     1       2.060  -1.421   3.473  0.00  0.00    +0.142 A 
ATOM     11  C   UNL     1       2.718  -1.365   2.245  0.00  0.00    +0.076 A 
ATOM     12  C   UNL     1       2.048  -0.911   1.121  0.00  0.00    +0.032 A 
ATOM     13  N   UNL     1       4.056  -1.776   2.165  0.00  0.00    -0.280 N 
ATOM     14  C   UNL     1       4.580  -2.501   3.177  0.00  0.00    +0.255 C 
ATOM     15  O   UNL     1       5.744  -2.841   3.144  0.00  0.00    -0.272 OA
ATOM     16  C   UNL     1       3.712  -2.886   4.348  0.00  0.00    +0.325 C 
ATOM     17  O   UNL     1       2.726  -1.875   4.568  0.00  0.00    -0.481 OA
ATOM     18  H   UNL     1       4.597  -1.543   1.394  0.00  0.00    +0.155 HD
ENDBRANCH   6   7
ENDBRANCH   1   6
BRANCH   2  19
ATOM     19  C   UNL     1      -3.465  -1.164  -1.134  0.00  0.00    +0.114 C 
BRANCH  19  20
ATOM     20  C   UNL     1      -4.000  -1.215  -2.566  0.00  0.00    +0.115 C 
BRANCH  20  21
ATOM     21  N   UNL     1      -5.375  -1.722  -2.556  0.00  0.00    -0.299 N 
ATOM     22  C   UNL     1      -6.053  -1.854  -3.713  0.00  0.00    +0.300 C 
ATOM     23  O   UNL     1      -5.525  -1.552  -4.765  0.00  0.00    -0.253 OA
ATOM     24  N   UNL     1      -7.318  -2.320  -3.703  0.00  0.00    -0.294 N 
ATOM     25  H   UNL     1      -5.796  -1.963  -1.716  0.00  0.00    +0.150 HD
ATOM     26  H   UNL     1      -7.739  -2.561  -2.864  0.00  0.00    +0.151 HD
BRANCH  24  27
ATOM     27  C   UNL     1      -8.055  -2.463  -4.961  0.00  0.00    +0.037 C 
ATOM     28  C   UNL     1      -8.170  -1.099  -5.643  0.00  0.00    +0.029 C 
ATOM     29  C   UNL     1      -8.940  -1.248  -6.957  0.00  0.00    -0.008 C 
ATOM     30  C   UNL     1     -10.340  -1.793  -6.668  0.00  0.00    +0.007 C 
ATOM     31  C   UNL     1     -10.226  -3.158  -5.986  0.00  0.00    -0.008 C 
ATOM     32  C   UNL     1      -9.455  -3.008  -4.672  0.00  0.00    +0.029 C 
ATOM     33  C   UNL     1      -9.481  -4.127  -6.906  0.00  0.00    +0.007 C 
ATOM     34  C   UNL     1      -8.081  -3.582  -7.195  0.00  0.00    -0.008 C 
ATOM     35  C   UNL     1      -8.196  -2.217  -7.877  0.00  0.00    +0.007 C 
ATOM     36  C   UNL     1      -7.311  -3.433  -5.881  0.00  0.00    +0.029 C 
ENDBRANCH  24  27
ENDBRANCH  20  21
ENDBRANCH  19  20
ENDBRANCH   2  19
TORSDOF 6
