REMARK  Name = ZINC47702724
REMARK  10 active torsions:
REMARK  status: ('A' for Active; 'I' for Inactive)
REMARK    1  A    between atoms: C_1  and  C_2
REMARK    2  A    between atoms: C_2  and  C_4
REMARK    3  A    between atoms: C_2  and  N_17
REMARK    4  A    between atoms: C_7  and  N_10
REMARK    5  A    between atoms: N_13  and  C_14
REMARK    6  A    between atoms: N_20  and  C_21
REMARK    7  A    between atoms: C_23  and  O_29
REMARK    8  A    between atoms: C_26  and  O_27
REMARK    9  A    between atoms: O_27  and  C_28
REMARK   10  A    between atoms: O_29  and  C_30
REMARK                            x       y       z     vdW  Elec       q    Type
REMARK                         _______ _______ _______ _____ _____    ______ ____
ROOT
ATOM      1  C   UNL     1      -0.240   1.232   0.653  0.00  0.00    +0.033 C 
ATOM      2  C   UNL     1       0.022  -0.250   0.929  0.00  0.00    +0.102 C 
ENDROOT
BRANCH   2   3
ATOM      3  C   UNL     1       0.902  -0.815  -0.155  0.00  0.00    -0.027 A 
ATOM      4  C   UNL     1       2.269  -0.607  -0.114  0.00  0.00    +0.007 A 
ATOM      5  C   UNL     1       3.078  -1.123  -1.106  0.00  0.00    +0.023 A 
ATOM      6  C   UNL     1       2.519  -1.853  -2.147  0.00  0.00    +0.035 A 
ATOM      7  C   UNL     1       1.146  -2.061  -2.186  0.00  0.00    +0.023 A 
ATOM      8  C   UNL     1       0.343  -1.546  -1.187  0.00  0.00    +0.007 A 
BRANCH   6   9
ATOM      9  N   UNL     1       3.336  -2.378  -3.154  0.00  0.00    -0.269 N 
ATOM     10  C   UNL     1       4.584  -2.794  -2.861  0.00  0.00    +0.304 C 
ATOM     11  O   UNL     1       4.966  -2.805  -1.706  0.00  0.00    -0.253 OA
ATOM     12  N   UNL     1       5.409  -3.198  -3.847  0.00  0.00    -0.296 N 
ATOM     13  H   UNL     1       3.005  -2.442  -4.063  0.00  0.00    +0.156 HD
ATOM     14  H   UNL     1       5.105  -3.189  -4.768  0.00  0.00    +0.151 HD
BRANCH  12  15
ATOM     15  C   UNL     1       6.766  -3.650  -3.528  0.00  0.00    +0.075 C 
ATOM     16  C   UNL     1       7.904  -3.156  -4.423  0.00  0.00    +0.024 C 
ATOM     17  C   UNL     1       7.439  -4.611  -4.510  0.00  0.00    +0.024 C 
ENDBRANCH  12  15
ENDBRANCH   6   9
ENDBRANCH   2   3
BRANCH   2  18
ATOM     18  N   UNL     1       0.689  -0.395   2.225  0.00  0.00    -0.293 N 
ATOM     19  C   UNL     1      -0.040  -0.445   3.357  0.00  0.00    +0.304 C 
ATOM     20  O   UNL     1      -1.253  -0.371   3.303  0.00  0.00    -0.252 OA
ATOM     21  N   UNL     1       0.574  -0.579   4.549  0.00  0.00    -0.266 N 
ATOM     22  H   UNL     1       1.657  -0.454   2.269  0.00  0.00    +0.151 HD
ATOM     23  H   UNL     1       1.542  -0.559   4.601  0.00  0.00    +0.156 HD
BRANCH  21  24
ATOM     24  C   UNL     1      -0.187  -0.745   5.715  0.00  0.00    +0.080 A 
ATOM     25  C   UNL     1      -1.493  -1.203   5.632  0.00  0.00    +0.072 A 
ATOM     26  C   UNL     1      -2.243  -1.368   6.786  0.00  0.00    +0.122 A 
ATOM     27  C   UNL     1      -1.688  -1.075   8.023  0.00  0.00    +0.049 A 
ATOM     28  C   UNL     1      -0.386  -0.618   8.108  0.00  0.00    +0.051 A 
ATOM     29  C   UNL     1       0.370  -0.457   6.958  0.00  0.00    +0.141 A 
BRANCH  29  30
ATOM     30  O   UNL     1       1.653  -0.013   7.043  0.00  0.00    -0.493 OA
ATOM     31  C   UNL     1       2.159   0.263   8.351  0.00  0.00    +0.277 C 
ENDBRANCH  29  30
BRANCH  26  32
ATOM     32  O   UNL     1      -3.524  -1.816   6.706  0.00  0.00    -0.495 OA
ATOM     33  C   UNL     1      -4.239  -1.962   7.935  0.00  0.00    +0.277 C 
ENDBRANCH  26  32
ENDBRANCH  21  24
ENDBRANCH   2  18
TORSDOF 7
