REMARK  Name = ZINC63119482
REMARK  3 active torsions:
REMARK  status: ('A' for Active; 'I' for Inactive)
REMARK    1  A    between atoms: C_1  and  C_2
REMARK    2  A    between atoms: C_11  and  N_12
REMARK    3  A    between atoms: N_12  and  N_13
REMARK                            x       y       z     vdW  Elec       q    Type
REMARK                         _______ _______ _______ _____ _____    ______ ____
ROOT
ATOM      1  C   UNL     1      -0.018   1.503   0.010  0.00  0.00    +0.047 C 
ATOM      2  C   UNL     1       0.002  -0.004   0.002  0.00  0.00    -0.009 A 
ATOM      3  C   UNL     1       0.006  -0.680  -1.181  0.00  0.00    +0.018 A 
ATOM      4  C   UNL     1       0.025  -2.089  -1.145  0.00  0.00    +0.016 A 
ATOM      5  C   UNL     1       0.030  -2.848  -2.327  0.00  0.00    +0.027 A 
ATOM      6  C   UNL     1       0.049  -4.209  -2.254  0.00  0.00    +0.017 A 
ATOM      7  C   UNL     1       0.063  -4.858  -1.022  0.00  0.00    +0.018 A 
ATOM      8  C   UNL     1       0.058  -4.152   0.144  0.00  0.00    +0.044 A 
ATOM      9  C   UNL     1       0.040  -2.747   0.109  0.00  0.00    +0.088 A 
ATOM     10  N   UNL     1       0.035  -2.030   1.238  0.00  0.00    -0.230 NA
ATOM     11  C   UNL     1       0.023  -0.713   1.212  0.00  0.00    +0.136 A 
ATOM     12 BR   UNL     1       0.076  -5.060   1.802  0.00  0.00    -0.048 Br
ATOM     13 BR   UNL     1       0.010  -1.987  -4.010  0.00  0.00    -0.050 Br
ENDROOT
BRANCH  11  14
ATOM     14  N   UNL     1       0.025  -0.011   2.408  0.00  0.00    -0.267 N 
ATOM     15  H   UNL     1       0.013   0.959   2.401  0.00  0.00    +0.167 HD
BRANCH  14  16
ATOM     16  N   UNL     1       0.046  -0.686   3.595  0.00  0.00    -0.255 NA
ATOM     17  H   UNL     1       0.045  -0.045   4.375  0.00  0.00    +0.140 HD
ATOM     18  H   UNL     1      -0.726  -1.332   3.657  0.00  0.00    +0.140 HD
ENDBRANCH  14  16
ENDBRANCH  11  14
TORSDOF 2
