REMARK  Name = ZINC47624138
REMARK  6 active torsions:
REMARK  status: ('A' for Active; 'I' for Inactive)
REMARK    1  A    between atoms: C_1  and  C_2
REMARK    2  A    between atoms: N_4  and  C_5
REMARK    3  A    between atoms: C_5  and  C_11
REMARK    4  A    between atoms: N_13  and  C_14
REMARK    5  A    between atoms: C_17  and  N_20
REMARK    6  A    between atoms: N_23  and  C_24
REMARK                            x       y       z     vdW  Elec       q    Type
REMARK                         _______ _______ _______ _____ _____    ______ ____
ROOT
ATOM      1  C   UNL     1       0.722  -2.419   3.112  0.00  0.00    +0.034 A 
ATOM      2  C   UNL     1       0.394  -3.660   3.642  0.00  0.00    +0.025 A 
ATOM      3  C   UNL     1       0.913  -4.050   4.860  0.00  0.00    +0.025 A 
ATOM      4  C   UNL     1       1.763  -3.201   5.556  0.00  0.00    +0.035 A 
ATOM      5  C   UNL     1       2.091  -1.960   5.027  0.00  0.00    +0.025 A 
ATOM      6  C   UNL     1       1.577  -1.572   3.806  0.00  0.00    +0.025 A 
ENDROOT
BRANCH   4   7
ATOM      7  N   UNL     1       2.289  -3.596   6.793  0.00  0.00    -0.269 N 
ATOM      8  C   UNL     1       2.544  -2.674   7.743  0.00  0.00    +0.308 C 
ATOM      9  O   UNL     1       2.191  -1.522   7.582  0.00  0.00    -0.252 OA
ATOM     10  N   UNL     1       3.190  -3.030   8.871  0.00  0.00    -0.269 N 
ATOM     11  H   UNL     1       2.470  -4.533   6.966  0.00  0.00    +0.156 HD
ATOM     12  H   UNL     1       3.567  -3.920   8.954  0.00  0.00    +0.156 HD
BRANCH  10  13
ATOM     13  C   UNL     1       3.316  -2.116   9.923  0.00  0.00    +0.035 A 
ATOM     14  C   UNL     1       2.321  -1.173  10.149  0.00  0.00    +0.023 A 
ATOM     15  C   UNL     1       2.449  -0.272  11.188  0.00  0.00    +0.002 A 
ATOM     16  C   UNL     1       3.566  -0.307  12.002  0.00  0.00    +0.000 A 
ATOM     17  C   UNL     1       4.558  -1.244  11.780  0.00  0.00    +0.002 A 
ATOM     18  C   UNL     1       4.434  -2.152  10.746  0.00  0.00    +0.023 A 
ENDBRANCH  10  13
ENDBRANCH   4   7
BRANCH   1  21
ATOM     19  C   UNL     1      -0.964  -2.551   1.437  0.00  0.00    +0.241 C 
ATOM     20  O   UNL     1      -1.495  -3.449   2.057  0.00  0.00    -0.273 OA
ATOM     21  N   UNL     1       0.196  -2.023   1.876  0.00  0.00    -0.284 N 
ATOM     22  H   UNL     1       0.666  -1.369   1.335  0.00  0.00    +0.155 HD
BRANCH  19  23
ATOM     23  C   UNL     1      -1.602  -2.027   0.176  0.00  0.00    +0.111 C 
ATOM     24  C   UNL     1      -2.379  -3.152  -0.508  0.00  0.00    +0.035 C 
ATOM     25  C   UNL     1      -3.026  -2.620  -1.788  0.00  0.00    +0.003 C 
ATOM     26  C   UNL     1      -3.983  -1.478  -1.439  0.00  0.00    +0.000 C 
ATOM     27  C   UNL     1      -3.206  -0.352  -0.754  0.00  0.00    +0.003 C 
ATOM     28  C   UNL     1      -2.558  -0.885   0.525  0.00  0.00    +0.035 C 
BRANCH  23  32
ATOM     29  C   UNL     1       1.401  -1.898  -2.190  0.00  0.00    +0.109 C 
ATOM     30  C   UNL     1       0.422  -2.357  -1.140  0.00  0.00    +0.211 C 
ATOM     31  O   UNL     1       0.518  -3.470  -0.667  0.00  0.00    -0.276 OA
ATOM     32  N   UNL     1      -0.561  -1.532  -0.728  0.00  0.00    -0.302 N 
ATOM     33  H   UNL     1      -0.578  -0.610  -1.030  0.00  0.00    +0.150 HD
ENDBRANCH  23  32
ENDBRANCH  19  23
ENDBRANCH   1  21
TORSDOF 5
