REMARK  Name = ZINC48847348
REMARK  4 active torsions:
REMARK  status: ('A' for Active; 'I' for Inactive)
REMARK    1  A    between atoms: C_3  and  N_11
REMARK    2  A    between atoms: C_4  and  C_8
REMARK    3  A    between atoms: C_6  and  O_7
REMARK    4  A    between atoms: N_14  and  C_15
REMARK                            x       y       z     vdW  Elec       q    Type
REMARK                         _______ _______ _______ _____ _____    ______ ____
ROOT
ATOM      1  N   UNL     1       3.429   2.073  -0.038  0.00  0.00    -0.269 N 
ATOM      2  C   UNL     1       3.348   3.411  -0.171  0.00  0.00    +0.304 C 
ATOM      3  O   UNL     1       2.261   3.957  -0.182  0.00  0.00    -0.252 OA
ATOM      4  N   UNL     1       4.471   4.146  -0.291  0.00  0.00    -0.295 N 
ATOM      5  H   UNL     1       4.295   1.646   0.054  0.00  0.00    +0.156 HD
ATOM      6  H   UNL     1       5.338   3.711  -0.282  0.00  0.00    +0.151 HD
ENDROOT
BRANCH   4   7
ATOM      7  C   UNL     1       4.383   5.601  -0.435  0.00  0.00    +0.097 C 
ATOM      8  C   UNL     1       4.297   6.248   0.958  0.00  0.00    +0.046 C 
ATOM      9  C   UNL     1       4.521   7.778   0.796  0.00  0.00    +0.168 C 
ATOM     10  S   UNL     1       5.878   7.791  -0.450  0.00  0.00    -0.029 S 
ATOM     11  O   UNL     1       7.127   7.823   0.226  0.00  0.00    -0.174 OA
ATOM     12  O   UNL     1       5.591   8.774  -1.436  0.00  0.00    -0.174 OA
ATOM     13  C   UNL     1       5.636   6.121  -1.180  0.00  0.00    +0.188 C 
ENDBRANCH   4   7
BRANCH   1  16
ATOM     14  C   UNL     1      -0.028   1.002  -0.659  0.00  0.00    +0.047 A 
ATOM     15  C   UNL     1       1.121   1.766  -0.663  0.00  0.00    +0.028 A 
ATOM     16  C   UNL     1       2.268   1.302  -0.034  0.00  0.00    +0.049 A 
ATOM     17  C   UNL     1       2.255   0.052   0.606  0.00  0.00    +0.088 A 
ATOM     18  C   UNL     1       1.085  -0.714   0.603  0.00  0.00    +0.062 A 
ATOM     19  C   UNL     1      -0.048  -0.236  -0.028  0.00  0.00    +0.118 A 
BRANCH  17  20
ATOM     20  C   UNL     1       3.466  -0.450   1.275  0.00  0.00    +0.388 C 
ATOM     21  O   UNL     1       3.481  -1.579   1.746  0.00  0.00    -0.241 OA
ATOM     22  O   UNL     1       4.457   0.262   1.360  0.00  0.00    -0.241 OA
ENDBRANCH  17  20
BRANCH  19  23
ATOM     23  O   UNL     1      -1.187  -0.980  -0.030  0.00  0.00    -0.507 OA
ATOM     24  H   UNL     1      -1.261  -1.582  -0.783  0.00  0.00    +0.292 HD
ENDBRANCH  19  23
ENDBRANCH   1  16
TORSDOF 4
