REMARK  Name = ZINC08705338
REMARK  7 active torsions:
REMARK  status: ('A' for Active; 'I' for Inactive)
REMARK    1  A    between atoms: C_3  and  N_25
REMARK    2  A    between atoms: C_4  and  N_11
REMARK    3  A    between atoms: C_6  and  C_7
REMARK    4  A    between atoms: C_12  and  C_14
REMARK    5  A    between atoms: C_14  and  S_15
REMARK    6  A    between atoms: S_15  and  C_16
REMARK    7  A    between atoms: C_22  and  N_24
REMARK                            x       y       z     vdW  Elec       q    Type
REMARK                         _______ _______ _______ _____ _____    ______ ____
ROOT
ATOM      1  N   UNL     1      -0.016   1.344   0.009  0.00  0.00    -0.283 N 
ATOM      2  C   UNL     1      -0.155   0.125  -0.550  0.00  0.00    +0.228 C 
ATOM      3  O   UNL     1       0.762  -0.363  -1.176  0.00  0.00    -0.275 OA
ATOM      4  H   UNL     1      -0.775   1.770   0.438  0.00  0.00    +0.155 HD
ENDROOT
BRANCH   1   8
ATOM      5  C   UNL     1       3.674   3.288  -0.117  0.00  0.00    +0.014 A 
ATOM      6  C   UNL     1       2.513   4.028   0.008  0.00  0.00    +0.025 A 
ATOM      7  C   UNL     1       1.283   3.388   0.045  0.00  0.00    +0.051 A 
ATOM      8  C   UNL     1       1.223   1.997  -0.033  0.00  0.00    +0.055 A 
ATOM      9  C   UNL     1       2.392   1.262  -0.158  0.00  0.00    +0.037 A 
ATOM     10  C   UNL     1       3.614   1.909  -0.199  0.00  0.00    +0.057 A 
BRANCH   7  11
ATOM     11  N   UNL     1       0.107   4.136   0.165  0.00  0.00    -0.328 N 
ATOM     12  C   UNL     1      -0.095   4.992  -1.011  0.00  0.00    +0.105 C 
ATOM     13  C   UNL     1      -1.457   5.683  -0.913  0.00  0.00    +0.019 C 
ATOM     14  C   UNL     1      -1.508   6.521   0.367  0.00  0.00    +0.003 C 
ATOM     15  C   UNL     1      -1.246   5.614   1.573  0.00  0.00    +0.019 C 
ATOM     16  C   UNL     1       0.110   4.926   1.403  0.00  0.00    +0.105 C 
ENDBRANCH   7  11
BRANCH  10  17
ATOM     17  C   UNL     1       4.883   1.108  -0.336  0.00  0.00    +0.417 C 
ATOM     18  F   UNL     1       5.187   0.944  -1.691  0.00  0.00    -0.166 F 
ATOM     19  F   UNL     1       5.931   1.784   0.299  0.00  0.00    -0.166 F 
ATOM     20  F   UNL     1       4.710  -0.146   0.259  0.00  0.00    -0.166 F 
ENDBRANCH  10  17
ENDBRANCH   1   8
BRANCH   2  21
ATOM     21  C   UNL     1      -1.450  -0.631  -0.397  0.00  0.00    +0.173 C 
BRANCH  21  22
ATOM     22  S   UNL     1      -1.325  -2.221  -1.253  0.00  0.00    -0.078 S 
BRANCH  22  23
ATOM     23  C   UNL     1      -2.927  -2.874  -0.920  0.00  0.00    +0.171 A 
ATOM     24  N   UNL     1      -3.262  -4.101  -1.409  0.00  0.00    -0.302 N 
ATOM     25  H   UNL     1      -2.620  -4.605  -1.934  0.00  0.00    +0.171 HD
ATOM     26  C   UNL     1      -4.483  -4.619  -1.160  0.00  0.00    +0.254 A 
ATOM     27  O   UNL     1      -4.790  -5.719  -1.591  0.00  0.00    -0.268 OA
ATOM     28  C   UNL     1      -5.393  -3.871  -0.406  0.00  0.00    +0.113 A 
ATOM     29  C   UNL     1      -5.004  -2.625   0.065  0.00  0.00    +0.124 A 
ATOM     30  N   UNL     1      -3.778  -2.164  -0.209  0.00  0.00    -0.209 NA
BRANCH  29  31
ATOM     31  N   UNL     1      -5.879  -1.863   0.813  0.00  0.00    -0.343 N 
ATOM     32  H   UNL     1      -5.606  -0.992   1.141  0.00  0.00    +0.144 HD
ATOM     33  H   UNL     1      -6.768  -2.199   1.010  0.00  0.00    +0.144 HD
ENDBRANCH  29  31
ENDBRANCH  22  23
ENDBRANCH  21  22
ENDBRANCH   2  21
TORSDOF 7
