REMARK  Name = ZINC04815436
REMARK  2 active torsions:
REMARK  status: ('A' for Active; 'I' for Inactive)
REMARK    1  A    between atoms: C_3  and  C_6
REMARK    2  A    between atoms: N_10  and  N_14
REMARK                            x       y       z     vdW  Elec       q    Type
REMARK                         _______ _______ _______ _____ _____    ______ ____
ROOT
ATOM      1  C   UNL     1       2.450   3.211  -0.004  0.00  0.00    +0.035 C 
ATOM      2  C   UNL     1       1.758   2.050  -0.178  0.00  0.00    +0.079 C 
ATOM      3  C   UNL     1       2.243   0.735  -0.450  0.00  0.00    +0.272 C 
ATOM      4  O   UNL     1       3.436   0.517  -0.560  0.00  0.00    -0.268 OA
ATOM      5  N   UNL     1       1.359  -0.239  -0.578  0.00  0.00    -0.189 N 
ATOM      6  C   UNL     1       0.035   0.003  -0.455  0.00  0.00    +0.135 C 
ATOM      7  S   UNL     1      -1.273  -1.095  -0.581  0.00  0.00    -0.026 S 
ATOM      8  S   UNL     1      -0.005   1.758  -0.128  0.00  0.00    -0.060 S 
ENDROOT
BRANCH   1  11
ATOM      9  C   UNL     1       6.111   3.851  -0.125  0.00  0.00    +0.008 A 
ATOM     10  C   UNL     1       4.785   4.130  -0.347  0.00  0.00    +0.015 A 
ATOM     11  C   UNL     1       3.861   3.186   0.088  0.00  0.00    +0.013 A 
ATOM     12  S   UNL     1       4.920   1.932   0.787  0.00  0.00    -0.097 S 
ATOM     13  C   UNL     1       6.452   2.687   0.488  0.00  0.00    +0.046 A 
ENDBRANCH   1  11
BRANCH   5  14
ATOM     14  N   UNL     1       1.789  -1.509  -0.838  0.00  0.00    -0.246 NA
ATOM     15  H   UNL     1       1.011  -2.147  -0.910  0.00  0.00    +0.141 HD
ATOM     16  H   UNL     1       2.357  -1.535  -1.672  0.00  0.00    +0.141 HD
ENDBRANCH   5  14
TORSDOF 2
