REMARK  Name = ZINC16025554
REMARK  9 active torsions:
REMARK  status: ('A' for Active; 'I' for Inactive)
REMARK    1  A    between atoms: C_1  and  C_2
REMARK    2  A    between atoms: C_2  and  C_3
REMARK    3  A    between atoms: C_3  and  C_4
REMARK    4  A    between atoms: C_4  and  C_5
REMARK    5  A    between atoms: C_8  and  N_11
REMARK    6  A    between atoms: C_16  and  C_35
REMARK    7  A    between atoms: C_27  and  C_34
REMARK    8  A    between atoms: C_28  and  C_33
REMARK    9  A    between atoms: C_35  and  C_36
REMARK                            x       y       z     vdW  Elec       q    Type
REMARK                         _______ _______ _______ _____ _____    ______ ____
ROOT
ATOM      1  N   UNL     1       3.508  -3.921   5.831  0.00  0.00    -0.210 N 
ATOM      2  C   UNL     1       4.810  -4.227   5.822  0.00  0.00    +0.232 C 
ATOM      3  O   UNL     1       5.543  -4.142   4.859  0.00  0.00    -0.274 OA
ATOM      4  C   UNL     1       5.227  -4.696   7.197  0.00  0.00    +0.108 C 
ATOM      5  C   UNL     1       5.566  -6.201   7.137  0.00  0.00    +0.076 C 
ATOM      6  N   UNL     1       4.879  -6.794   8.315  0.00  0.00    -0.295 NA
ATOM      7  C   UNL     1       3.595  -6.072   8.387  0.00  0.00    +0.136 C 
ATOM      8  C   UNL     1       3.912  -4.601   8.021  0.00  0.00    +0.123 C 
ATOM      9  C   UNL     1       2.907  -4.089   7.015  0.00  0.00    +0.233 C 
ATOM     10  O   UNL     1       1.737  -3.868   7.244  0.00  0.00    -0.274 OA
ATOM     11  C   UNL     1       2.982  -6.175   9.754  0.00  0.00    +0.004 A 
ATOM     12  C   UNL     1       3.405  -5.810  11.013  0.00  0.00    +0.008 A 
ATOM     13  C   UNL     1       2.595  -6.042  12.110  0.00  0.00    +0.004 A 
ATOM     14  C   UNL     1       1.360  -6.642  11.940  0.00  0.00    -0.046 A 
ATOM     15  C   UNL     1       0.932  -7.009  10.681  0.00  0.00    -0.026 A 
ATOM     16  C   UNL     1       1.741  -6.779   9.570  0.00  0.00    +0.042 A 
ATOM     17  N   UNL     1       1.534  -7.054   8.217  0.00  0.00    -0.283 N 
ATOM     18  C   UNL     1       2.577  -6.670   7.455  0.00  0.00    +0.243 C 
ATOM     19  O   UNL     1       2.675  -6.784   6.252  0.00  0.00    -0.273 OA
ATOM     20  C   UNL     1      -0.415  -7.661  10.506  0.00  0.00    +0.046 C 
ATOM     21  C   UNL     1       0.479  -6.897  13.135  0.00  0.00    +0.044 C 
ATOM     22  H   UNL     1       4.731  -7.784   8.187  0.00  0.00    +0.124 HD
ATOM     23  H   UNL     1       0.733  -7.473   7.866  0.00  0.00    +0.155 HD
ENDROOT
BRANCH   1  27
ATOM     24  C   UNL     1       1.493  -2.538   2.454  0.00  0.00    -0.047 A 
ATOM     25  C   UNL     1       1.685  -1.698   3.535  0.00  0.00    +0.005 A 
ATOM     26  C   UNL     1       2.352  -2.153   4.656  0.00  0.00    +0.024 A 
ATOM     27  C   UNL     1       2.830  -3.456   4.696  0.00  0.00    +0.044 A 
ATOM     28  C   UNL     1       2.635  -4.298   3.609  0.00  0.00    +0.024 A 
ATOM     29  C   UNL     1       1.963  -3.838   2.493  0.00  0.00    +0.005 A 
BRANCH  24  30
ATOM     30  C   UNL     1       0.765  -2.038   1.233  0.00  0.00    +0.035 C 
BRANCH  30  31
ATOM     31  C   UNL     1      -0.734  -2.305   1.388  0.00  0.00    +0.004 C 
BRANCH  31  33
ATOM     32  C   UNL     1      -2.972  -2.064   0.304  0.00  0.00    +0.004 C 
ATOM     33  C   UNL     1      -1.473  -1.798   0.149  0.00  0.00    -0.003 C 
ENDBRANCH  31  33
ENDBRANCH  30  31
ENDBRANCH  24  30
ENDBRANCH   1  27
BRANCH   5  34
ATOM     34  C   UNL     1       7.078  -6.411   7.238  0.00  0.00    +0.115 C 
BRANCH  34  35
ATOM     35  C   UNL     1       7.396  -7.872   7.054  0.00  0.00    +0.212 C 
ATOM     36  O   UNL     1       6.501  -8.668   6.861  0.00  0.00    -0.276 OA
ATOM     37  N   UNL     1       8.674  -8.295   7.103  0.00  0.00    -0.329 N 
ATOM     38  H   UNL     1       9.390  -7.659   7.257  0.00  0.00    +0.145 HD
ATOM     39  H   UNL     1       8.879  -9.236   6.985  0.00  0.00    +0.145 HD
ENDBRANCH  34  35
ENDBRANCH   5  34
TORSDOF 6
