REMARK  Name = ZINC36560523
REMARK  11 active torsions:
REMARK  status: ('A' for Active; 'I' for Inactive)
REMARK    1  A    between atoms: C_1  and  C_2
REMARK    2  A    between atoms: C_2  and  C_3
REMARK    3  A    between atoms: C_3  and  N_4
REMARK    4  A    between atoms: N_4  and  C_5
REMARK    5  A    between atoms: C_5  and  C_7
REMARK    6  A    between atoms: C_5  and  C_16
REMARK    7  A    between atoms: C_8  and  O_15
REMARK    8  A    between atoms: C_10  and  O_14
REMARK    9  A    between atoms: C_12  and  O_13
REMARK   10  A    between atoms: N_18  and  C_19
REMARK   11  A    between atoms: C_25  and  C_27
REMARK                            x       y       z     vdW  Elec       q    Type
REMARK                         _______ _______ _______ _____ _____    ______ ____
ROOT
ATOM      1  C   UNL     1      -1.413  -2.997   1.096  0.00  0.00    +0.199 C 
ENDROOT
BRANCH   1   2
ATOM      2  C   UNL     1      -0.114  -3.024   1.859  0.00  0.00    +0.065 A 
ATOM      3  C   UNL     1       0.605  -1.853   2.044  0.00  0.00    +0.129 A 
ATOM      4  C   UNL     1       1.801  -1.877   2.746  0.00  0.00    +0.091 A 
ATOM      5  C   UNL     1       2.277  -3.072   3.263  0.00  0.00    +0.124 A 
ATOM      6  C   UNL     1       1.558  -4.243   3.079  0.00  0.00    +0.091 A 
ATOM      7  C   UNL     1       0.360  -4.218   2.381  0.00  0.00    +0.129 A 
BRANCH   7   8
ATOM      8  O   UNL     1      -0.348  -5.365   2.205  0.00  0.00    -0.506 OA
ATOM      9  H   UNL     1      -0.115  -5.851   1.402  0.00  0.00    +0.292 HD
ENDBRANCH   7   8
BRANCH   5  10
ATOM     10  O   UNL     1       3.450  -3.096   3.950  0.00  0.00    -0.507 OA
ATOM     11  H   UNL     1       3.351  -2.952   4.901  0.00  0.00    +0.292 HD
ENDBRANCH   5  10
BRANCH   3  12
ATOM     12  O   UNL     1       0.139  -0.681   1.537  0.00  0.00    -0.506 OA
ATOM     13  H   UNL     1      -0.370  -0.154   2.168  0.00  0.00    +0.292 HD
ENDBRANCH   3  12
ENDBRANCH   1   2
BRANCH   1  14
ATOM     14  C   UNL     1      -2.393  -2.097   1.804  0.00  0.00    +0.239 C 
ATOM     15  O   UNL     1      -2.847  -1.128   1.234  0.00  0.00    -0.273 OA
ATOM     16  N   UNL     1      -2.764  -2.369   3.071  0.00  0.00    -0.311 N 
ATOM     17  H   UNL     1      -2.401  -3.144   3.527  0.00  0.00    +0.149 HD
BRANCH  16  18
ATOM     18  C   UNL     1      -3.717  -1.493   3.759  0.00  0.00    +0.073 C 
ATOM     19  C   UNL     1      -2.967  -0.317   4.386  0.00  0.00    +0.022 C 
ATOM     20  C   UNL     1      -3.961   0.597   5.105  0.00  0.00    +0.002 C 
ATOM     21  C   UNL     1      -4.680  -0.192   6.201  0.00  0.00    +0.000 C 
ATOM     22  C   UNL     1      -5.430  -1.369   5.573  0.00  0.00    +0.002 C 
ATOM     23  C   UNL     1      -4.436  -2.283   4.854  0.00  0.00    +0.022 C 
ENDBRANCH  16  18
ENDBRANCH   1  14
BRANCH   1  24
ATOM     24  N   UNL     1      -1.175  -2.491  -0.257  0.00  0.00    -0.285 N 
ATOM     25  C   UNL     1      -2.216  -2.228  -1.072  0.00  0.00    +0.220 C 
ATOM     26  O   UNL     1      -3.343  -2.517  -0.728  0.00  0.00    -0.275 OA
BRANCH  25  27
ATOM     27  C   UNL     1      -1.980  -1.575  -2.409  0.00  0.00    +0.075 C 
ATOM     28  C   UNL     1      -1.686  -0.088  -2.206  0.00  0.00    +0.013 C 
ATOM     29  C   UNL     1      -1.446   0.575  -3.564  0.00  0.00    +0.001 C 
ATOM     30  C   UNL     1      -2.694   0.417  -4.435  0.00  0.00    +0.000 C 
ATOM     31  C   UNL     1      -2.989  -1.070  -4.639  0.00  0.00    +0.001 C 
ATOM     32  C   UNL     1      -3.228  -1.733  -3.281  0.00  0.00    +0.013 C 
ENDBRANCH  25  27
BRANCH  24  33
ATOM     33  C   UNL     1       0.196  -2.271  -0.726  0.00  0.00    +0.108 C 
BRANCH  33  35
ATOM     34  C   UNL     1       2.220  -3.366  -1.697  0.00  0.00    +0.005 C 
ATOM     35  C   UNL     1       0.777  -3.589  -1.240  0.00  0.00    +0.016 C 
ENDBRANCH  33  35
ENDBRANCH  24  33
ENDBRANCH   1  24
TORSDOF 10
