REMARK  Name = ZINC31669947
REMARK  6 active torsions:
REMARK  status: ('A' for Active; 'I' for Inactive)
REMARK    1  A    between atoms: C_1  and  N_2
REMARK    2  A    between atoms: N_2  and  N_16
REMARK    3  A    between atoms: C_4  and  C_14
REMARK    4  A    between atoms: C_5  and  C_12
REMARK    5  A    between atoms: C_6  and  C_10
REMARK    6  A    between atoms: C_7  and  N_9
REMARK                            x       y       z     vdW  Elec       q    Type
REMARK                         _______ _______ _______ _____ _____    ______ ____
ROOT
ATOM      1  C   UNL     1      -2.062  -0.566  -1.164  0.00  0.00    +0.151 C 
ATOM      2  N   UNL     1      -1.190  -0.701   0.010  0.00  0.00    -0.256 N 
ATOM      3  C   UNL     1      -0.097   0.137  -0.086  0.00  0.00    +0.155 A 
ATOM      4  C   UNL     1       1.193  -0.414  -0.202  0.00  0.00    +0.111 A 
ATOM      5  C   UNL     1       2.300   0.452  -0.299  0.00  0.00    +0.093 A 
ATOM      6  C   UNL     1       2.058   1.841  -0.274  0.00  0.00    +0.110 A 
ATOM      7  C   UNL     1       0.733   2.300  -0.155  0.00  0.00    +0.137 A 
ATOM      8  N   UNL     1      -0.277   1.448  -0.067  0.00  0.00    -0.214 NA
ENDROOT
BRANCH   7   9
ATOM      9  N   UNL     1       0.482   3.657  -0.130  0.00  0.00    -0.342 N 
ATOM     10  H   UNL     1      -0.551   4.024  -0.037  0.00  0.00    +0.144 HD
ATOM     11  H   UNL     1       1.315   4.371  -0.203  0.00  0.00    +0.144 HD
ENDBRANCH   7   9
BRANCH   2  12
ATOM     12  N   UNL     1      -1.928  -0.456   1.238  0.00  0.00    -0.253 NA
ATOM     13  H   UNL     1      -1.253  -0.563   2.100  0.00  0.00    +0.141 HD
ATOM     14  H   UNL     1      -2.341   0.564   1.221  0.00  0.00    +0.141 HD
ENDBRANCH   2  12
BRANCH   6  15
ATOM     15  C   UNL     1       3.143   2.770  -0.368  0.00  0.00    +0.104 C 
ATOM     16  N   UNL     1       4.005   3.507  -0.443  0.00  0.00    -0.191 NA
ENDBRANCH   6  15
BRANCH   5  17
ATOM     17  C   UNL     1       3.631  -0.062  -0.419  0.00  0.00    +0.102 C 
ATOM     18  N   UNL     1       4.686  -0.470  -0.514  0.00  0.00    -0.191 NA
ENDBRANCH   5  17
BRANCH   4  19
ATOM     19  C   UNL     1       1.377  -1.834  -0.222  0.00  0.00    +0.104 C 
ATOM     20  N   UNL     1       1.524  -2.961  -0.238  0.00  0.00    -0.191 NA
ENDBRANCH   4  19
TORSDOF 5
