REMARK  Name = ZINC20917879
REMARK  9 active torsions:
REMARK  status: ('A' for Active; 'I' for Inactive)
REMARK    1  A    between atoms: C_1  and  C_2
REMARK    2  A    between atoms: C_5  and  C_8
REMARK    3  A    between atoms: N_9  and  N_10
REMARK    4  A    between atoms: C_14  and  S_17
REMARK    5  A    between atoms: N_15  and  N_16
REMARK    6  A    between atoms: S_17  and  C_18
REMARK    7  A    between atoms: C_18  and  C_19
REMARK    8  A    between atoms: C_19  and  C_20
REMARK    9  A    between atoms: N_22  and  C_23
REMARK                            x       y       z     vdW  Elec       q    Type
REMARK                         _______ _______ _______ _____ _____    ______ ____
ROOT
ATOM      1  N   UNL     1      -0.016   1.383   0.003  0.00  0.00    -0.204 N 
ATOM      2  C   UNL     1       0.003  -0.004  -0.003  0.00  0.00    +0.254 A 
ATOM      3  N   UNL     1      -1.047  -0.789   0.018  0.00  0.00    -0.109 NA
ATOM      4  N   UNL     1      -0.596  -2.115  -0.000  0.00  0.00    -0.119 NA
ATOM      5  C   UNL     1       0.715  -2.097  -0.023  0.00  0.00    +0.210 A 
ATOM      6  N   UNL     1       1.120  -0.792  -0.025  0.00  0.00    -0.211 N 
ATOM      7  H   UNL     1       0.929   1.946  -0.006  0.00  0.00    +0.177 HD
ENDROOT
BRANCH   6   8
ATOM      8  N   UNL     1       2.413  -0.353  -0.045  0.00  0.00    -0.294 N 
ATOM      9  H   UNL     1       3.240  -1.078  -0.062  0.00  0.00    +0.163 HD
ATOM     10  H   UNL     1       2.627   0.726  -0.045  0.00  0.00    +0.163 HD
ENDBRANCH   6   8
BRANCH   1  12
ATOM     11  C   UNL     1      -1.256   3.366   0.026  0.00  0.00    +0.138 C 
ATOM     12  N   UNL     1      -1.238   2.067   0.021  0.00  0.00    -0.188 NA
BRANCH  11  17
ATOM     13  C   UNL     1      -6.274   6.174   0.099  0.00  0.00    +0.044 C 
ATOM     14  C   UNL     1      -4.959   5.438   0.080  0.00  0.00    -0.050 A 
ATOM     15  C   UNL     1      -3.772   6.149   0.068  0.00  0.00    +0.004 A 
ATOM     16  C   UNL     1      -2.565   5.483   0.051  0.00  0.00    +0.010 A 
ATOM     17  C   UNL     1      -2.542   4.086   0.045  0.00  0.00    -0.005 A 
ATOM     18  C   UNL     1      -3.745   3.374   0.051  0.00  0.00    +0.010 A 
ATOM     19  C   UNL     1      -4.944   4.054   0.073  0.00  0.00    +0.004 A 
ENDBRANCH  11  17
ENDBRANCH   1  12
BRANCH   5  20
ATOM     20  S   UNL     1       1.770  -3.508  -0.046  0.00  0.00    -0.084 S 
BRANCH  20  21
ATOM     21  C   UNL     1       0.623  -4.914  -0.031  0.00  0.00    +0.086 C 
BRANCH  21  22
ATOM     22  C   UNL     1       1.418  -6.221  -0.049  0.00  0.00    +0.107 C 
BRANCH  22  23
ATOM     23  C   UNL     1       0.466  -7.388  -0.038  0.00  0.00    +0.218 C 
ATOM     24  O   UNL     1      -0.731  -7.194  -0.017  0.00  0.00    -0.275 OA
ATOM     25  N   UNL     1       0.944  -8.649  -0.050  0.00  0.00    -0.285 N 
ATOM     26  H   UNL     1       2.025  -8.826  -0.146  0.00  0.00    +0.155 HD
BRANCH  25  27
ATOM     27  C   UNL     1       0.064  -9.732   0.058  0.00  0.00    +0.034 A 
ATOM     28  C   UNL     1       0.453 -10.877   0.741  0.00  0.00    +0.023 A 
ATOM     29  C   UNL     1      -0.419 -11.943   0.850  0.00  0.00    +0.003 A 
ATOM     30  C   UNL     1      -1.673 -11.875   0.273  0.00  0.00    +0.015 A 
ATOM     31  C   UNL     1      -2.062 -10.737  -0.412  0.00  0.00    +0.020 A 
ATOM     32  C   UNL     1      -1.196  -9.665  -0.521  0.00  0.00    +0.038 A 
ATOM     33 BR   UNL     1      -3.778 -10.649  -1.200  0.00  0.00    -0.050 Br
ENDBRANCH  25  27
ENDBRANCH  22  23
ENDBRANCH  21  22
ENDBRANCH  20  21
ENDBRANCH   5  20
TORSDOF 8
