REMARK  Name = ZINC15275160
REMARK  10 active torsions:
REMARK  status: ('A' for Active; 'I' for Inactive)
REMARK    1  A    between atoms: C_1  and  O_2
REMARK    2  A    between atoms: O_2  and  C_3
REMARK    3  A    between atoms: C_6  and  N_11
REMARK    4  A    between atoms: C_8  and  O_9
REMARK    5  A    between atoms: O_9  and  C_10
REMARK    6  A    between atoms: C_21  and  S_22
REMARK    7  A    between atoms: S_22  and  C_23
REMARK    8  A    between atoms: C_23  and  C_24
REMARK    9  A    between atoms: N_26  and  C_27
REMARK   10  A    between atoms: C_28  and  C_32
REMARK                            x       y       z     vdW  Elec       q    Type
REMARK                         _______ _______ _______ _____ _____    ______ ____
ROOT
ATOM      1  N   UNL     1       0.037  -2.766  -0.013  0.00  0.00    -0.255 N 
ATOM      2  C   UNL     1       1.019  -2.132  -0.695  0.00  0.00    +0.267 A 
ATOM      3  O   UNL     1       1.858  -2.756  -1.320  0.00  0.00    -0.267 OA
ATOM      4  C   UNL     1       1.036  -0.664  -0.654  0.00  0.00    +0.065 A 
ATOM      5  C   UNL     1       2.005   0.081  -1.324  0.00  0.00    +0.015 A 
ATOM      6  C   UNL     1       1.974   1.446  -1.253  0.00  0.00    +0.001 A 
ATOM      7  C   UNL     1       0.989   2.096  -0.521  0.00  0.00    +0.002 A 
ATOM      8  C   UNL     1       0.026   1.391   0.145  0.00  0.00    +0.028 A 
ATOM      9  C   UNL     1       0.031  -0.006   0.091  0.00  0.00    +0.079 A 
ATOM     10  N   UNL     1      -0.900  -0.740   0.733  0.00  0.00    -0.223 NA
ATOM     11  C   UNL     1      -0.897  -2.049   0.683  0.00  0.00    +0.177 A 
ENDROOT
BRANCH   1  15
ATOM     12  C   UNL     1      -0.149  -6.936  -0.040  0.00  0.00    +0.162 A 
ATOM     13  C   UNL     1      -0.815  -6.205  -1.011  0.00  0.00    +0.051 A 
ATOM     14  C   UNL     1      -0.757  -4.824  -0.999  0.00  0.00    +0.030 A 
ATOM     15  C   UNL     1      -0.024  -4.167  -0.021  0.00  0.00    +0.056 A 
ATOM     16  C   UNL     1       0.644  -4.896   0.954  0.00  0.00    +0.075 A 
ATOM     17  C   UNL     1       0.583  -6.279   0.945  0.00  0.00    +0.163 A 
BRANCH  12  19
ATOM     18  C   UNL     1      -0.980  -8.902  -1.089  0.00  0.00    +0.277 C 
ATOM     19  O   UNL     1      -0.211  -8.295  -0.049  0.00  0.00    -0.491 OA
ENDBRANCH  12  19
BRANCH  17  20
ATOM     20  O   UNL     1       1.237  -6.995   1.899  0.00  0.00    -0.491 OA
ATOM     21  C   UNL     1       1.969  -6.255   2.878  0.00  0.00    +0.277 C 
ENDBRANCH  17  20
ENDBRANCH   1  15
BRANCH  11  22
ATOM     22  S   UNL     1      -2.153  -2.927   1.553  0.00  0.00    -0.078 S 
BRANCH  22  23
ATOM     23  C   UNL     1      -3.072  -1.539   2.263  0.00  0.00    +0.173 C 
BRANCH  23  24
ATOM     24  C   UNL     1      -4.228  -2.064   3.074  0.00  0.00    +0.228 C 
ATOM     25  O   UNL     1      -4.413  -3.259   3.163  0.00  0.00    -0.275 OA
ATOM     26  N   UNL     1      -5.057  -1.206   3.700  0.00  0.00    -0.279 N 
ATOM     27  H   UNL     1      -4.910  -0.250   3.629  0.00  0.00    +0.155 HD
BRANCH  26  28
ATOM     28  C   UNL     1      -6.121  -1.689   4.446  0.00  0.00    +0.084 A 
ATOM     29  C   UNL     1      -7.072  -0.970   5.162  0.00  0.00    +0.065 A 
ATOM     30  C   UNL     1      -8.081  -1.736   5.852  0.00  0.00    +0.022 A 
ATOM     31  C   UNL     1      -8.010  -3.076   5.753  0.00  0.00    +0.048 A 
ATOM     32  S   UNL     1      -6.583  -3.335   4.719  0.00  0.00    -0.081 S 
BRANCH  29  33
ATOM     33  C   UNL     1      -7.052   0.495   5.209  0.00  0.00    +0.244 C 
ATOM     34  O   UNL     1      -6.188   1.112   4.613  0.00  0.00    -0.270 OA
ATOM     35  N   UNL     1      -7.990   1.159   5.913  0.00  0.00    -0.325 N 
ATOM     36  H   UNL     1      -8.678   0.668   6.388  0.00  0.00    +0.145 HD
ATOM     37  H   UNL     1      -7.976   2.129   5.945  0.00  0.00    +0.145 HD
ENDBRANCH  29  33
ENDBRANCH  26  28
ENDBRANCH  23  24
ENDBRANCH  22  23
ENDBRANCH  11  22
TORSDOF 8
