REMARK  Name = ZINC57354768
REMARK  4 active torsions:
REMARK  status: ('A' for Active; 'I' for Inactive)
REMARK    1  A    between atoms: C_1  and  C_2
REMARK    2  A    between atoms: C_2  and  N_3
REMARK    3  A    between atoms: C_5  and  C_14
REMARK    4  A    between atoms: C_16  and  C_19
REMARK                            x       y       z     vdW  Elec       q    Type
REMARK                         _______ _______ _______ _____ _____    ______ ____
ROOT
ATOM      1  N   UNL     1       0.688  -0.476  -1.203  0.00  0.00    -0.346 N 
ATOM      2  C   UNL     1      -0.036  -0.689  -2.313  0.00  0.00    +0.103 A 
ATOM      3  C   UNL     1       0.533  -1.133  -3.487  0.00  0.00    +0.103 A 
ATOM      4  C   UNL     1       1.982  -1.381  -3.526  0.00  0.00    +0.202 A 
ATOM      5  O   UNL     1       2.531  -1.774  -4.540  0.00  0.00    -0.286 OA
ATOM      6  C   UNL     1       2.741  -1.136  -2.286  0.00  0.00    +0.046 A 
ATOM      7  C   UNL     1       2.049  -0.678  -1.152  0.00  0.00    +0.053 A 
ATOM      8  C   UNL     1       2.756  -0.438   0.024  0.00  0.00    +0.026 A 
ATOM      9  C   UNL     1       4.118  -0.644   0.062  0.00  0.00    +0.002 A 
ATOM     10  C   UNL     1       4.800  -1.091  -1.061  0.00  0.00    +0.001 A 
ATOM     11  C   UNL     1       4.119  -1.345  -2.231  0.00  0.00    +0.014 A 
ENDROOT
BRANCH   3  12
ATOM     12  C   UNL     1      -0.298  -1.355  -4.684  0.00  0.00    +0.264 A 
ATOM     13  N   UNL     1       0.131  -1.779  -5.852  0.00  0.00    -0.187 NA
ATOM     14  C   UNL     1      -0.895  -1.866  -6.712  0.00  0.00    +0.202 A 
ATOM     15  N   UNL     1      -1.994  -1.497  -6.099  0.00  0.00    -0.056 NA
ATOM     16  O   UNL     1      -1.627  -1.164  -4.769  0.00  0.00    -0.332 OA
BRANCH  14  17
ATOM     17  C   UNL     1      -0.802  -2.308  -8.126  0.00  0.00    +0.023 A 
ATOM     18  C   UNL     1       0.428  -2.681  -8.662  0.00  0.00    +0.013 A 
ATOM     19  C   UNL     1       0.510  -3.091  -9.977  0.00  0.00    +0.021 A 
ATOM     20  C   UNL     1      -0.628  -3.131 -10.763  0.00  0.00    +0.041 A 
ATOM     21  C   UNL     1      -1.854  -2.761 -10.235  0.00  0.00    +0.021 A 
ATOM     22  C   UNL     1      -1.946  -2.356  -8.920  0.00  0.00    +0.013 A 
ATOM     23 CL   UNL     1      -0.519  -3.647 -12.417  0.00  0.00    -0.084 Cl
ENDBRANCH  14  17
ENDBRANCH   3  12
BRANCH   1  25
ATOM     24  C   UNL     1      -0.019   1.526   0.010  0.00  0.00    +0.027 C 
ATOM     25  C   UNL     1       0.002  -0.004   0.002  0.00  0.00    +0.118 C 
ENDBRANCH   1  25
TORSDOF 3
