REMARK  Name = ZINC00792574
REMARK  5 active torsions:
REMARK  status: ('A' for Active; 'I' for Inactive)
REMARK    1  A    between atoms: C_1  and  C_2
REMARK    2  A    between atoms: C_9  and  N_22
REMARK    3  A    between atoms: C_10  and  C_20
REMARK    4  A    between atoms: C_11  and  C_13
REMARK    5  A    between atoms: C_16  and  C_18
REMARK                            x       y       z     vdW  Elec       q    Type
REMARK                         _______ _______ _______ _____ _____    ______ ____
ROOT
ATOM      1  C   UNL     1       0.002  -0.004   0.002  0.00  0.00    +0.068 C 
ATOM      2  C   UNL     1      -0.018   1.503   0.010  0.00  0.00    +0.068 A 
ATOM      3  C   UNL     1      -1.153   2.303   0.019  0.00  0.00    +0.050 A 
ATOM      4  C   UNL     1      -0.751   3.609   0.026  0.00  0.00    +0.222 A 
ATOM      5  N   UNL     1       0.592   3.620   0.015  0.00  0.00    -0.246 N 
ATOM      6  H   UNL     1       1.174   4.433   0.014  0.00  0.00    +0.192 HD
ATOM      7  N   UNL     1       1.033   2.288   0.004  0.00  0.00    -0.176 NA
ATOM      8  O   UNL     1      -1.626   4.645   0.037  0.00  0.00    -0.423 OA
ATOM      9  C   UNL     1      -2.919   4.372  -0.230  0.00  0.00    +0.200 C 
ATOM     10  C   UNL     1      -3.437   3.124  -0.248  0.00  0.00    +0.099 C 
ATOM     11  C   UNL     1      -2.605   1.899   0.038  0.00  0.00    +0.108 C 
ENDROOT
BRANCH  11  12
ATOM     12  C   UNL     1      -2.966   1.343   1.391  0.00  0.00    +0.004 A 
ATOM     13  C   UNL     1      -3.461   0.121   1.708  0.00  0.00    +0.027 A 
ATOM     14  C   UNL     1      -3.717  -0.175   3.034  0.00  0.00    +0.028 A 
ATOM     15  C   UNL     1      -3.476   0.769   3.977  0.00  0.00    +0.001 A 
ATOM     16  S   UNL     1      -2.860   2.125   2.992  0.00  0.00    -0.096 S 
ATOM     17  C   UNL     1      -3.676   0.694   5.468  0.00  0.00    +0.053 C 
ATOM     18 BR   UNL     1      -4.402  -1.868   3.524  0.00  0.00    -0.049 Br
ENDBRANCH  11  12
BRANCH   9  19
ATOM     19  N   UNL     1      -3.760   5.424  -0.498  0.00  0.00    -0.328 N 
ATOM     20  H   UNL     1      -3.417   6.332  -0.493  0.00  0.00    +0.145 HD
ATOM     21  H   UNL     1      -4.695   5.260  -0.694  0.00  0.00    +0.145 HD
ENDBRANCH   9  19
BRANCH  10  22
ATOM     22  C   UNL     1      -4.827   2.958  -0.548  0.00  0.00    +0.101 C 
ATOM     23  N   UNL     1      -5.930   2.827  -0.787  0.00  0.00    -0.191 NA
ENDBRANCH  10  22
TORSDOF 3
