REMARK  Name = ZINC40724339
REMARK  2 active torsions:
REMARK  status: ('A' for Active; 'I' for Inactive)
REMARK    1  A    between atoms: C_12  and  N_22
REMARK    2  A    between atoms: C_13  and  N_17
REMARK                            x       y       z     vdW  Elec       q    Type
REMARK                         _______ _______ _______ _____ _____    ______ ____
ROOT
ATOM      1  C   UNL     1       0.387   0.249  -4.154  0.00  0.00    +0.002 A 
ATOM      2  C   UNL     1       1.467   1.103  -3.985  0.00  0.00    +0.001 A 
ATOM      3  C   UNL     1       2.594   0.648  -3.325  0.00  0.00    +0.017 A 
ATOM      4  C   UNL     1       2.625  -0.638  -2.847  0.00  0.00    +0.041 A 
ATOM      5  C   UNL     1       1.544  -1.535  -2.999  0.00  0.00    +0.080 A 
ATOM      6  C   UNL     1       0.410  -1.036  -3.680  0.00  0.00    +0.029 A 
ATOM      7  N   UNL     1       1.728  -2.767  -2.475  0.00  0.00    -0.225 NA
ATOM      8  C   UNL     1       2.836  -3.114  -1.861  0.00  0.00    +0.165 A 
ATOM      9  S   UNL     1       3.814  -1.623  -1.968  0.00  0.00    -0.052 S 
ATOM     10  N   UNL     1       3.162  -4.325  -1.281  0.00  0.00    -0.277 N 
ATOM     11  C   UNL     1       4.402  -4.494  -0.673  0.00  0.00    +0.150 A 
ATOM     12  C   UNL     1       4.745  -5.715  -0.089  0.00  0.00    +0.106 A 
ATOM     13  C   UNL     1       6.003  -5.830   0.506  0.00  0.00    +0.147 A 
ATOM     14  N   UNL     1       6.821  -4.780   0.494  0.00  0.00    -0.219 NA
ATOM     15  C   UNL     1       6.457  -3.646  -0.069  0.00  0.00    +0.225 A 
ATOM     16  N   UNL     1       5.282  -3.496  -0.645  0.00  0.00    -0.219 NA
ATOM     17  H   UNL     1       2.526  -5.058  -1.297  0.00  0.00    +0.156 HD
ENDROOT
BRANCH  13  18
ATOM     18  N   UNL     1       6.394  -7.023   1.103  0.00  0.00    -0.314 N 
ATOM     19  C   UNL     1       5.639  -8.284   1.074  0.00  0.00    +0.106 C 
ATOM     20  C   UNL     1       6.444  -9.319   1.886  0.00  0.00    +0.020 C 
ATOM     21  C   UNL     1       7.329  -8.432   2.800  0.00  0.00    +0.020 C 
ATOM     22  C   UNL     1       7.639  -7.235   1.863  0.00  0.00    +0.106 C 
ENDBRANCH  13  18
BRANCH  12  23
ATOM     23  N   UNL     1       3.850  -6.796  -0.100  0.00  0.00    -0.353 N 
ATOM     24  H   UNL     1       2.897  -6.638  -0.011  0.00  0.00    +0.143 HD
ATOM     25  H   UNL     1       4.184  -7.701  -0.196  0.00  0.00    +0.143 HD
ENDBRANCH  12  23
TORSDOF 2
