REMARK  Name = ZINC63773328
REMARK  7 active torsions:
REMARK  status: ('A' for Active; 'I' for Inactive)
REMARK    1  A    between atoms: C_1  and  C_2
REMARK    2  A    between atoms: C_2  and  C_26
REMARK    3  A    between atoms: C_5  and  N_12
REMARK    4  A    between atoms: N_12  and  S_13
REMARK    5  A    between atoms: S_13  and  C_16
REMARK    6  A    between atoms: C_19  and  S_22
REMARK    7  A    between atoms: S_22  and  N_25
REMARK                            x       y       z     vdW  Elec       q    Type
REMARK                         _______ _______ _______ _____ _____    ______ ____
ROOT
ATOM      1  S   UNL     1      -1.526  -4.596   2.990  0.00  0.00    +0.059 S 
ATOM      2  O   UNL     1      -1.019  -5.923   2.957  0.00  0.00    -0.153 OA
ATOM      3  O   UNL     1      -1.477  -3.792   4.160  0.00  0.00    -0.153 OA
ENDROOT
BRANCH   1   4
ATOM      4  C   UNL     1      -3.220  -4.693   2.515  0.00  0.00    +0.105 A 
ATOM      5  C   UNL     1      -4.104  -3.703   2.902  0.00  0.00    +0.030 A 
ATOM      6  C   UNL     1      -5.433  -3.778   2.530  0.00  0.00    +0.030 A 
ATOM      7  C   UNL     1      -5.878  -4.843   1.769  0.00  0.00    +0.105 A 
ATOM      8  C   UNL     1      -4.994  -5.832   1.381  0.00  0.00    +0.030 A 
ATOM      9  C   UNL     1      -3.664  -5.755   1.750  0.00  0.00    +0.030 A 
BRANCH   7  10
ATOM     10  S   UNL     1      -7.572  -4.940   1.295  0.00  0.00    +0.056 S 
ATOM     11  O   UNL     1      -7.847  -6.312   1.048  0.00  0.00    -0.153 OA
ATOM     12  O   UNL     1      -8.304  -4.175   2.243  0.00  0.00    -0.153 OA
BRANCH  10  13
ATOM     13  N   UNL     1      -7.720  -4.159  -0.158  0.00  0.00    -0.204 NA
ATOM     14  H   UNL     1      -6.940  -3.759  -0.575  0.00  0.00    +0.144 HD
ATOM     15  H   UNL     1      -8.585  -4.101  -0.592  0.00  0.00    +0.144 HD
ENDBRANCH  10  13
ENDBRANCH   7  10
ENDBRANCH   1   4
BRANCH   1  16
ATOM     16  N   UNL     1      -0.732  -3.756   1.804  0.00  0.00    -0.183 NA
ATOM     17  H   UNL     1      -0.057  -4.198   1.266  0.00  0.00    +0.149 HD
BRANCH  16  22
ATOM     18  C   UNL     1      -0.471   1.392  -0.444  0.00  0.00    +0.016 C 
ATOM     19  C   UNL     1      -0.392  -0.133  -0.345  0.00  0.00    -0.009 C 
ATOM     20  C   UNL     1      -1.795  -0.697  -0.129  0.00  0.00    +0.013 C 
ATOM     21  C   UNL     1      -1.672  -2.193   0.184  0.00  0.00    +0.026 C 
ATOM     22  C   UNL     1      -1.048  -2.345   1.570  0.00  0.00    +0.107 C 
ATOM     23  C   UNL     1       0.214  -1.529   1.675  0.00  0.00    -0.025 A 
ATOM     24  C   UNL     1       0.513  -0.511   0.798  0.00  0.00    -0.037 A 
ATOM     25  C   UNL     1       1.691   0.208   0.954  0.00  0.00    +0.004 A 
ATOM     26  C   UNL     1       2.565  -0.093   1.979  0.00  0.00    +0.000 A 
ATOM     27  C   UNL     1       2.266  -1.118   2.857  0.00  0.00    +0.000 A 
ATOM     28  C   UNL     1       1.095  -1.831   2.704  0.00  0.00    +0.005 A 
ATOM     29  C   UNL     1       0.180  -0.694  -1.649  0.00  0.00    +0.016 C 
ENDBRANCH  16  22
ENDBRANCH   1  16
TORSDOF 5
