REMARK  Name = ZINC60346548
REMARK  4 active torsions:
REMARK  status: ('A' for Active; 'I' for Inactive)
REMARK    1  A    between atoms: C_1  and  C_2
REMARK    2  A    between atoms: C_2  and  C_18
REMARK    3  A    between atoms: N_5  and  C_9
REMARK    4  A    between atoms: C_9  and  C_10
REMARK                            x       y       z     vdW  Elec       q    Type
REMARK                         _______ _______ _______ _____ _____    ______ ____
ROOT
ATOM      1  C   UNL     1      -0.019   1.526   0.010  0.00  0.00    +0.047 C 
ATOM      2  C   UNL     1       0.002  -0.004   0.002  0.00  0.00    +0.136 C 
ATOM      3  C   UNL     1       0.815  -0.520  -1.169  0.00  0.00    +0.251 C 
ATOM      4  O   UNL     1       0.595  -0.342  -2.348  0.00  0.00    -0.272 OA
ATOM      5  N   UNL     1       1.833  -1.217  -0.627  0.00  0.00    -0.220 N 
ATOM      6  C   UNL     1       1.777  -1.214   0.710  0.00  0.00    +0.310 C 
ATOM      7  O   UNL     1       2.586  -1.776   1.421  0.00  0.00    -0.252 OA
ATOM      8  N   UNL     1       0.724  -0.519   1.178  0.00  0.00    -0.281 N 
ATOM      9  H   UNL     1       0.487  -0.383   2.109  0.00  0.00    +0.152 HD
ENDROOT
BRANCH   2  10
ATOM     10  C   UNL     1      -1.401  -0.551  -0.040  0.00  0.00    -0.009 A 
ATOM     11  C   UNL     1      -2.095  -0.795   1.131  0.00  0.00    +0.014 A 
ATOM     12  C   UNL     1      -3.355  -1.288   1.058  0.00  0.00    +0.045 A 
ATOM     13  S   UNL     1      -3.598  -1.422  -0.706  0.00  0.00    -0.105 S 
ATOM     14  C   UNL     1      -2.005  -0.807  -1.226  0.00  0.00    +0.051 A 
ENDBRANCH   2  10
BRANCH   5  15
ATOM     15  C   UNL     1       2.871  -1.896  -1.406  0.00  0.00    +0.153 C 
BRANCH  15  16
ATOM     16  C   UNL     1       4.020  -0.950  -1.644  0.00  0.00    -0.028 A 
ATOM     17  C   UNL     1       4.027  -0.140  -2.764  0.00  0.00    +0.007 A 
ATOM     18  C   UNL     1       5.080   0.728  -2.983  0.00  0.00    +0.022 A 
ATOM     19  C   UNL     1       6.127   0.787  -2.082  0.00  0.00    +0.059 A 
ATOM     20  C   UNL     1       6.120  -0.024  -0.960  0.00  0.00    +0.060 A 
ATOM     21  C   UNL     1       5.063  -0.889  -0.739  0.00  0.00    +0.026 A 
ATOM     22 CL   UNL     1       7.434   0.048   0.173  0.00  0.00    -0.082 Cl
ATOM     23 CL   UNL     1       7.450   1.876  -2.357  0.00  0.00    -0.082 Cl
ENDBRANCH  15  16
ENDBRANCH   5  15
TORSDOF 3
