REMARK  Name = ZINC11338504
REMARK  10 active torsions:
REMARK  status: ('A' for Active; 'I' for Inactive)
REMARK    1  A    between atoms: C_4  and  C_7
REMARK    2  A    between atoms: C_7  and  N_8
REMARK    3  A    between atoms: C_9  and  N_37
REMARK    4  A    between atoms: C_10  and  N_17
REMARK    5  A    between atoms: N_17  and  C_18
REMARK    6  A    between atoms: N_17  and  C_26
REMARK    7  A    between atoms: C_18  and  C_19
REMARK    8  A    between atoms: C_19  and  C_20
REMARK    9  A    between atoms: C_26  and  C_27
REMARK   10  A    between atoms: N_29  and  C_30
REMARK                            x       y       z     vdW  Elec       q    Type
REMARK                         _______ _______ _______ _____ _____    ______ ____
ROOT
ATOM      1  N   UNL     1      -0.578   5.013  -4.263  0.00  0.00    -0.314 N 
ENDROOT
BRANCH   1   4
ATOM      2  N   UNL     1       1.594   7.541  -5.799  0.00  0.00    -0.276 N 
ATOM      3  C   UNL     1       0.539   6.976  -5.120  0.00  0.00    +0.127 A 
ATOM      4  C   UNL     1       0.493   5.618  -4.961  0.00  0.00    +0.134 A 
ATOM      5  C   UNL     1       1.524   4.832  -5.508  0.00  0.00    +0.277 A 
ATOM      6  O   UNL     1       1.502   3.619  -5.383  0.00  0.00    -0.266 OA
ATOM      7  N   UNL     1       2.535   5.428  -6.169  0.00  0.00    -0.273 N 
ATOM      8  H   UNL     1       3.269   4.871  -6.558  0.00  0.00    +0.173 HD
ATOM      9  C   UNL     1       2.567   6.765  -6.312  0.00  0.00    +0.331 A 
ATOM     10  O   UNL     1       3.490   7.281  -6.913  0.00  0.00    -0.246 OA
BRANCH   3  11
ATOM     11  N   UNL     1      -0.458   7.771  -4.601  0.00  0.00    -0.343 N 
ATOM     12  H   UNL     1      -1.198   7.368  -4.120  0.00  0.00    +0.144 HD
ATOM     13  H   UNL     1      -0.421   8.733  -4.717  0.00  0.00    +0.144 HD
ENDBRANCH   3  11
BRANCH   2  14
ATOM     14  C   UNL     1       1.656   8.995  -5.971  0.00  0.00    +0.163 C 
BRANCH  14  18
ATOM     15  C   UNL     1      -0.350  10.090  -9.580  0.00  0.00    +0.000 A 
ATOM     16  C   UNL     1      -1.052  10.027  -8.390  0.00  0.00    +0.000 A 
ATOM     17  C   UNL     1      -0.403   9.673  -7.223  0.00  0.00    +0.005 A 
ATOM     18  C   UNL     1       0.948   9.381  -7.244  0.00  0.00    -0.028 A 
ATOM     19  C   UNL     1       1.651   9.449  -8.432  0.00  0.00    +0.005 A 
ATOM     20  C   UNL     1       1.001   9.798  -9.601  0.00  0.00    +0.000 A 
ENDBRANCH  14  18
ENDBRANCH   2  14
ENDBRANCH   1   4
BRANCH   1  21
ATOM     21  C   UNL     1      -0.090   4.263  -3.098  0.00  0.00    +0.110 C 
BRANCH  21  22
ATOM     22  C   UNL     1       0.296   5.242  -1.987  0.00  0.00    +0.049 C 
BRANCH  22  23
ATOM     23  C   UNL     1       0.679   4.471  -0.750  0.00  0.00    -0.072 C 
ATOM     24  C   UNL     1       1.934   4.220  -0.556  0.00  0.00    -0.028 C 
ATOM     25  C   UNL     1       2.467   3.457   0.621  0.00  0.00    +0.027 C 
ATOM     26  C   UNL     1       1.418   3.394   1.732  0.00  0.00    +0.004 C 
ATOM     27  C   UNL     1       0.086   2.943   1.118  0.00  0.00    +0.005 C 
ATOM     28  C   UNL     1      -0.417   4.043   0.181  0.00  0.00    +0.030 C 
ENDBRANCH  22  23
ENDBRANCH  21  22
ENDBRANCH   1  21
BRANCH   1  29
ATOM     29  C   UNL     1      -1.365   4.149  -5.153  0.00  0.00    +0.201 C 
BRANCH  29  30
ATOM     30  C   UNL     1      -2.724   3.910  -4.548  0.00  0.00    +0.235 C 
ATOM     31  O   UNL     1      -2.979   4.337  -3.442  0.00  0.00    -0.274 OA
ATOM     32  N   UNL     1      -3.657   3.222  -5.237  0.00  0.00    -0.284 N 
ATOM     33  H   UNL     1      -3.429   2.813  -6.086  0.00  0.00    +0.155 HD
BRANCH  32  34
ATOM     34  C   UNL     1      -4.954   3.099  -4.727  0.00  0.00    +0.036 A 
ATOM     35  C   UNL     1      -5.679   1.935  -4.944  0.00  0.00    +0.023 A 
ATOM     36  C   UNL     1      -6.958   1.813  -4.435  0.00  0.00    +0.005 A 
ATOM     37  C   UNL     1      -7.521   2.853  -3.719  0.00  0.00    +0.038 A 
ATOM     38  C   UNL     1      -6.803   4.018  -3.504  0.00  0.00    +0.125 A 
ATOM     39  C   UNL     1      -5.520   4.143  -4.008  0.00  0.00    +0.061 A 
ATOM     40  F   UNL     1      -7.355   5.033  -2.804  0.00  0.00    -0.205 F 
ENDBRANCH  32  34
ENDBRANCH  29  30
ENDBRANCH   1  29
TORSDOF 10
