REMARK  Name = ZINC39327049
REMARK  9 active torsions:
REMARK  status: ('A' for Active; 'I' for Inactive)
REMARK    1  A    between atoms: C_1  and  C_2
REMARK    2  A    between atoms: C_2  and  O_3
REMARK    3  A    between atoms: O_3  and  C_4
REMARK    4  A    between atoms: C_4  and  C_6
REMARK    5  A    between atoms: C_7  and  C_35
REMARK    6  A    between atoms: C_11  and  N_27
REMARK    7  A    between atoms: C_12  and  C_14
REMARK    8  A    between atoms: N_16  and  C_17
REMARK    9  A    between atoms: C_28  and  C_30
REMARK                            x       y       z     vdW  Elec       q    Type
REMARK                         _______ _______ _______ _____ _____    ______ ____
ROOT
ATOM      1  C   UNL     1       1.249  -2.358  -2.583  0.00  0.00    +0.066 C 
ATOM      2  C   UNL     1       1.589  -3.654  -2.541  0.00  0.00    +0.016 C 
ATOM      3  N   UNL     1       2.406  -4.218  -3.492  0.00  0.00    -0.312 N 
ATOM      4  C   UNL     1       3.074  -3.362  -4.332  0.00  0.00    +0.076 A 
ATOM      5  C   UNL     1       2.810  -2.015  -4.468  0.00  0.00    +0.015 A 
ATOM      6  C   UNL     1       3.600  -1.314  -5.362  0.00  0.00    +0.050 A 
ATOM      7  C   UNL     1       4.596  -1.993  -6.065  0.00  0.00    +0.096 A 
ATOM      8  S   UNL     1       4.412  -3.660  -5.450  0.00  0.00    -0.067 S 
ATOM      9  C   UNL     1       1.681  -1.397  -3.650  0.00  0.00    +0.098 C 
ATOM     10  C   UNL     1       1.063  -4.515  -1.421  0.00  0.00    +0.061 C 
ATOM     11  H   UNL     1       2.506  -5.180  -3.567  0.00  0.00    +0.152 HD
ENDROOT
BRANCH   9  12
ATOM     12  C   UNL     1       0.512  -1.091  -4.551  0.00  0.00    +0.002 A 
ATOM     13  C   UNL     1      -0.072   0.103  -4.816  0.00  0.00    +0.012 A 
ATOM     14  C   UNL     1      -1.145   0.147  -5.686  0.00  0.00    +0.008 A 
ATOM     15  C   UNL     1      -1.581  -1.006  -6.250  0.00  0.00    +0.045 A 
ATOM     16  S   UNL     1      -0.457  -2.206  -5.554  0.00  0.00    -0.101 S 
ENDBRANCH   9  12
BRANCH   7  17
ATOM     17  C   UNL     1       5.510  -1.493  -7.016  0.00  0.00    +0.253 C 
ATOM     18  O   UNL     1       5.490  -0.312  -7.318  0.00  0.00    -0.270 OA
ATOM     19  N   UNL     1       6.406  -2.321  -7.589  0.00  0.00    -0.305 N 
ATOM     20  H   UNL     1       6.422  -3.260  -7.349  0.00  0.00    +0.150 HD
BRANCH  19  21
ATOM     21  C   UNL     1       7.356  -1.801  -8.576  0.00  0.00    +0.036 C 
ATOM     22  C   UNL     1       6.588  -1.209  -9.760  0.00  0.00    +0.029 C 
ATOM     23  C   UNL     1       7.580  -0.667 -10.791  0.00  0.00    -0.008 C 
ATOM     24  C   UNL     1       8.478  -1.804 -11.283  0.00  0.00    +0.007 C 
ATOM     25  C   UNL     1       9.245  -2.396 -10.099  0.00  0.00    -0.008 C 
ATOM     26  C   UNL     1       8.253  -2.938  -9.068  0.00  0.00    +0.029 C 
ATOM     27  C   UNL     1      10.107  -1.308  -9.454  0.00  0.00    +0.007 C 
ATOM     28  C   UNL     1       9.209  -0.171  -8.963  0.00  0.00    -0.008 C 
ATOM     29  C   UNL     1       8.442   0.421 -10.147  0.00  0.00    +0.007 C 
ATOM     30  C   UNL     1       8.217  -0.714  -7.932  0.00  0.00    +0.029 C 
ENDBRANCH  19  21
ENDBRANCH   7  17
BRANCH   6  31
ATOM     31  N   UNL     1       3.404   0.050  -5.558  0.00  0.00    -0.357 N 
ATOM     32  H   UNL     1       2.710   0.516  -5.066  0.00  0.00    +0.142 HD
ATOM     33  H   UNL     1       3.962   0.535  -6.186  0.00  0.00    +0.142 HD
ENDBRANCH   6  31
BRANCH   1  34
ATOM     34  C   UNL     1       0.421  -1.864  -1.551  0.00  0.00    +0.338 C 
ATOM     35  O   UNL     1       0.894  -1.171  -0.670  0.00  0.00    -0.245 OA
BRANCH  34  36
ATOM     36  O   UNL     1      -0.896  -2.160  -1.542  0.00  0.00    -0.462 OA
BRANCH  36  38
ATOM     37  C   UNL     1      -3.131  -2.066  -0.627  0.00  0.00    +0.048 C 
ATOM     38  C   UNL     1      -1.674  -1.627  -0.469  0.00  0.00    +0.229 C 
ENDBRANCH  36  38
ENDBRANCH  34  36
ENDBRANCH   1  34
TORSDOF 7
