REMARK  Name = ZINC41587085
REMARK  13 active torsions:
REMARK  status: ('A' for Active; 'I' for Inactive)
REMARK    1  A    between atoms: C_1  and  C_2
REMARK    2  A    between atoms: C_10  and  C_11
REMARK    3  A    between atoms: C_13  and  O_21
REMARK    4  A    between atoms: C_14  and  O_19
REMARK    5  A    between atoms: C_15  and  O_17
REMARK    6  A    between atoms: O_17  and  C_18
REMARK    7  A    between atoms: O_19  and  C_20
REMARK    8  A    between atoms: O_21  and  C_22
REMARK    9  A    between atoms: N_26  and  C_29
REMARK   10  A    between atoms: C_29  and  C_30
REMARK   11  A    between atoms: C_30  and  C_31
REMARK   12  A    between atoms: C_36  and  O_37
REMARK   13  A    between atoms: O_37  and  C_38
REMARK                            x       y       z     vdW  Elec       q    Type
REMARK                         _______ _______ _______ _____ _____    ______ ____
ROOT
ATOM      1  C   UNL     1       0.875   1.419   0.033  0.00  0.00    +0.051 C 
ATOM      2  C   UNL     1       0.567  -0.056   0.016  0.00  0.00    +0.034 A 
ATOM      3  C   UNL     1       0.499  -0.735  -1.193  0.00  0.00    +0.133 A 
ATOM      4  C   UNL     1       0.217  -2.097  -1.220  0.00  0.00    +0.010 A 
ATOM      5  C   UNL     1       0.003  -2.776  -0.053  0.00  0.00    +0.024 A 
ATOM      6  C   UNL     1       0.069  -2.106   1.168  0.00  0.00    +0.068 A 
ATOM      7  C   UNL     1       0.360  -0.733   1.210  0.00  0.00    +0.146 A 
ATOM      8  O   UNL     1       0.378  -0.310   2.493  0.00  0.00    -0.451 OA
ATOM      9  C   UNL     1       0.117  -1.318   3.358  0.00  0.00    +0.176 C 
ATOM     10  C   UNL     1       0.061  -1.218   4.712  0.00  0.00    +0.058 C 
ATOM     11  C   UNL     1      -0.108  -2.536   2.567  0.00  0.00    +0.231 C 
ATOM     12  O   UNL     1      -0.368  -3.654   2.977  0.00  0.00    -0.283 OA
ATOM     13  C   UNL     1       0.148  -2.843  -2.529  0.00  0.00    +0.126 C 
ATOM     14  N   UNL     1      -0.006  -1.887  -3.634  0.00  0.00    -0.266 NA
ATOM     15  C   UNL     1       0.995  -0.813  -3.519  0.00  0.00    +0.318 C 
ATOM     16  O   UNL     1       0.709  -0.047  -2.346  0.00  0.00    -0.476 OA
ENDROOT
BRANCH  10  17
ATOM     17  C   UNL     1       0.161   0.097   5.356  0.00  0.00    -0.014 A 
ATOM     18  C   UNL     1       0.135   1.262   4.580  0.00  0.00    +0.057 A 
ATOM     19  C   UNL     1       0.230   2.498   5.189  0.00  0.00    +0.166 A 
ATOM     20  C   UNL     1       0.351   2.586   6.574  0.00  0.00    +0.204 A 
ATOM     21  C   UNL     1       0.378   1.429   7.350  0.00  0.00    +0.166 A 
ATOM     22  C   UNL     1       0.277   0.190   6.748  0.00  0.00    +0.057 A 
BRANCH  21  23
ATOM     23  O   UNL     1       0.497   1.520   8.701  0.00  0.00    -0.491 OA
ATOM     24  C   UNL     1       0.517   0.294   9.435  0.00  0.00    +0.277 C 
ENDBRANCH  21  23
BRANCH  20  25
ATOM     25  O   UNL     1       0.444   3.804   7.171  0.00  0.00    -0.488 OA
ATOM     26  C   UNL     1      -0.779   4.429   7.564  0.00  0.00    +0.277 C 
ENDBRANCH  20  25
BRANCH  19  27
ATOM     27  O   UNL     1       0.206   3.631   4.437  0.00  0.00    -0.491 OA
ATOM     28  C   UNL     1       0.080   3.467   3.023  0.00  0.00    +0.277 C 
ENDBRANCH  19  27
ENDBRANCH  10  17
BRANCH  14  29
ATOM     29  C   UNL     1       0.096  -2.564  -4.934  0.00  0.00    +0.092 C 
BRANCH  29  30
ATOM     30  C   UNL     1      -0.313  -1.596  -6.046  0.00  0.00    +0.054 C 
BRANCH  30  31
ATOM     31  C   UNL     1      -0.209  -2.291  -7.379  0.00  0.00    -0.005 A 
ATOM     32  C   UNL     1       0.939  -2.164  -8.137  0.00  0.00    +0.007 A 
ATOM     33  C   UNL     1       1.035  -2.801  -9.360  0.00  0.00    +0.000 A 
ATOM     34  C   UNL     1      -0.017  -3.566  -9.829  0.00  0.00    +0.004 A 
ATOM     35  C   UNL     1      -1.168  -3.695  -9.075  0.00  0.00    +0.046 A 
ATOM     36  C   UNL     1      -1.264  -3.062  -7.845  0.00  0.00    +0.123 A 
BRANCH  36  37
ATOM     37  O   UNL     1      -2.393  -3.192  -7.099  0.00  0.00    -0.495 OA
ATOM     38  C   UNL     1      -3.438  -4.002  -7.641  0.00  0.00    +0.277 C 
ENDBRANCH  36  37
ENDBRANCH  30  31
ENDBRANCH  29  30
ENDBRANCH  14  29
TORSDOF 8
