REMARK  Name = ZINC06498945
REMARK  1 active torsions:
REMARK  status: ('A' for Active; 'I' for Inactive)
REMARK    1  A    between atoms: N_20  and  C_23
REMARK                            x       y       z     vdW  Elec       q    Type
REMARK                         _______ _______ _______ _____ _____    ______ ____
ROOT
ATOM      1  C   UNL     1       0.030   1.425  -0.203  0.00  0.00    +0.000 A 
ATOM      2  C   UNL     1       1.226   2.119  -0.253  0.00  0.00    +0.002 A 
ATOM      3  C   UNL     1       2.426   1.440  -0.249  0.00  0.00    +0.023 A 
ATOM      4  C   UNL     1       2.444   0.048  -0.195  0.00  0.00    +0.036 A 
ATOM      5  C   UNL     1       1.235  -0.639  -0.145  0.00  0.00    -0.027 A 
ATOM      6  C   UNL     1       0.038   0.043  -0.149  0.00  0.00    +0.004 A 
ATOM      7  C   UNL     1       1.592  -2.098  -0.095  0.00  0.00    +0.053 C 
ATOM      8  C   UNL     1       0.995  -2.860  -1.284  0.00  0.00    +0.089 C 
ATOM      9  C   UNL     1       0.602  -4.247  -0.707  0.00  0.00    +0.074 C 
ATOM     10  C   UNL     1       1.014  -4.200   0.776  0.00  0.00    -0.054 C 
ATOM     11  N   UNL     1       1.061  -2.740   1.119  0.00  0.00    +0.395 N 
ATOM     12  C   UNL     1      -0.354  -2.339   1.301  0.00  0.00    -0.076 C 
ATOM     13  C   UNL     1      -1.030  -3.542   1.991  0.00  0.00    -0.020 C 
ATOM     14  C   UNL     1      -0.120  -4.784   1.637  0.00  0.00    -0.016 C 
ATOM     15  C   UNL     1      -0.906  -4.259  -0.822  0.00  0.00    +0.228 C 
ATOM     16  O   UNL     1      -1.628  -5.169  -0.478  0.00  0.00    -0.275 OA
ATOM     17  N   UNL     1      -1.319  -3.107  -1.364  0.00  0.00    -0.210 N 
ATOM     18  C   UNL     1      -0.328  -2.240  -1.673  0.00  0.00    +0.229 C 
ATOM     19  O   UNL     1      -0.468  -1.145  -2.176  0.00  0.00    -0.275 OA
ATOM     20  C   UNL     1       3.096  -2.132  -0.122  0.00  0.00    +0.212 C 
ATOM     21  O   UNL     1       3.799  -3.120  -0.096  0.00  0.00    -0.277 OA
ATOM     22  N   UNL     1       3.511  -0.852  -0.180  0.00  0.00    -0.286 N 
ATOM     23  H   UNL     1       4.444  -0.586  -0.209  0.00  0.00    +0.155 HD
ATOM     24  H   UNL     1       1.629  -2.556   1.932  0.00  0.00    -0.079 HD
ENDROOT
BRANCH  17  25
ATOM     25  C   UNL     1      -2.671  -2.822  -1.599  0.00  0.00    +0.047 A 
ATOM     26  C   UNL     1      -3.307  -1.821  -0.877  0.00  0.00    +0.044 A 
ATOM     27  C   UNL     1      -4.640  -1.542  -1.110  0.00  0.00    +0.044 A 
ATOM     28  C   UNL     1      -5.342  -2.259  -2.063  0.00  0.00    +0.040 A 
ATOM     29  C   UNL     1      -4.711  -3.256  -2.785  0.00  0.00    +0.044 A 
ATOM     30  C   UNL     1      -3.376  -3.536  -2.559  0.00  0.00    +0.044 A 
ATOM     31 CL   UNL     1      -5.594  -4.154  -3.980  0.00  0.00    -0.083 Cl
ATOM     32 CL   UNL     1      -5.435  -0.291  -0.207  0.00  0.00    -0.083 Cl
ENDBRANCH  17  25
TORSDOF 1
