REMARK  Name = ZINC50033958
REMARK  3 active torsions:
REMARK  status: ('A' for Active; 'I' for Inactive)
REMARK    1  A    between atoms: C_2  and  C_15
REMARK    2  A    between atoms: C_3  and  N_14
REMARK    3  A    between atoms: C_6  and  N_7
REMARK                            x       y       z     vdW  Elec       q    Type
REMARK                         _______ _______ _______ _____ _____    ______ ____
ROOT
ATOM      1  C   UNL     1      -0.073   1.266   0.013  0.00  0.00    +0.045 A 
ATOM      2  C   UNL     1       1.060   2.084  -0.018  0.00  0.00    +0.059 A 
ATOM      3  C   UNL     1       2.337   1.502  -0.036  0.00  0.00    +0.040 A 
ATOM      4  C   UNL     1       2.466   0.119  -0.024  0.00  0.00    +0.064 A 
ATOM      5  C   UNL     1       1.341  -0.681   0.005  0.00  0.00    +0.150 A 
ATOM      6  C   UNL     1       0.070  -0.109   0.024  0.00  0.00    +0.101 A 
ATOM      7  F   UNL     1       1.473  -2.026   0.017  0.00  0.00    -0.203 F 
ENDROOT
BRANCH   6   8
ATOM      8  N   UNL     1      -1.068  -0.931   0.054  0.00  0.00    -0.236 N 
ATOM      9  C   UNL     1      -1.072  -2.283   0.074  0.00  0.00    +0.129 A 
ATOM     10  C   UNL     1      -2.363  -2.691   0.101  0.00  0.00    +0.056 A 
ATOM     11  C   UNL     1      -3.175  -1.550   0.098  0.00  0.00    +0.150 A 
ATOM     12  N   UNL     1      -2.399  -0.496   0.076  0.00  0.00    -0.174 NA
ATOM     13 BR   UNL     1      -2.964  -4.483   0.136  0.00  0.00    -0.047 Br
ENDBRANCH   6   8
BRANCH   2  14
ATOM     14  C   UNL     1       0.914   3.550  -0.030  0.00  0.00    +0.243 C 
ATOM     15  O   UNL     1       1.898   4.259   0.052  0.00  0.00    -0.270 OA
ATOM     16  N   UNL     1      -0.310   4.104  -0.134  0.00  0.00    -0.325 N 
ATOM     17  H   UNL     1      -1.095   3.538  -0.200  0.00  0.00    +0.145 HD
ATOM     18  H   UNL     1      -0.406   5.069  -0.143  0.00  0.00    +0.145 HD
ENDBRANCH   2  14
BRANCH   3  19
ATOM     19  N   UNL     1       3.469   2.307  -0.066  0.00  0.00    -0.357 N 
ATOM     20  H   UNL     1       3.381   3.271   0.006  0.00  0.00    +0.142 HD
ATOM     21  H   UNL     1       4.348   1.906  -0.160  0.00  0.00    +0.142 HD
ENDBRANCH   3  19
TORSDOF 3
