REMARK  Name = ZINC36369662
REMARK  9 active torsions:
REMARK  status: ('A' for Active; 'I' for Inactive)
REMARK    1  A    between atoms: C_1  and  C_2
REMARK    2  A    between atoms: C_2  and  C_3
REMARK    3  A    between atoms: C_4  and  C_9
REMARK    4  A    between atoms: N_11  and  N_12
REMARK    5  A    between atoms: C_13  and  C_14
REMARK    6  A    between atoms: C_16  and  O_22
REMARK    7  A    between atoms: C_17  and  O_21
REMARK    8  A    between atoms: O_22  and  C_23
REMARK    9  A    between atoms: C_23  and  C_24
REMARK                            x       y       z     vdW  Elec       q    Type
REMARK                         _______ _______ _______ _____ _____    ______ ____
ROOT
ATOM      1  C   UNL     1      -1.854  -0.014   2.632  0.00  0.00    +0.272 C 
ATOM      2  O   UNL     1      -0.645  -0.088   2.758  0.00  0.00    -0.268 OA
ATOM      3  N   UNL     1      -2.658  -0.271   3.683  0.00  0.00    -0.202 N 
ATOM      4  H   UNL     1      -3.621  -0.213   3.583  0.00  0.00    +0.178 HD
ENDROOT
BRANCH   1   6
ATOM      5  C   UNL     1      -1.805   0.656   0.141  0.00  0.00    +0.062 A 
ATOM      6  C   UNL     1      -2.434   0.353   1.341  0.00  0.00    +0.100 A 
ATOM      7  S   UNL     1      -4.147   0.535   0.870  0.00  0.00    -0.048 S 
ATOM      8  C   UNL     1      -3.903   0.961  -0.739  0.00  0.00    +0.156 A 
ATOM      9  N   UNL     1      -2.587   0.958  -0.865  0.00  0.00    -0.229 NA
ATOM     10  N   UNL     1      -4.850   1.250  -1.698  0.00  0.00    -0.337 N 
ATOM     11  H   UNL     1      -5.793   1.220  -1.473  0.00  0.00    +0.144 HD
ATOM     12  H   UNL     1      -4.574   1.483  -2.598  0.00  0.00    +0.144 HD
BRANCH   5  14
ATOM     13  C   UNL     1       0.249   2.030   0.341  0.00  0.00    +0.010 C 
ATOM     14  C   UNL     1      -0.304   0.644   0.005  0.00  0.00    +0.053 C 
ENDBRANCH   5  14
ENDBRANCH   1   6
BRANCH   3  15
ATOM     15  N   UNL     1      -2.103  -0.623   4.920  0.00  0.00    -0.187 NA
ATOM     16  C   UNL     1      -2.874  -0.986   5.899  0.00  0.00    +0.138 C 
BRANCH  16  17
ATOM     17  C   UNL     1      -4.233  -1.485   5.619  0.00  0.00    -0.001 A 
ATOM     18  C   UNL     1      -5.163  -1.602   6.656  0.00  0.00    +0.059 A 
ATOM     19  C   UNL     1      -6.436  -2.071   6.389  0.00  0.00    +0.163 A 
ATOM     20  C   UNL     1      -6.790  -2.425   5.089  0.00  0.00    +0.173 A 
ATOM     21  C   UNL     1      -5.867  -2.308   4.059  0.00  0.00    +0.063 A 
ATOM     22  C   UNL     1      -4.596  -1.837   4.317  0.00  0.00    +0.028 A 
ATOM     23 BR   UNL     1      -6.354  -2.792   2.297  0.00  0.00    -0.046 Br
BRANCH  20  24
ATOM     24  O   UNL     1      -8.042  -2.885   4.829  0.00  0.00    -0.503 OA
ATOM     25  H   UNL     1      -8.677  -2.192   4.603  0.00  0.00    +0.292 HD
ENDBRANCH  20  24
BRANCH  19  26
ATOM     26  O   UNL     1      -7.343  -2.186   7.396  0.00  0.00    -0.489 OA
BRANCH  26  27
ATOM     27  C   UNL     1      -6.912  -1.806   8.704  0.00  0.00    +0.226 C 
ATOM     28  C   UNL     1      -8.059  -2.003   9.697  0.00  0.00    +0.048 C 
ENDBRANCH  26  27
ENDBRANCH  19  26
ENDBRANCH  16  17
ENDBRANCH   3  15
TORSDOF 7
