REMARK  Name = ZINC32535608
REMARK  10 active torsions:
REMARK  status: ('A' for Active; 'I' for Inactive)
REMARK    1  A    between atoms: C_1  and  C_2
REMARK    2  A    between atoms: C_2  and  C_3
REMARK    3  A    between atoms: C_3  and  C_5
REMARK    4  A    between atoms: C_3  and  N_16
REMARK    5  A    between atoms: C_11  and  C_13
REMARK    6  A    between atoms: C_13  and  C_14
REMARK    7  A    between atoms: C_13  and  C_15
REMARK    8  A    between atoms: C_20  and  S_21
REMARK    9  A    between atoms: S_21  and  C_22
REMARK   10  A    between atoms: C_22  and  C_23
REMARK                            x       y       z     vdW  Elec       q    Type
REMARK                         _______ _______ _______ _____ _____    ______ ____
ROOT
ATOM      1  N   UNL     1      -0.884   1.497   3.724  0.00  0.00    -0.279 N 
ATOM      2  C   UNL     1      -1.305   2.749   4.073  0.00  0.00    +0.216 A 
ATOM      3  N   UNL     1      -2.036   2.644   5.155  0.00  0.00    -0.113 NA
ATOM      4  N   UNL     1      -2.089   1.290   5.513  0.00  0.00    -0.121 NA
ATOM      5  C   UNL     1      -1.392   0.612   4.634  0.00  0.00    +0.194 A 
ATOM      6  N   UNL     1      -1.009   3.927   3.399  0.00  0.00    -0.328 N 
ATOM      7  H   UNL     1      -1.402   4.885   3.769  0.00  0.00    +0.145 HD
ATOM      8  H   UNL     1      -0.382   3.901   2.496  0.00  0.00    +0.145 HD
ENDROOT
BRANCH   1   9
ATOM      9  C   UNL     1      -0.042   1.161   2.573  0.00  0.00    +0.178 C 
BRANCH   9  10
ATOM     10  C   UNL     1       1.279   1.876   2.692  0.00  0.00    +0.242 C 
ATOM     11  O   UNL     1       1.522   2.542   3.676  0.00  0.00    -0.273 OA
ATOM     12  N   UNL     1       2.191   1.775   1.704  0.00  0.00    -0.262 N 
ATOM     13  C   UNL     1       3.368   2.513   1.767  0.00  0.00    +0.188 A 
ATOM     14  N   UNL     1       3.783   3.360   2.693  0.00  0.00    -0.126 NA
ATOM     15  N   UNL     1       4.891   3.957   2.602  0.00  0.00    -0.144 NA
ATOM     16  C   UNL     1       5.681   3.754   1.567  0.00  0.00    +0.106 A 
ATOM     17  S   UNL     1       4.701   2.570   0.651  0.00  0.00    -0.035 S 
ATOM     18  H   UNL     1       2.003   1.109   0.849  0.00  0.00    +0.157 HD
BRANCH  16  19
ATOM     19  C   UNL     1       7.030   4.345   1.248  0.00  0.00    +0.040 C 
ATOM     20  C   UNL     1       6.907   5.867   1.142  0.00  0.00    +0.014 C 
ATOM     21  C   UNL     1       8.019   3.989   2.360  0.00  0.00    +0.014 C 
ENDBRANCH  16  19
ENDBRANCH   9  10
BRANCH   9  23
ATOM     22  C   UNL     1      -2.017   0.768   1.093  0.00  0.00    +0.006 C 
ATOM     23  C   UNL     1      -0.744   1.595   1.284  0.00  0.00    +0.031 C 
ENDBRANCH   9  23
ENDBRANCH   1   9
BRANCH   5  24
ATOM     24  S   UNL     1      -1.149  -1.133   4.628  0.00  0.00    -0.081 S 
BRANCH  24  25
ATOM     25  C   UNL     1      -2.073  -1.710   6.079  0.00  0.00    +0.112 C 
BRANCH  25  26
ATOM     26  C   UNL     1      -1.947  -3.207   6.192  0.00  0.00    -0.037 A 
ATOM     27  C   UNL     1      -2.871  -4.028   5.573  0.00  0.00    +0.004 A 
ATOM     28  C   UNL     1      -2.752  -5.401   5.673  0.00  0.00    +0.000 A 
ATOM     29  C   UNL     1      -1.716  -5.954   6.401  0.00  0.00    +0.000 A 
ATOM     30  C   UNL     1      -0.795  -5.133   7.026  0.00  0.00    +0.000 A 
ATOM     31  C   UNL     1      -0.910  -3.760   6.921  0.00  0.00    +0.004 A 
ENDBRANCH  25  26
ENDBRANCH  24  25
ENDBRANCH   5  24
TORSDOF 7
