REMARK  Name = ZINC49487754
REMARK  5 active torsions:
REMARK  status: ('A' for Active; 'I' for Inactive)
REMARK    1  A    between atoms: C_1  and  C_2
REMARK    2  A    between atoms: C_5  and  C_18
REMARK    3  A    between atoms: C_7  and  N_8
REMARK    4  A    between atoms: N_8  and  S_9
REMARK    5  A    between atoms: S_9  and  C_12
REMARK                            x       y       z     vdW  Elec       q    Type
REMARK                         _______ _______ _______ _____ _____    ______ ____
ROOT
ATOM      1  N   UNL     1       0.025  -0.009   2.416  0.00  0.00    -0.097 NA
ENDROOT
BRANCH   1   8
ATOM      2  C   UNL     1      -0.018   1.503   0.010  0.00  0.00    +0.046 C 
ATOM      3  C   UNL     1       0.002  -0.004   0.002  0.00  0.00    -0.026 A 
ATOM      4  C   UNL     1       0.006  -0.686  -1.200  0.00  0.00    +0.006 A 
ATOM      5  C   UNL     1       0.024  -2.066  -1.216  0.00  0.00    +0.019 A 
ATOM      6  C   UNL     1       0.040  -2.778  -0.015  0.00  0.00    +0.054 A 
ATOM      7  C   UNL     1       0.037  -2.090   1.198  0.00  0.00    +0.045 A 
ATOM      8  C   UNL     1       0.023  -0.703   1.203  0.00  0.00    +0.078 A 
BRANCH   6   9
ATOM      9  C   UNL     1       0.059  -4.210  -0.029  0.00  0.00    +0.099 C 
ATOM     10  N   UNL     1       0.074  -5.346  -0.040  0.00  0.00    -0.191 NA
ENDBRANCH   6   9
ENDBRANCH   1   8
BRANCH   1  11
ATOM     11  S   UNL     1       0.049  -0.841   3.847  0.00  0.00    +0.098 S 
ATOM     12  O   UNL     1      -1.186  -1.539   3.932  0.00  0.00    -0.148 OA
ATOM     13  O   UNL     1       1.305  -1.504   3.909  0.00  0.00    -0.148 OA
BRANCH  11  14
ATOM     14  C   UNL     1       0.045   0.351   5.144  0.00  0.00    +0.149 A 
ATOM     15  C   UNL     1      -1.010   0.910   5.785  0.00  0.00    +0.038 A 
ATOM     16  C   UNL     1      -0.774   1.836   6.784  0.00  0.00    +0.025 A 
ATOM     17  C   UNL     1       0.508   2.158   7.092  0.00  0.00    +0.057 A 
ATOM     18  S   UNL     1       1.429   1.131   5.958  0.00  0.00    -0.061 S 
ATOM     19 BR   UNL     1       1.151   3.372   8.391  0.00  0.00    -0.043 Br
ENDBRANCH  11  14
ENDBRANCH   1  11
TORSDOF 4
