REMARK  Name = ZINC02337172
REMARK  12 active torsions:
REMARK  status: ('A' for Active; 'I' for Inactive)
REMARK    1  A    between atoms: C_1  and  C_2
REMARK    2  A    between atoms: C_6  and  C_29
REMARK    3  A    between atoms: C_7  and  N_8
REMARK    4  A    between atoms: C_9  and  C_11
REMARK    5  A    between atoms: C_11  and  S_12
REMARK    6  A    between atoms: S_12  and  C_13
REMARK    7  A    between atoms: C_16  and  C_19
REMARK    8  A    between atoms: N_17  and  N_18
REMARK    9  A    between atoms: C_22  and  C_25
REMARK   10  A    between atoms: C_25  and  C_26
REMARK   11  A    between atoms: C_25  and  C_27
REMARK   12  A    between atoms: C_25  and  C_28
REMARK                            x       y       z     vdW  Elec       q    Type
REMARK                         _______ _______ _______ _____ _____    ______ ____
ROOT
ATOM      1  C   UNL     1      -0.010  -0.669  -2.345  0.00  0.00    +0.209 A 
ATOM      2  N   UNL     1       1.283  -0.635  -2.115  0.00  0.00    -0.121 NA
ATOM      3  N   UNL     1       1.930  -0.946  -3.181  0.00  0.00    -0.127 NA
ATOM      4  C   UNL     1       1.090  -1.188  -4.160  0.00  0.00    +0.182 A 
ATOM      5  N   UNL     1      -0.179  -1.018  -3.655  0.00  0.00    -0.224 N 
ENDROOT
BRANCH   4   6
ATOM      6  C   UNL     1       1.440  -1.571  -5.544  0.00  0.00    +0.021 A 
ATOM      7  C   UNL     1       2.706  -2.085  -5.830  0.00  0.00    +0.012 A 
ATOM      8  C   UNL     1       3.024  -2.445  -7.123  0.00  0.00    +0.005 A 
ATOM      9  C   UNL     1       2.096  -2.287  -8.137  0.00  0.00    -0.042 A 
ATOM     10  C   UNL     1       0.842  -1.772  -7.862  0.00  0.00    +0.005 A 
ATOM     11  C   UNL     1       0.509  -1.414  -6.572  0.00  0.00    +0.012 A 
BRANCH   9  12
ATOM     12  C   UNL     1       2.454  -2.676  -9.549  0.00  0.00    -0.013 C 
ATOM     13  C   UNL     1       2.346  -1.451 -10.459  0.00  0.00    +0.015 C 
ATOM     14  C   UNL     1       3.886  -3.213  -9.582  0.00  0.00    +0.015 C 
ATOM     15  C   UNL     1       1.492  -3.761 -10.038  0.00  0.00    +0.015 C 
ENDBRANCH   9  12
ENDBRANCH   4   6
BRANCH   5  16
ATOM     16  N   UNL     1      -1.361  -1.168  -4.323  0.00  0.00    -0.295 N 
ATOM     17  H   UNL     1      -1.639  -0.304  -4.763  0.00  0.00    +0.163 HD
ATOM     18  H   UNL     1      -1.302  -1.916  -4.998  0.00  0.00    +0.163 HD
ENDBRANCH   5  16
BRANCH   1  19
ATOM     19  S   UNL     1      -1.288  -0.322  -1.183  0.00  0.00    -0.075 S 
BRANCH  19  20
ATOM     20  C   UNL     1      -0.290   0.047   0.281  0.00  0.00    +0.173 C 
BRANCH  20  22
ATOM     21  N   UNL     1      -0.673   0.694   2.638  0.00  0.00    -0.284 N 
ATOM     22  C   UNL     1      -1.198   0.383   1.436  0.00  0.00    +0.228 C 
ATOM     23  O   UNL     1      -2.401   0.374   1.284  0.00  0.00    -0.275 OA
ATOM     24  H   UNL     1       0.288   0.781   2.739  0.00  0.00    +0.155 HD
BRANCH  21  31
ATOM     25  C   UNL     1      -2.711   2.669   2.438  0.00  0.00    +0.045 C 
ATOM     26  C   UNL     1      -2.521   1.844   3.684  0.00  0.00    -0.029 A 
ATOM     27  C   UNL     1      -3.352   2.031   4.771  0.00  0.00    +0.005 A 
ATOM     28  C   UNL     1      -3.175   1.278   5.917  0.00  0.00    +0.001 A 
ATOM     29  C   UNL     1      -2.169   0.331   5.977  0.00  0.00    +0.005 A 
ATOM     30  C   UNL     1      -1.338   0.135   4.892  0.00  0.00    -0.029 A 
ATOM     31  C   UNL     1      -1.513   0.890   3.739  0.00  0.00    +0.039 A 
ATOM     32  C   UNL     1      -0.242  -0.897   4.958  0.00  0.00    +0.045 C 
ENDBRANCH  21  31
ENDBRANCH  20  22
ENDBRANCH  19  20
ENDBRANCH   1  19
TORSDOF 7
