REMARK  Name = ZINC59385069
REMARK  9 active torsions:
REMARK  status: ('A' for Active; 'I' for Inactive)
REMARK    1  A    between atoms: C_1  and  C_2
REMARK    2  A    between atoms: C_2  and  O_3
REMARK    3  A    between atoms: O_3  and  C_4
REMARK    4  A    between atoms: C_7  and  C_10
REMARK    5  A    between atoms: N_11  and  N_12
REMARK    6  A    between atoms: C_13  and  C_15
REMARK    7  A    between atoms: C_16  and  C_30
REMARK    8  A    between atoms: C_21  and  C_23
REMARK    9  A    between atoms: C_26  and  O_29
REMARK                            x       y       z     vdW  Elec       q    Type
REMARK                         _______ _______ _______ _____ _____    ______ ____
ROOT
ATOM      1  C   UNL     1      -4.969  -9.992  -0.048  0.00  0.00    +0.057 C 
ATOM      2  C   UNL     1      -6.181 -10.586  -0.020  0.00  0.00    +0.017 C 
ATOM      3  N   UNL     1      -6.299 -11.942   0.093  0.00  0.00    -0.300 N 
ATOM      4  C   UNL     1      -5.253 -12.773   0.183  0.00  0.00    +0.135 C 
ATOM      5  S   UNL     1      -5.542 -14.455   0.322  0.00  0.00    -0.019 S 
ATOM      6  N   UNL     1      -3.981 -12.329   0.169  0.00  0.00    -0.315 N 
ATOM      7  C   UNL     1      -3.745 -10.881   0.044  0.00  0.00    +0.139 C 
ATOM      8  C   UNL     1      -7.424  -9.739  -0.115  0.00  0.00    +0.061 C 
ATOM      9  H   UNL     1      -7.191 -12.324   0.110  0.00  0.00    +0.154 HD
ATOM     10  H   UNL     1      -3.238 -12.949   0.235  0.00  0.00    +0.149 HD
ENDROOT
BRANCH   7  11
ATOM     11  C   UNL     1      -2.907 -10.647  -1.186  0.00  0.00    -0.022 A 
ATOM     12  C   UNL     1      -3.260 -11.238  -2.385  0.00  0.00    +0.009 A 
ATOM     13  C   UNL     1      -2.493 -11.025  -3.514  0.00  0.00    +0.046 A 
ATOM     14  C   UNL     1      -1.367 -10.217  -3.444  0.00  0.00    +0.117 A 
ATOM     15  C   UNL     1      -1.015  -9.625  -2.239  0.00  0.00    +0.046 A 
ATOM     16  C   UNL     1      -1.788  -9.837  -1.115  0.00  0.00    +0.009 A 
BRANCH  14  17
ATOM     17  O   UNL     1      -0.610 -10.006  -4.553  0.00  0.00    -0.507 OA
ATOM     18  H   UNL     1      -0.884  -9.241  -5.076  0.00  0.00    +0.292 HD
ENDBRANCH  14  17
ENDBRANCH   7  11
BRANCH   1  20
ATOM     19  N   UNL     1      -4.982  -7.996  -1.370  0.00  0.00    -0.203 N 
ATOM     20  C   UNL     1      -4.845  -8.586  -0.166  0.00  0.00    +0.263 C 
ATOM     21  O   UNL     1      -4.615  -7.910   0.820  0.00  0.00    -0.269 OA
ATOM     22  H   UNL     1      -5.093  -8.539  -2.167  0.00  0.00    +0.178 HD
BRANCH  19  24
ATOM     23  C   UNL     1      -5.095  -6.031  -2.632  0.00  0.00    +0.138 C 
ATOM     24  N   UNL     1      -4.963  -6.599  -1.472  0.00  0.00    -0.187 NA
BRANCH  23  28
ATOM     25  C   UNL     1      -5.039  -1.797  -2.940  0.00  0.00    +0.121 A 
ATOM     26  C   UNL     1      -5.198  -2.572  -4.082  0.00  0.00    +0.046 A 
ATOM     27  C   UNL     1      -5.217  -3.947  -3.986  0.00  0.00    +0.013 A 
ATOM     28  C   UNL     1      -5.075  -4.561  -2.739  0.00  0.00    -0.005 A 
ATOM     29  C   UNL     1      -4.915  -3.777  -1.593  0.00  0.00    +0.013 A 
ATOM     30  C   UNL     1      -4.893  -2.403  -1.699  0.00  0.00    +0.046 A 
BRANCH  25  31
ATOM     31  O   UNL     1      -5.022  -0.442  -3.039  0.00  0.00    -0.492 OA
BRANCH  31  33
ATOM     32  C   UNL     1      -5.133   1.642  -4.257  0.00  0.00    +0.048 C 
ATOM     33  C   UNL     1      -5.178   0.115  -4.345  0.00  0.00    +0.225 C 
ENDBRANCH  31  33
ENDBRANCH  25  31
ENDBRANCH  23  28
ENDBRANCH  19  24
ENDBRANCH   1  20
TORSDOF 7
