REMARK  Name = ZINC42859312
REMARK  9 active torsions:
REMARK  status: ('A' for Active; 'I' for Inactive)
REMARK    1  A    between atoms: C_1  and  C_2
REMARK    2  A    between atoms: C_2  and  C_3
REMARK    3  A    between atoms: C_2  and  C_4
REMARK    4  A    between atoms: C_4  and  C_6
REMARK    5  A    between atoms: C_4  and  S_17
REMARK    6  A    between atoms: N_8  and  C_9
REMARK    7  A    between atoms: C_10  and  C_14
REMARK    8  A    between atoms: S_17  and  C_18
REMARK    9  A    between atoms: N_26  and  C_27
REMARK                            x       y       z     vdW  Elec       q    Type
REMARK                         _______ _______ _______ _____ _____    ______ ____
ROOT
ATOM      1  C   UNL     1      -1.433  -0.534   0.013  0.00  0.00    +0.143 C 
ENDROOT
BRANCH   1   2
ATOM      2  C   UNL     1      -2.175   0.051   1.187  0.00  0.00    +0.231 C 
ATOM      3  O   UNL     1      -2.923   0.992   1.024  0.00  0.00    -0.274 OA
ATOM      4  N   UNL     1      -2.009  -0.473   2.418  0.00  0.00    -0.278 N 
ATOM      5  H   UNL     1      -1.411  -1.225   2.548  0.00  0.00    +0.155 HD
BRANCH   4   6
ATOM      6  C   UNL     1      -2.692   0.065   3.498  0.00  0.00    +0.084 A 
ATOM      7  C   UNL     1      -2.640  -0.336   4.825  0.00  0.00    +0.065 A 
ATOM      8  C   UNL     1      -3.461   0.404   5.756  0.00  0.00    +0.022 A 
ATOM      9  C   UNL     1      -4.188   1.406   5.229  0.00  0.00    +0.048 A 
ATOM     10  S   UNL     1      -3.764   1.355   3.502  0.00  0.00    -0.081 S 
BRANCH   7  11
ATOM     11  C   UNL     1      -1.797  -1.454   5.260  0.00  0.00    +0.244 C 
ATOM     12  O   UNL     1      -1.118  -2.056   4.449  0.00  0.00    -0.270 OA
ATOM     13  N   UNL     1      -1.773  -1.815   6.559  0.00  0.00    -0.325 N 
ATOM     14  H   UNL     1      -2.314  -1.335   7.205  0.00  0.00    +0.145 HD
ATOM     15  H   UNL     1      -1.215  -2.554   6.846  0.00  0.00    +0.145 HD
ENDBRANCH   7  11
ENDBRANCH   4   6
ENDBRANCH   1   2
BRANCH   1  17
ATOM     16  C   UNL     1      -0.019   1.526   0.010  0.00  0.00    +0.009 C 
ATOM     17  C   UNL     1       0.002  -0.004   0.002  0.00  0.00    +0.005 C 
ATOM     18  C   UNL     1       0.742  -0.511   1.242  0.00  0.00    +0.009 C 
ENDBRANCH   1  17
BRANCH   1  19
ATOM     19  S   UNL     1      -2.265  -0.057  -1.527  0.00  0.00    -0.075 S 
BRANCH  19  20
ATOM     20  C   UNL     1      -1.380  -0.926  -2.777  0.00  0.00    +0.170 A 
ATOM     21  N   UNL     1      -0.363  -1.725  -2.563  0.00  0.00    -0.222 NA
ATOM     22  C   UNL     1       0.080  -2.227  -3.745  0.00  0.00    +0.090 A 
ATOM     23  C   UNL     1       1.111  -3.105  -4.089  0.00  0.00    +0.030 A 
ATOM     24  C   UNL     1       1.318  -3.434  -5.410  0.00  0.00    +0.002 A 
ATOM     25  C   UNL     1       0.510  -2.899  -6.403  0.00  0.00    +0.002 A 
ATOM     26  C   UNL     1      -0.512  -2.030  -6.080  0.00  0.00    +0.028 A 
ATOM     27  C   UNL     1      -0.735  -1.689  -4.755  0.00  0.00    +0.069 A 
ATOM     28  N   UNL     1      -1.654  -0.873  -4.115  0.00  0.00    -0.322 N 
ATOM     29  C   UNL     1      -2.718  -0.095  -4.753  0.00  0.00    +0.151 C 
ENDBRANCH  19  20
ENDBRANCH   1  19
TORSDOF 6
