REMARK  Name = ZINC07140963
REMARK  10 active torsions:
REMARK  status: ('A' for Active; 'I' for Inactive)
REMARK    1  A    between atoms: C_1  and  C_2
REMARK    2  A    between atoms: C_5  and  C_8
REMARK    3  A    between atoms: C_9  and  C_14
REMARK    4  A    between atoms: C_14  and  C_15
REMARK    5  A    between atoms: C_15  and  O_17
REMARK    6  A    between atoms: O_17  and  C_18
REMARK    7  A    between atoms: C_18  and  C_19
REMARK    8  A    between atoms: N_21  and  C_22
REMARK    9  A    between atoms: C_27  and  C_32
REMARK   10  A    between atoms: C_29  and  C_31
REMARK                            x       y       z     vdW  Elec       q    Type
REMARK                         _______ _______ _______ _____ _____    ______ ____
ROOT
ATOM      1  C   UNL     1       1.550  -4.422   2.102  0.00  0.00    +0.165 C 
ENDROOT
BRANCH   1   3
ATOM      2  C   UNL     1       0.058  -4.255  -0.021  0.00  0.00    +0.084 A 
ATOM      3  C   UNL     1       0.744  -4.942   0.940  0.00  0.00    +0.030 A 
ATOM      4  S   UNL     1       0.422  -6.628   0.440  0.00  0.00    -0.056 S 
ATOM      5  C   UNL     1      -0.586  -6.251  -0.988  0.00  0.00    +0.156 A 
ATOM      6  N   UNL     1      -0.597  -4.931  -0.963  0.00  0.00    -0.225 NA
ATOM      7  N   UNL     1      -1.198  -7.116  -1.881  0.00  0.00    -0.337 N 
ATOM      8  H   UNL     1      -1.103  -8.075  -1.769  0.00  0.00    +0.144 HD
ATOM      9  H   UNL     1      -1.720  -6.762  -2.617  0.00  0.00    +0.144 HD
BRANCH   2  14
ATOM     10  C   UNL     1      -0.018   1.503   0.010  0.00  0.00    +0.044 C 
ATOM     11  C   UNL     1       0.002  -0.004   0.002  0.00  0.00    -0.050 A 
ATOM     12  C   UNL     1       0.006  -0.686  -1.201  0.00  0.00    +0.004 A 
ATOM     13  C   UNL     1       0.024  -2.066  -1.215  0.00  0.00    +0.010 A 
ATOM     14  C   UNL     1       0.039  -2.772  -0.013  0.00  0.00    +0.001 A 
ATOM     15  C   UNL     1       0.036  -2.079   1.196  0.00  0.00    +0.010 A 
ATOM     16  C   UNL     1       0.023  -0.699   1.198  0.00  0.00    +0.004 A 
ENDBRANCH   2  14
ENDBRANCH   1   3
BRANCH   1  17
ATOM     17  C   UNL     1       0.656  -4.268   3.305  0.00  0.00    +0.312 C 
ATOM     18  O   UNL     1      -0.516  -4.551   3.227  0.00  0.00    -0.250 OA
BRANCH  17  19
ATOM     19  O   UNL     1       1.161  -3.816   4.463  0.00  0.00    -0.455 OA
BRANCH  19  20
ATOM     20  C   UNL     1       0.256  -3.695   5.563  0.00  0.00    +0.327 C 
BRANCH  20  21
ATOM     21  C   UNL     1       0.997  -3.176   6.768  0.00  0.00    +0.251 C 
ATOM     22  O   UNL     1       2.183  -2.934   6.694  0.00  0.00    -0.272 OA
ATOM     23  N   UNL     1       0.341  -2.982   7.930  0.00  0.00    -0.309 N 
ATOM     24  H   UNL     1      -0.608  -3.175   7.989  0.00  0.00    +0.149 HD
BRANCH  23  25
ATOM     25  C   UNL     1       1.061  -2.478   9.102  0.00  0.00    +0.076 C 
ATOM     26  C   UNL     1       1.118  -0.950   9.047  0.00  0.00    +0.022 C 
ATOM     27  C   UNL     1       1.870  -0.423  10.271  0.00  0.00    +0.002 C 
ATOM     28  C   UNL     1       1.142  -0.861  11.544  0.00  0.00    +0.003 C 
ATOM     29  C   UNL     1       1.085  -2.389  11.599  0.00  0.00    -0.009 C 
ATOM     30  C   UNL     1       0.334  -2.916  10.374  0.00  0.00    +0.009 C 
ATOM     31  C   UNL     1       0.277  -4.444  10.429  0.00  0.00    +0.009 C 
ATOM     32  C   UNL     1       2.508  -2.953  11.605  0.00  0.00    +0.008 C 
ENDBRANCH  23  25
ENDBRANCH  20  21
ENDBRANCH  19  20
ENDBRANCH  17  19
ENDBRANCH   1  17
TORSDOF 7
