REMARK  Name = ZINC13369903
REMARK  13 active torsions:
REMARK  status: ('A' for Active; 'I' for Inactive)
REMARK    1  A    between atoms: C_1  and  C_2
REMARK    2  A    between atoms: C_2  and  C_3
REMARK    3  A    between atoms: C_3  and  C_5
REMARK    4  A    between atoms: C_3  and  C_6
REMARK    5  A    between atoms: C_6  and  C_8
REMARK    6  A    between atoms: C_6  and  O_30
REMARK    7  A    between atoms: C_8  and  C_9
REMARK    8  A    between atoms: C_8  and  C_10
REMARK    9  A    between atoms: C_8  and  O_29
REMARK   10  A    between atoms: C_11  and  C_12
REMARK   11  A    between atoms: C_18  and  C_26
REMARK   12  A    between atoms: C_18  and  O_27
REMARK   13  A    between atoms: C_19  and  O_25
REMARK                            x       y       z     vdW  Elec       q    Type
REMARK                         _______ _______ _______ _____ _____    ______ ____
ROOT
ATOM      1  C   UNL     1       2.716  -6.204   1.867  0.00  0.00    +0.121 C 
ATOM      2  C   UNL     1       3.923  -6.863   1.783  0.00  0.00    +0.051 C 
ATOM      3  C   UNL     1       3.954  -8.256   1.649  0.00  0.00    -0.013 C 
ATOM      4  C   UNL     1       5.154  -8.917   1.536  0.00  0.00    +0.090 C 
ATOM      5  C   UNL     1       5.210 -10.300   1.366  0.00  0.00    +0.208 C 
ATOM      6  O   UNL     1       6.290 -10.851   1.276  0.00  0.00    -0.288 OA
ATOM      7  C   UNL     1       3.949 -11.121   1.293  0.00  0.00    +0.152 C 
ATOM      8  C   UNL     1       2.813 -10.256   0.735  0.00  0.00    +0.164 C 
ATOM      9  C   UNL     1       2.654  -9.022   1.625  0.00  0.00    +0.090 C 
ATOM     10  C   UNL     1       1.558  -8.112   1.062  0.00  0.00    +0.240 C 
ATOM     11  O   UNL     1       1.552  -6.892   1.816  0.00  0.00    -0.491 OA
ATOM     12  C   UNL     1       4.175 -12.322   0.373  0.00  0.00    +0.053 C 
ATOM     13 CL   UNL     1       6.633  -8.010   1.605  0.00  0.00    -0.080 Cl
ENDROOT
BRANCH   1  15
ATOM     14  C   UNL     1       1.527  -4.104   2.105  0.00  0.00    +0.013 C 
ATOM     15  C   UNL     1       2.692  -4.746   2.018  0.00  0.00    +0.044 C 
BRANCH  14  16
ATOM     16  C   UNL     1       1.503  -2.605   2.260  0.00  0.00    +0.108 C 
ATOM     17  C   UNL     1       0.795  -2.239   3.566  0.00  0.00    +0.048 C 
BRANCH  16  18
ATOM     18  O   UNL     1       2.842  -2.107   2.288  0.00  0.00    -0.382 OA
ATOM     19  H   UNL     1       3.351  -2.303   1.490  0.00  0.00    +0.211 HD
ENDBRANCH  16  18
BRANCH  16  20
ATOM     20  C   UNL     1       0.752  -1.982   1.081  0.00  0.00    +0.152 C 
BRANCH  20  21
ATOM     21  C   UNL     1       0.592  -0.478   1.316  0.00  0.00    +0.017 C 
ATOM     22  C   UNL     1      -0.291   0.118   0.218  0.00  0.00    +0.010 C 
BRANCH  21  24
ATOM     23  C   UNL     1       1.814   1.682   1.601  0.00  0.00    +0.004 C 
ATOM     24  C   UNL     1       1.966   0.192   1.286  0.00  0.00    +0.002 C 
ENDBRANCH  21  24
ENDBRANCH  20  21
BRANCH  20  25
ATOM     25  O   UNL     1       1.490  -2.200  -0.122  0.00  0.00    -0.388 OA
ATOM     26  H   UNL     1       2.378  -1.816  -0.114  0.00  0.00    +0.210 HD
ENDBRANCH  20  25
ENDBRANCH  16  20
ENDBRANCH  14  16
ENDBRANCH   1  15
BRANCH   8  27
ATOM     27  O   UNL     1       3.129  -9.852  -0.599  0.00  0.00    -0.388 OA
ATOM     28  H   UNL     1       3.254 -10.588  -1.214  0.00  0.00    +0.210 HD
ENDBRANCH   8  27
BRANCH   7  29
ATOM     29  O   UNL     1       3.602 -11.579   2.601  0.00  0.00    -0.378 OA
ATOM     30  H   UNL     1       4.278 -12.131   3.017  0.00  0.00    +0.211 HD
ENDBRANCH   7  29
TORSDOF 9
