REMARK  Name = ZINC32666335
REMARK  3 active torsions:
REMARK  status: ('A' for Active; 'I' for Inactive)
REMARK    1  A    between atoms: C_6  and  C_7
REMARK    2  A    between atoms: N_8  and  N_9
REMARK    3  A    between atoms: C_10  and  C_12
REMARK                            x       y       z     vdW  Elec       q    Type
REMARK                         _______ _______ _______ _____ _____    ______ ____
ROOT
ATOM      1  N   UNL     1       2.333   6.196  -0.669  0.00  0.00    -0.203 N 
ATOM      2  C   UNL     1       2.358   4.849  -0.633  0.00  0.00    +0.265 C 
ATOM      3  O   UNL     1       3.317   4.271  -0.159  0.00  0.00    -0.268 OA
ATOM      4  H   UNL     1       1.465   6.719  -1.098  0.00  0.00    +0.178 HD
ENDROOT
BRANCH   2   5
ATOM      5  C   UNL     1       1.220   4.074  -1.171  0.00  0.00    +0.057 A 
ATOM      6  C   UNL     1       1.234   2.674  -1.139  0.00  0.00    +0.031 A 
ATOM      7  C   UNL     1       0.143   1.996  -1.656  0.00  0.00    +0.037 A 
ATOM      8  C   UNL     1      -0.913   2.716  -2.186  0.00  0.00    +0.126 A 
ATOM      9  N   UNL     1      -0.900   4.035  -2.197  0.00  0.00    -0.261 NA
ATOM     10  C   UNL     1       0.114   4.725  -1.718  0.00  0.00    +0.123 A 
ATOM     11 BR   UNL     1       0.101   0.105  -1.644  0.00  0.00    -0.049 Br
ENDBRANCH   2   5
BRANCH   1  13
ATOM     12  C   UNL     1       3.338   8.224  -0.086  0.00  0.00    +0.138 C 
ATOM     13  N   UNL     1       3.412   6.931  -0.160  0.00  0.00    -0.187 NA
BRANCH  12  19
ATOM     14  C   UNL     1       1.930  10.269  -0.266  0.00  0.00    +0.010 A 
ATOM     15  C   UNL     1       0.695  10.883  -0.256  0.00  0.00    +0.016 A 
ATOM     16  C   UNL     1      -0.451  10.136  -0.040  0.00  0.00    +0.018 A 
ATOM     17  C   UNL     1      -0.366   8.769   0.161  0.00  0.00    +0.016 A 
ATOM     18  C   UNL     1       0.862   8.141   0.147  0.00  0.00    +0.010 A 
ATOM     19  C   UNL     1       2.022   8.889  -0.070  0.00  0.00    -0.005 A 
ATOM     20 BR   UNL     1      -2.139  10.988  -0.019  0.00  0.00    -0.050 Br
ENDBRANCH  12  19
ENDBRANCH   1  13
TORSDOF 3
