REMARK  Name = ZINC59791396
REMARK  10 active torsions:
REMARK  status: ('A' for Active; 'I' for Inactive)
REMARK    1  A    between atoms: C_2  and  C_3
REMARK    2  A    between atoms: C_3  and  S_4
REMARK    3  A    between atoms: S_4  and  C_5
REMARK    4  A    between atoms: C_10  and  N_11
REMARK    5  A    between atoms: C_12  and  C_14
REMARK    6  A    between atoms: C_14  and  S_15
REMARK    7  A    between atoms: S_15  and  C_16
REMARK    8  A    between atoms: C_19  and  C_27
REMARK    9  A    between atoms: N_20  and  C_21
REMARK   10  A    between atoms: C_30  and  N_33
REMARK                            x       y       z     vdW  Elec       q    Type
REMARK                         _______ _______ _______ _____ _____    ______ ____
ROOT
ATOM      1  C   UNL     1       2.064  -6.087   8.083  0.00  0.00    +0.197 A 
ATOM      2  N   UNL     1       0.891  -5.510   8.226  0.00  0.00    -0.122 NA
ATOM      3  N   UNL     1       0.333  -5.907   9.313  0.00  0.00    -0.128 NA
ATOM      4  C   UNL     1       1.112  -6.763   9.932  0.00  0.00    +0.169 A 
ATOM      5  N   UNL     1       2.244  -6.910   9.160  0.00  0.00    -0.270 N 
ENDROOT
BRANCH   5   6
ATOM      6  C   UNL     1       3.351  -7.729   9.425  0.00  0.00    +0.051 A 
ATOM      7  C   UNL     1       3.208  -9.110   9.436  0.00  0.00    +0.026 A 
ATOM      8  C   UNL     1       4.300  -9.914   9.697  0.00  0.00    +0.002 A 
ATOM      9  C   UNL     1       5.535  -9.345   9.948  0.00  0.00    +0.000 A 
ATOM     10  C   UNL     1       5.681  -7.970   9.938  0.00  0.00    +0.002 A 
ATOM     11  C   UNL     1       4.593  -7.161   9.672  0.00  0.00    +0.026 A 
ENDBRANCH   5   6
BRANCH   4  12
ATOM     12  C   UNL     1       0.827  -7.445  11.212  0.00  0.00    +0.020 A 
ATOM     13  C   UNL     1       1.855  -8.076  11.915  0.00  0.00    +0.014 A 
ATOM     14  C   UNL     1       1.582  -8.710  13.109  0.00  0.00    +0.033 A 
ATOM     15  C   UNL     1       0.292  -8.723  13.610  0.00  0.00    +0.126 A 
ATOM     16  C   UNL     1      -0.732  -8.101  12.918  0.00  0.00    +0.033 A 
ATOM     17  C   UNL     1      -0.471  -7.457  11.726  0.00  0.00    +0.014 A 
BRANCH  15  18
ATOM     18  N   UNL     1       0.006  -9.406  14.892  0.00  0.00    +0.056 N 
ATOM     19  O   UNL     1       0.899  -9.951  15.498  0.00  0.00    -0.126 OA
ATOM     20  O   UNL     1      -1.120  -9.419  15.332  0.00  0.00    -0.126 OA
ENDBRANCH  15  18
ENDBRANCH   4  12
BRANCH   1  21
ATOM     21  S   UNL     1       3.189  -5.849   6.748  0.00  0.00    -0.076 S 
BRANCH  21  22
ATOM     22  C   UNL     1       2.352  -4.649   5.676  0.00  0.00    +0.173 C 
BRANCH  22  24
ATOM     23  N   UNL     1       2.798  -3.483   3.540  0.00  0.00    -0.284 N 
ATOM     24  C   UNL     1       3.219  -4.354   4.479  0.00  0.00    +0.228 C 
ATOM     25  O   UNL     1       4.296  -4.900   4.361  0.00  0.00    -0.275 OA
ATOM     26  H   UNL     1       1.976  -2.987   3.673  0.00  0.00    +0.155 HD
BRANCH  23  32
ATOM     27  C   UNL     1       3.446  -2.102   1.658  0.00  0.00    +0.029 A 
ATOM     28  C   UNL     1       4.196  -1.921   0.505  0.00  0.00    +0.016 A 
ATOM     29  C   UNL     1       5.038  -2.924   0.064  0.00  0.00    +0.001 A 
ATOM     30  C   UNL     1       5.136  -4.110   0.768  0.00  0.00    +0.002 A 
ATOM     31  C   UNL     1       4.392  -4.299   1.918  0.00  0.00    +0.024 A 
ATOM     32  C   UNL     1       3.549  -3.296   2.372  0.00  0.00    +0.047 A 
BRANCH  27  33
ATOM     33  S   UNL     1       2.372  -0.824   2.223  0.00  0.00    -0.119 S 
BRANCH  33  34
ATOM     34  C   UNL     1       2.576   0.496   0.996  0.00  0.00    +0.101 C 
BRANCH  34  36
ATOM     35  C   UNL     1       2.243   2.811   1.697  0.00  0.00    +0.005 C 
ATOM     36  C   UNL     1       1.700   1.665   1.366  0.00  0.00    -0.024 C 
ENDBRANCH  34  36
ENDBRANCH  33  34
ENDBRANCH  27  33
ENDBRANCH  23  32
ENDBRANCH  22  24
ENDBRANCH  21  22
ENDBRANCH   1  21
TORSDOF 10
