REMARK  Name = ZINC20841763
REMARK  10 active torsions:
REMARK  status: ('A' for Active; 'I' for Inactive)
REMARK    1  A    between atoms: C_1  and  C_2
REMARK    2  A    between atoms: C_7  and  N_8
REMARK    3  A    between atoms: C_9  and  C_11
REMARK    4  A    between atoms: C_11  and  S_12
REMARK    5  A    between atoms: S_12  and  C_13
REMARK    6  A    between atoms: C_16  and  C_19
REMARK    7  A    between atoms: N_17  and  N_18
REMARK    8  A    between atoms: C_19  and  C_20
REMARK    9  A    between atoms: C_19  and  C_21
REMARK   10  A    between atoms: C_19  and  C_22
REMARK                            x       y       z     vdW  Elec       q    Type
REMARK                         _______ _______ _______ _____ _____    ______ ____
ROOT
ATOM      1  C   UNL     1      -3.697   2.190  -0.186  0.00  0.00    +0.173 C 
ENDROOT
BRANCH   1   3
ATOM      2  N   UNL     1      -1.231   2.170   0.015  0.00  0.00    -0.285 N 
ATOM      3  C   UNL     1      -2.378   1.468  -0.081  0.00  0.00    +0.227 C 
ATOM      4  O   UNL     1      -2.348   0.256  -0.085  0.00  0.00    -0.275 OA
ATOM      5  H   UNL     1      -1.263   3.267   0.090  0.00  0.00    +0.155 HD
BRANCH   2  12
ATOM      6  C   UNL     1       0.987   3.436  -1.239  0.00  0.00    +0.046 C 
ATOM      7  C   UNL     1       1.107   2.084  -0.584  0.00  0.00    -0.028 A 
ATOM      8  C   UNL     1       2.319   1.421  -0.583  0.00  0.00    +0.020 A 
ATOM      9  C   UNL     1       2.429   0.180   0.019  0.00  0.00    +0.018 A 
ATOM     10  C   UNL     1       1.327  -0.401   0.621  0.00  0.00    +0.017 A 
ATOM     11  C   UNL     1       0.113   0.257   0.623  0.00  0.00    +0.024 A 
ATOM     12  C   UNL     1      -0.001   1.504   0.020  0.00  0.00    +0.036 A 
ATOM     13 BR   UNL     1       4.090  -0.724   0.018  0.00  0.00    -0.050 Br
ENDBRANCH   2  12
ENDBRANCH   1   3
BRANCH   1  14
ATOM     14  S   UNL     1      -5.039   0.980  -0.300  0.00  0.00    -0.075 S 
BRANCH  14  15
ATOM     15  C   UNL     1      -6.421   2.067  -0.408  0.00  0.00    +0.209 A 
ATOM     16  N   UNL     1      -6.386   3.379  -0.393  0.00  0.00    -0.121 NA
ATOM     17  N   UNL     1      -7.578   3.849  -0.493  0.00  0.00    -0.131 NA
ATOM     18  C   UNL     1      -8.439   2.874  -0.568  0.00  0.00    +0.156 A 
ATOM     19  N   UNL     1      -7.733   1.704  -0.517  0.00  0.00    -0.227 N 
BRANCH  18  20
ATOM     20  C   UNL     1      -9.935   3.010  -0.689  0.00  0.00    +0.024 C 
ATOM     21  C   UNL     1     -10.611   2.219   0.432  0.00  0.00    +0.019 C 
ATOM     22  C   UNL     1     -10.323   4.486  -0.577  0.00  0.00    +0.019 C 
ATOM     23  C   UNL     1     -10.389   2.465  -2.044  0.00  0.00    +0.019 C 
ENDBRANCH  18  20
BRANCH  19  24
ATOM     24  N   UNL     1      -8.236   0.435  -0.564  0.00  0.00    -0.295 N 
ATOM     25  H   UNL     1      -9.321   0.276  -0.653  0.00  0.00    +0.163 HD
ATOM     26  H   UNL     1      -7.556  -0.429  -0.513  0.00  0.00    +0.163 HD
ENDBRANCH  19  24
ENDBRANCH  14  15
ENDBRANCH   1  14
TORSDOF 6
