REMARK  Name = ZINC36603508
REMARK  19 active torsions:
REMARK  status: ('A' for Active; 'I' for Inactive)
REMARK    1  A    between atoms: C_1  and  C_2
REMARK    2  A    between atoms: C_2  and  C_3
REMARK    3  A    between atoms: N_5  and  C_6
REMARK    4  A    between atoms: N_5  and  C_13
REMARK    5  A    between atoms: C_6  and  C_7
REMARK    6  A    between atoms: C_10  and  C_12
REMARK    7  A    between atoms: C_13  and  C_15
REMARK    8  A    between atoms: C_13  and  C_24
REMARK    9  A    between atoms: C_16  and  O_23
REMARK   10  A    between atoms: C_18  and  O_22
REMARK   11  A    between atoms: C_20  and  O_21
REMARK   12  A    between atoms: N_26  and  C_27
REMARK   13  A    between atoms: C_27  and  C_28
REMARK   14  A    between atoms: C_27  and  C_29
REMARK   15  A    between atoms: C_27  and  C_30
REMARK   16  A    between atoms: C_30  and  C_31
REMARK   17  A    between atoms: C_31  and  C_32
REMARK   18  A    between atoms: C_31  and  C_33
REMARK   19  A    between atoms: C_31  and  C_34
REMARK                            x       y       z     vdW  Elec       q    Type
REMARK                         _______ _______ _______ _____ _____    ______ ____
ROOT
ATOM      1  C   UNL     1      -0.621  -3.847   0.503  0.00  0.00    +0.200 C 
ENDROOT
BRANCH   1   2
ATOM      2  C   UNL     1      -0.265  -3.351   1.881  0.00  0.00    +0.065 A 
ATOM      3  C   UNL     1      -0.497  -2.027   2.223  0.00  0.00    +0.129 A 
ATOM      4  C   UNL     1      -0.169  -1.570   3.490  0.00  0.00    +0.091 A 
ATOM      5  C   UNL     1       0.391  -2.437   4.416  0.00  0.00    +0.124 A 
ATOM      6  C   UNL     1       0.623  -3.761   4.075  0.00  0.00    +0.091 A 
ATOM      7  C   UNL     1       0.290  -4.219   2.809  0.00  0.00    +0.129 A 
BRANCH   7   8
ATOM      8  O   UNL     1       0.513  -5.518   2.476  0.00  0.00    -0.506 OA
ATOM      9  H   UNL     1       1.386  -5.682   2.094  0.00  0.00    +0.292 HD
ENDBRANCH   7   8
BRANCH   5  10
ATOM     10  O   UNL     1       0.714  -1.990   5.658  0.00  0.00    -0.507 OA
ATOM     11  H   UNL     1      -0.001  -2.075   6.305  0.00  0.00    +0.292 HD
ENDBRANCH   5  10
BRANCH   3  12
ATOM     12  O   UNL     1      -1.046  -1.177   1.315  0.00  0.00    -0.506 OA
ATOM     13  H   UNL     1      -2.006  -1.088   1.390  0.00  0.00    +0.292 HD
ENDBRANCH   3  12
ENDBRANCH   1   2
BRANCH   1  14
ATOM     14  C   UNL     1      -2.105  -4.100   0.429  0.00  0.00    +0.239 C 
ATOM     15  O   UNL     1      -2.738  -3.719  -0.533  0.00  0.00    -0.273 OA
ATOM     16  N   UNL     1      -2.729  -4.749   1.432  0.00  0.00    -0.308 N 
ATOM     17  H   UNL     1      -2.239  -4.990   2.233  0.00  0.00    +0.149 HD
BRANCH  16  18
ATOM     18  C   UNL     1      -4.149  -5.091   1.312  0.00  0.00    +0.030 C 
ATOM     19  C   UNL     1      -4.983  -3.809   1.305  0.00  0.00    +0.031 C 
ATOM     20  C   UNL     1      -4.380  -5.857   0.007  0.00  0.00    +0.031 C 
BRANCH  18  21
ATOM     21  C   UNL     1      -4.565  -5.965   2.497  0.00  0.00    +0.031 C 
BRANCH  21  22
ATOM     22  C   UNL     1      -3.878  -7.328   2.392  0.00  0.00    -0.036 C 
ATOM     23  C   UNL     1      -2.417  -7.132   1.981  0.00  0.00    +0.010 C 
ATOM     24  C   UNL     1      -3.937  -8.034   3.747  0.00  0.00    +0.010 C 
ATOM     25  C   UNL     1      -4.593  -8.180   1.341  0.00  0.00    +0.010 C 
ENDBRANCH  21  22
ENDBRANCH  18  21
ENDBRANCH  16  18
ENDBRANCH   1  14
BRANCH   1  28
ATOM     26  C   UNL     1       1.051  -2.637  -0.791  0.00  0.00    +0.217 C 
ATOM     27  O   UNL     1       1.367  -1.740  -1.543  0.00  0.00    -0.276 OA
ATOM     28  N   UNL     1      -0.247  -2.839  -0.491  0.00  0.00    -0.278 N 
BRANCH  26  30
ATOM     29  C   UNL     1       3.469  -3.186  -0.806  0.00  0.00    +0.013 C 
ATOM     30  C   UNL     1       2.110  -3.527  -0.192  0.00  0.00    +0.092 C 
ENDBRANCH  26  30
BRANCH  28  31
ATOM     31  C   UNL     1      -1.285  -2.049  -1.159  0.00  0.00    +0.183 C 
BRANCH  31  32
ATOM     32  C   UNL     1      -1.555  -2.628  -2.525  0.00  0.00    +0.122 A 
ATOM     33  C   UNL     1      -2.633  -3.353  -2.872  0.00  0.00    +0.046 A 
ATOM     34  C   UNL     1      -2.478  -3.688  -4.237  0.00  0.00    +0.045 A 
ATOM     35  C   UNL     1      -1.315  -3.148  -4.642  0.00  0.00    +0.102 A 
ATOM     36  O   UNL     1      -0.763  -2.502  -3.602  0.00  0.00    -0.463 OA
ATOM     37  C   UNL     1      -0.733  -3.246  -6.028  0.00  0.00    +0.086 C 
ENDBRANCH  31  32
ENDBRANCH  28  31
ENDBRANCH   1  28
TORSDOF 12
