REMARK  Name = ZINC06868992
REMARK  13 active torsions:
REMARK  status: ('A' for Active; 'I' for Inactive)
REMARK    1  A    between atoms: C_1  and  C_2
REMARK    2  A    between atoms: C_2  and  C_3
REMARK    3  A    between atoms: C_2  and  N_4
REMARK    4  A    between atoms: C_12  and  O_29
REMARK    5  A    between atoms: C_13  and  O_27
REMARK    6  A    between atoms: C_16  and  C_18
REMARK    7  A    between atoms: C_18  and  N_19
REMARK    8  A    between atoms: N_22  and  C_23
REMARK    9  A    between atoms: C_23  and  C_24
REMARK   10  A    between atoms: C_23  and  C_25
REMARK   11  A    between atoms: C_23  and  C_26
REMARK   12  A    between atoms: O_27  and  C_28
REMARK   13  A    between atoms: O_29  and  C_30
REMARK                            x       y       z     vdW  Elec       q    Type
REMARK                         _______ _______ _______ _____ _____    ______ ____
ROOT
ATOM      1  N   UNL     1      -1.700  -0.529   1.530  0.00  0.00    -0.297 N 
ATOM      2  C   UNL     1      -1.473   0.731   1.949  0.00  0.00    +0.303 C 
ATOM      3  O   UNL     1      -1.962   1.123   2.991  0.00  0.00    -0.253 OA
ATOM      4  N   UNL     1      -0.704   1.558   1.212  0.00  0.00    -0.277 N 
ATOM      5  C   UNL     1      -0.527   2.972   1.582  0.00  0.00    +0.114 C 
ATOM      6  C   UNL     1       0.946   3.185   1.929  0.00  0.00    +0.054 C 
ATOM      7  C   UNL     1       1.837   2.578   0.877  0.00  0.00    -0.037 A 
ATOM      8  C   UNL     1       3.151   3.028   0.811  0.00  0.00    +0.053 A 
ATOM      9  C   UNL     1       4.029   2.505  -0.120  0.00  0.00    +0.162 A 
ATOM     10  C   UNL     1       3.592   1.519  -1.000  0.00  0.00    +0.162 A 
ATOM     11  C   UNL     1       2.284   1.077  -0.934  0.00  0.00    +0.055 A 
ATOM     12  C   UNL     1       1.405   1.608   0.001  0.00  0.00    -0.019 A 
ATOM     13  C   UNL     1      -0.010   1.085   0.010  0.00  0.00    +0.125 C 
ATOM     14  H   UNL     1      -1.253  -0.865   0.738  0.00  0.00    +0.150 HD
ENDROOT
BRANCH   1  16
ATOM     15  C   UNL     1      -4.055  -1.134   1.800  0.00  0.00    +0.027 C 
ATOM     16  C   UNL     1      -2.623  -1.393   2.272  0.00  0.00    +0.068 C 
ATOM     17  C   UNL     1      -2.261  -2.858   2.023  0.00  0.00    +0.027 C 
ENDBRANCH   1  16
BRANCH  10  18
ATOM     18  O   UNL     1       4.447   0.994  -1.918  0.00  0.00    -0.491 OA
ATOM     19  C   UNL     1       3.926  -0.014  -2.787  0.00  0.00    +0.277 C 
ENDBRANCH  10  18
BRANCH   9  20
ATOM     20  O   UNL     1       5.312   2.952  -0.175  0.00  0.00    -0.491 OA
ATOM     21  C   UNL     1       5.688   3.965   0.760  0.00  0.00    +0.277 C 
ENDBRANCH   9  20
BRANCH  13  22
ATOM     22  C   UNL     1      -0.746   1.588  -1.233  0.00  0.00    +0.133 C 
BRANCH  22  23
ATOM     23  N   UNL     1      -2.151   1.179  -1.167  0.00  0.00    -0.297 N 
ATOM     24  C   UNL     1      -2.998   1.514  -2.161  0.00  0.00    +0.300 C 
ATOM     25  O   UNL     1      -2.595   2.155  -3.112  0.00  0.00    -0.253 OA
ATOM     26  N   UNL     1      -4.291   1.137  -2.100  0.00  0.00    -0.295 N 
ATOM     27  H   UNL     1      -2.473   0.668  -0.408  0.00  0.00    +0.150 HD
ATOM     28  H   UNL     1      -4.612   0.626  -1.341  0.00  0.00    +0.151 HD
BRANCH  26  29
ATOM     29  C   UNL     1      -5.211   1.501  -3.181  0.00  0.00    +0.028 C 
ATOM     30  C   UNL     1      -4.713   0.902  -4.498  0.00  0.00    +0.031 C 
ATOM     31  C   UNL     1      -6.606   0.956  -2.868  0.00  0.00    +0.031 C 
ATOM     32  C   UNL     1      -5.275   3.024  -3.305  0.00  0.00    +0.031 C 
ENDBRANCH  26  29
ENDBRANCH  22  23
ENDBRANCH  13  22
TORSDOF 6
