REMARK  Name = ZINC06223304
REMARK  1 active torsions:
REMARK  status: ('A' for Active; 'I' for Inactive)
REMARK    1  A    between atoms: C_2  and  N_12
REMARK                            x       y       z     vdW  Elec       q    Type
REMARK                         _______ _______ _______ _____ _____    ______ ____
ROOT
ATOM      1  C   UNL     1      -0.017   1.399   0.010  0.00  0.00    +0.114 A 
ATOM      2  C   UNL     1       1.162   2.086   0.002  0.00  0.00    +0.110 A 
ATOM      3  N   UNL     1       2.346   1.383  -0.013  0.00  0.00    -0.243 N 
ATOM      4  C   UNL     1       2.323   0.002  -0.020  0.00  0.00    +0.258 A 
ATOM      5  N   UNL     1       1.148  -0.657  -0.012  0.00  0.00    -0.172 NA
ATOM      6  C   UNL     1       0.002  -0.004   0.002  0.00  0.00    +0.277 A 
ATOM      7  O   UNL     1      -1.164  -0.692   0.009  0.00  0.00    -0.266 OA
ATOM      8  N   UNL     1       3.563  -0.431  -0.035  0.00  0.00    -0.132 NA
ATOM      9  N   UNL     1       4.410   0.686  -0.037  0.00  0.00    -0.252 N 
ATOM     10  C   UNL     1       3.631   1.788  -0.023  0.00  0.00    +0.182 A 
ATOM     11  S   UNL     1       4.179   3.410  -0.020  0.00  0.00    -0.011 S 
ATOM     12  H   UNL     1       5.380   0.669  -0.047  0.00  0.00    +0.191 HD
ENDROOT
BRANCH   2  13
ATOM     13  N   UNL     1       1.167   3.461   0.009  0.00  0.00    -0.344 N 
ATOM     14  H   UNL     1       0.329   3.950   0.019  0.00  0.00    +0.144 HD
ATOM     15  H   UNL     1       2.009   3.943   0.004  0.00  0.00    +0.144 HD
ENDBRANCH   2  13
TORSDOF 1
