REMARK  Name = ZINC66193593
REMARK  6 active torsions:
REMARK  status: ('A' for Active; 'I' for Inactive)
REMARK    1  A    between atoms: C_3  and  N_16
REMARK    2  A    between atoms: C_6  and  C_7
REMARK    3  A    between atoms: N_9  and  C_10
REMARK    4  A    between atoms: C_17  and  C_19
REMARK    5  A    between atoms: C_19  and  N_20
REMARK    6  A    between atoms: N_20  and  C_21
REMARK                            x       y       z     vdW  Elec       q    Type
REMARK                         _______ _______ _______ _____ _____    ______ ____
ROOT
ATOM      1  C   UNL     1      -0.019   1.406   0.035  0.00  0.00    +0.015 A 
ATOM      2  C   UNL     1       1.167   2.105   0.020  0.00  0.00    +0.024 A 
ATOM      3  C   UNL     1       2.378   1.421  -0.006  0.00  0.00    +0.033 A 
ATOM      4  C   UNL     1       2.396   0.030  -0.018  0.00  0.00    +0.024 A 
ATOM      5  C   UNL     1       1.213  -0.675  -0.004  0.00  0.00    +0.015 A 
ATOM      6  C   UNL     1      -0.005   0.009   0.024  0.00  0.00    +0.037 A 
ENDROOT
BRANCH   6   7
ATOM      7  C   UNL     1      -1.275  -0.744   0.040  0.00  0.00    +0.244 C 
ATOM      8  O   UNL     1      -2.334  -0.148   0.063  0.00  0.00    -0.270 OA
ATOM      9  N   UNL     1      -1.260  -2.091   0.029  0.00  0.00    -0.308 N 
ATOM     10  H   UNL     1      -0.415  -2.567   0.010  0.00  0.00    +0.149 HD
BRANCH   9  11
ATOM     11  C   UNL     1      -2.520  -2.838   0.045  0.00  0.00    +0.073 C 
ATOM     12  C   UNL     1      -2.998  -3.002   1.489  0.00  0.00    +0.022 C 
ATOM     13  C   UNL     1      -4.314  -3.781   1.506  0.00  0.00    +0.002 C 
ATOM     14  C   UNL     1      -4.097  -5.161   0.881  0.00  0.00    +0.000 C 
ATOM     15  C   UNL     1      -3.619  -4.998  -0.563  0.00  0.00    +0.002 C 
ATOM     16  C   UNL     1      -2.303  -4.218  -0.580  0.00  0.00    +0.022 C 
ENDBRANCH   9  11
ENDBRANCH   6   7
BRANCH   3  17
ATOM     17  N   UNL     1       3.578   2.132  -0.022  0.00  0.00    -0.284 N 
ATOM     18  C   UNL     1       3.660   3.302  -0.686  0.00  0.00    +0.234 C 
ATOM     19  O   UNL     1       2.670   3.778  -1.200  0.00  0.00    -0.274 OA
ATOM     20  H   UNL     1       4.354   1.785   0.446  0.00  0.00    +0.155 HD
BRANCH  18  21
ATOM     21  C   UNL     1       4.981   4.019  -0.789  0.00  0.00    +0.198 C 
BRANCH  21  22
ATOM     22  N   UNL     1       4.807   5.256  -1.554  0.00  0.00    -0.335 N 
ATOM     23  H   UNL     1       3.932   5.493  -1.901  0.00  0.00    +0.147 HD
BRANCH  22  24
ATOM     24  C   UNL     1       5.900   6.096  -1.784  0.00  0.00    +0.028 A 
ATOM     25  C   UNL     1       7.154   5.755  -1.293  0.00  0.00    +0.024 A 
ATOM     26  C   UNL     1       8.233   6.587  -1.522  0.00  0.00    +0.022 A 
ATOM     27  C   UNL     1       8.065   7.758  -2.239  0.00  0.00    +0.041 A 
ATOM     28  C   UNL     1       6.817   8.100  -2.730  0.00  0.00    +0.022 A 
ATOM     29  C   UNL     1       5.736   7.269  -2.509  0.00  0.00    +0.024 A 
ATOM     30 CL   UNL     1       9.424   8.801  -2.524  0.00  0.00    -0.084 Cl
ENDBRANCH  22  24
ENDBRANCH  21  22
ENDBRANCH  18  21
ENDBRANCH   3  17
TORSDOF 6
