REMARK  Name = ZINC55189485
REMARK  3 active torsions:
REMARK  status: ('A' for Active; 'I' for Inactive)
REMARK    1  A    between atoms: C_3  and  C_8
REMARK    2  A    between atoms: C_8  and  C_9
REMARK    3  A    between atoms: C_11  and  C_14
REMARK                            x       y       z     vdW  Elec       q    Type
REMARK                         _______ _______ _______ _____ _____    ______ ____
ROOT
ATOM      1  C   UNL     1       4.117   2.433   1.396  0.00  0.00    +0.176 A 
ATOM      2  N   UNL     1       3.785   3.492   2.136  0.00  0.00    -0.190 NA
ATOM      3  C   UNL     1       4.341   3.402   3.325  0.00  0.00    +0.277 A 
ATOM      4  O   UNL     1       5.052   2.260   3.365  0.00  0.00    -0.331 OA
ATOM      5  N   UNL     1       4.884   1.646   2.096  0.00  0.00    -0.060 NA
ENDROOT
BRANCH   3   6
ATOM      6  C   UNL     1       4.209   4.379   4.421  0.00  0.00    +0.137 A 
ATOM      7  C   UNL     1       4.845   4.172   5.617  0.00  0.00    +0.081 A 
ATOM      8  S   UNL     1       4.338   5.628   6.521  0.00  0.00    -0.060 S 
ATOM      9  C   UNL     1       3.340   6.360   5.232  0.00  0.00    +0.156 A 
ATOM     10  N   UNL     1       3.472   5.479   4.260  0.00  0.00    -0.220 NA
ATOM     11  N   UNL     1       2.621   7.544   5.248  0.00  0.00    -0.338 N 
ATOM     12  H   UNL     1       2.620   8.100   6.043  0.00  0.00    +0.144 HD
ATOM     13  H   UNL     1       2.119   7.817   4.464  0.00  0.00    +0.144 HD
ENDBRANCH   3   6
BRANCH   1  14
ATOM     14  C   UNL     1       3.672   2.183  -0.022  0.00  0.00    +0.115 C 
BRANCH  14  17
ATOM     15  C   UNL     1      -0.017   1.378   0.010  0.00  0.00    +0.001 A 
ATOM     16  C   UNL     1       1.171   2.086   0.002  0.00  0.00    +0.004 A 
ATOM     17  C   UNL     1       2.378   1.411  -0.013  0.00  0.00    -0.039 A 
ATOM     18  C   UNL     1       2.397   0.029  -0.022  0.00  0.00    +0.019 A 
ATOM     19  C   UNL     1       1.210  -0.679  -0.014  0.00  0.00    +0.018 A 
ATOM     20  C   UNL     1       0.002  -0.004   0.002  0.00  0.00    +0.015 A 
ATOM     21 BR   UNL     1       1.236  -2.570  -0.025  0.00  0.00    -0.050 Br
ENDBRANCH  14  17
ENDBRANCH   1  14
TORSDOF 3
