REMARK  Name = ZINC19974019
REMARK  2 active torsions:
REMARK  status: ('A' for Active; 'I' for Inactive)
REMARK    1  A    between atoms: C_6  and  C_7
REMARK    2  A    between atoms: C_10  and  N_16
REMARK                            x       y       z     vdW  Elec       q    Type
REMARK                         _______ _______ _______ _____ _____    ______ ____
ROOT
ATOM      1  C   UNL     1      -0.761   1.597  -1.227  0.00  0.00    +0.028 C 
ATOM      2  C   UNL     1      -2.229   1.175  -1.143  0.00  0.00    +0.031 C 
ATOM      3  C   UNL     1      -2.890   1.837   0.067  0.00  0.00    +0.080 C 
ATOM      4  C   UNL     1      -2.222   1.335   1.351  0.00  0.00    +0.096 C 
ATOM      5  C   UNL     1      -0.728   1.577   1.247  0.00  0.00    +0.136 C 
ATOM      6  O   UNL     1      -0.126   2.148   2.124  0.00  0.00    -0.297 OA
ATOM      7  C   UNL     1      -0.013   1.086   0.008  0.00  0.00    +0.082 C 
ENDROOT
BRANCH   3   8
ATOM      8  N   UNL     1      -4.315   1.497   0.092  0.00  0.00    -0.320 N 
ATOM      9  C   UNL     1      -5.220   2.337   0.732  0.00  0.00    +0.204 A 
ATOM     10  C   UNL     1      -6.667   2.122   0.835  0.00  0.00    +0.202 A 
ATOM     11  N   UNL     1      -7.183   3.117   1.504  0.00  0.00    -0.032 NA
ATOM     12  O   UNL     1      -6.129   3.996   1.855  0.00  0.00    -0.239 OA
ATOM     13  N   UNL     1      -4.926   3.449   1.348  0.00  0.00    -0.032 NA
ATOM     14  N   UNL     1      -7.370   1.043   0.310  0.00  0.00    -0.338 N 
ATOM     15  H   UNL     1      -4.669   0.576  -0.394  0.00  0.00    +0.148 HD
ATOM     16  H   UNL     1      -8.460   0.978   0.445  0.00  0.00    +0.144 HD
ATOM     17  H   UNL     1      -6.836   0.254  -0.240  0.00  0.00    +0.144 HD
ENDBRANCH   3   8
BRANCH   1  23
ATOM     18  C   UNL     1      -0.100  -0.359  -2.641  0.00  0.00    +0.005 A 
ATOM     19  C   UNL     1       0.465  -0.896  -3.783  0.00  0.00    +0.020 A 
ATOM     20  C   UNL     1       1.000  -0.062  -4.748  0.00  0.00    +0.041 A 
ATOM     21  C   UNL     1       0.964   1.310  -4.573  0.00  0.00    +0.020 A 
ATOM     22  C   UNL     1       0.394   1.846  -3.434  0.00  0.00    +0.005 A 
ATOM     23  C   UNL     1      -0.140   1.012  -2.469  0.00  0.00    -0.044 A 
ATOM     24 CL   UNL     1       1.717  -0.737  -6.178  0.00  0.00    -0.084 Cl
ENDBRANCH   1  23
TORSDOF 2
