REMARK  Name = ZINC63686627
REMARK  10 active torsions:
REMARK  status: ('A' for Active; 'I' for Inactive)
REMARK    1  A    between atoms: C_1  and  C_2
REMARK    2  A    between atoms: C_2  and  C_3
REMARK    3  A    between atoms: C_2  and  C_4
REMARK    4  A    between atoms: C_7  and  O_10
REMARK    5  A    between atoms: O_10  and  C_11
REMARK    6  A    between atoms: C_11  and  C_12
REMARK    7  A    between atoms: C_16  and  S_20
REMARK    8  A    between atoms: N_18  and  C_19
REMARK    9  A    between atoms: S_20  and  C_21
REMARK   10  A    between atoms: C_21  and  C_22
REMARK                            x       y       z     vdW  Elec       q    Type
REMARK                         _______ _______ _______ _____ _____    ______ ____
ROOT
ATOM      1  C   UNL     1      -7.138  -3.214  -0.851  0.00  0.00    +0.178 C 
ATOM      2  N   UNL     1      -7.307  -4.011   0.392  0.00  0.00    -0.234 NA
ATOM      3  N   UNL     1      -8.732  -3.831   0.711  0.00  0.00    -0.229 NA
ATOM      4  C   UNL     1      -9.016  -2.422   0.355  0.00  0.00    +0.200 C 
ATOM      5  N   UNL     1      -8.001  -2.027  -0.646  0.00  0.00    -0.261 NA
ATOM      6  C   UNL     1      -7.214  -0.880  -0.173  0.00  0.00    +0.109 C 
ATOM      7  H   UNL     1      -6.723  -3.653   1.133  0.00  0.00    +0.142 HD
ATOM      8  H   UNL     1      -8.908  -3.999   1.690  0.00  0.00    +0.143 HD
ENDROOT
BRANCH   1   9
ATOM      9  C   UNL     1      -5.678  -2.791  -1.022  0.00  0.00    +0.265 C 
BRANCH   9  10
ATOM     10  O   UNL     1      -4.885  -3.936  -1.342  0.00  0.00    -0.489 OA
BRANCH  10  14
ATOM     11  C   UNL     1      -0.845  -3.317  -1.907  0.00  0.00    -0.045 A 
ATOM     12  C   UNL     1      -1.372  -4.590  -2.030  0.00  0.00    +0.007 A 
ATOM     13  C   UNL     1      -2.725  -4.799  -1.841  0.00  0.00    +0.046 A 
ATOM     14  C   UNL     1      -3.554  -3.732  -1.528  0.00  0.00    +0.121 A 
ATOM     15  C   UNL     1      -3.022  -2.457  -1.404  0.00  0.00    +0.046 A 
ATOM     16  C   UNL     1      -1.668  -2.253  -1.589  0.00  0.00    +0.007 A 
BRANCH  11  18
ATOM     17  C   UNL     1       1.421  -3.925  -1.102  0.00  0.00    +0.012 C 
ATOM     18  C   UNL     1       0.630  -3.091  -2.113  0.00  0.00    +0.013 C 
ATOM     19  C   UNL     1       1.017  -3.511  -3.533  0.00  0.00    +0.012 C 
ENDBRANCH  11  18
ENDBRANCH  10  14
ENDBRANCH   9  10
ENDBRANCH   1   9
BRANCH   4  20
ATOM     20  S   UNL     1     -10.678  -2.284  -0.360  0.00  0.00    -0.119 S 
BRANCH  20  21
ATOM     21  C   UNL     1     -10.629  -3.387  -1.800  0.00  0.00    +0.125 C 
BRANCH  21  22
ATOM     22  C   UNL     1     -11.966  -3.365  -2.494  0.00  0.00    +0.030 A 
ATOM     23  N   UNL     1     -13.006  -4.024  -1.927  0.00  0.00    -0.356 N 
ATOM     24  C   UNL     1     -14.253  -4.043  -2.510  0.00  0.00    +0.069 A 
ATOM     25  C   UNL     1     -14.461  -3.365  -3.724  0.00  0.00    +0.046 A 
ATOM     26  C   UNL     1     -15.719  -3.379  -4.326  0.00  0.00    +0.014 A 
ATOM     27  C   UNL     1     -16.748  -4.054  -3.729  0.00  0.00    +0.002 A 
ATOM     28  C   UNL     1     -16.550  -4.725  -2.531  0.00  0.00    +0.022 A 
ATOM     29  C   UNL     1     -15.314  -4.725  -1.919  0.00  0.00    +0.065 A 
ATOM     30 CL   UNL     1     -15.082  -5.570  -0.421  0.00  0.00    -0.081 Cl
ATOM     31  C   UNL     1     -13.325  -2.651  -4.333  0.00  0.00    +0.190 A 
ATOM     32  O   UNL     1     -13.451  -2.047  -5.385  0.00  0.00    -0.287 OA
ATOM     33  C   UNL     1     -12.084  -2.686  -3.654  0.00  0.00    +0.073 A 
ATOM     34  H   UNL     1     -12.868  -4.493  -1.089  0.00  0.00    +0.166 HD
ENDBRANCH  21  22
ENDBRANCH  20  21
ENDBRANCH   4  20
TORSDOF 7
