REMARK  Name = ZINC60512916
REMARK  3 active torsions:
REMARK  status: ('A' for Active; 'I' for Inactive)
REMARK    1  A    between atoms: C_7  and  C_9
REMARK    2  A    between atoms: C_9  and  N_10
REMARK    3  A    between atoms: N_13  and  C_14
REMARK                            x       y       z     vdW  Elec       q    Type
REMARK                         _______ _______ _______ _____ _____    ______ ____
ROOT
ATOM      1  N   UNL     1      -0.890  -4.081  -1.387  0.00  0.00    -0.294 N 
ATOM      2  C   UNL     1      -1.387  -5.309  -1.634  0.00  0.00    +0.300 C 
ATOM      3  O   UNL     1      -1.759  -6.011  -0.713  0.00  0.00    -0.253 OA
ATOM      4  N   UNL     1      -1.472  -5.760  -2.901  0.00  0.00    -0.294 N 
ATOM      5  H   UNL     1      -0.593  -3.522  -2.122  0.00  0.00    +0.151 HD
ATOM      6  H   UNL     1      -1.175  -5.200  -3.636  0.00  0.00    +0.151 HD
ENDROOT
BRANCH   4   7
ATOM      7  C   UNL     1      -2.013  -7.094  -3.170  0.00  0.00    +0.037 C 
ATOM      8  C   UNL     1      -1.154  -8.144  -2.461  0.00  0.00    +0.029 C 
ATOM      9  C   UNL     1      -1.719  -9.538  -2.741  0.00  0.00    -0.008 C 
ATOM     10  C   UNL     1      -1.705  -9.801  -4.249  0.00  0.00    +0.007 C 
ATOM     11  C   UNL     1      -2.563  -8.751  -4.957  0.00  0.00    -0.008 C 
ATOM     12  C   UNL     1      -1.998  -7.357  -4.677  0.00  0.00    +0.029 C 
ATOM     13  C   UNL     1      -4.000  -8.833  -4.439  0.00  0.00    +0.007 C 
ATOM     14  C   UNL     1      -4.015  -8.570  -2.932  0.00  0.00    -0.008 C 
ATOM     15  C   UNL     1      -3.156  -9.620  -2.223  0.00  0.00    +0.007 C 
ATOM     16  C   UNL     1      -3.450  -7.176  -2.651  0.00  0.00    +0.029 C 
ENDBRANCH   4   7
BRANCH   1  17
ATOM     17  C   UNL     1      -0.797  -3.592  -0.009  0.00  0.00    +0.162 C 
BRANCH  17  24
ATOM     18  C   UNL     1      -0.017   1.374   0.010  0.00  0.00    +0.100 A 
ATOM     19  C   UNL     1       1.118   2.071   0.003  0.00  0.00    +0.067 A 
ATOM     20  S   UNL     1       2.348   0.776  -0.016  0.00  0.00    -0.058 S 
ATOM     21  C   UNL     1       1.232  -0.608  -0.013  0.00  0.00    +0.178 A 
ATOM     22  N   UNL     1       0.002  -0.004   0.002  0.00  0.00    -0.300 N 
ATOM     23  C   UNL     1      -0.910  -1.056   0.005  0.00  0.00    +0.118 A 
ATOM     24  C   UNL     1      -0.212  -2.203  -0.008  0.00  0.00    +0.078 A 
ATOM     25  N   UNL     1       1.096  -1.903  -0.019  0.00  0.00    -0.225 NA
ENDBRANCH  17  24
ENDBRANCH   1  17
TORSDOF 3
