REMARK  Name = ZINC59369880
REMARK  6 active torsions:
REMARK  status: ('A' for Active; 'I' for Inactive)
REMARK    1  A    between atoms: C_1  and  N_2
REMARK    2  A    between atoms: N_2  and  C_3
REMARK    3  A    between atoms: N_2  and  S_4
REMARK    4  A    between atoms: S_4  and  C_7
REMARK    5  A    between atoms: C_12  and  S_13
REMARK    6  A    between atoms: S_13  and  N_16
REMARK                            x       y       z     vdW  Elec       q    Type
REMARK                         _______ _______ _______ _____ _____    ______ ____
ROOT
ATOM      1  N   UNL     1       0.438   2.096  -3.021  0.00  0.00    -0.072 NA
ATOM      2  C   UNL     1      -0.264   3.191  -3.053  0.00  0.00    +0.358 C 
ATOM      3  O   UNL     1      -0.092   4.132  -2.099  0.00  0.00    -0.246 OA
ATOM      4  N   UNL     1      -1.183   3.390  -4.058  0.00  0.00    -0.233 N 
ATOM      5  C   UNL     1      -1.933   4.557  -4.093  0.00  0.00    +0.227 A 
ATOM      6  N   UNL     1      -2.816   4.729  -5.064  0.00  0.00    -0.199 NA
ATOM      7  C   UNL     1      -3.550   5.835  -5.126  0.00  0.00    +0.129 A 
ATOM      8  C   UNL     1      -3.378   6.818  -4.151  0.00  0.00    +0.102 A 
ATOM      9  C   UNL     1      -2.445   6.600  -3.151  0.00  0.00    +0.219 A 
ATOM     10  N   UNL     1      -1.750   5.469  -3.150  0.00  0.00    -0.185 NA
ATOM     11  F   UNL     1      -2.246   7.525  -2.188  0.00  0.00    -0.184 F 
ATOM     12  N   UNL     1      -4.473   6.011  -6.145  0.00  0.00    -0.319 N 
ATOM     13  C   UNL     1      -4.824   4.902  -7.046  0.00  0.00    +0.087 C 
ATOM     14  C   UNL     1      -6.351   4.787  -7.103  0.00  0.00    -0.063 C 
ATOM     15  N   UNL     1      -6.925   6.083  -7.484  0.00  0.00    +0.381 N 
ATOM     16  C   UNL     1      -6.642   7.081  -6.444  0.00  0.00    -0.063 C 
ATOM     17  C   UNL     1      -5.134   7.308  -6.352  0.00  0.00    +0.087 C 
ATOM     18  H   UNL     1      -1.307   2.714  -4.743  0.00  0.00    +0.160 HD
ATOM     19  H   UNL     1      -6.519   6.386  -8.357  0.00  0.00    -0.086 HD
ATOM     20  H   UNL     1      -7.923   5.988  -7.595  0.00  0.00    -0.086 HD
ENDROOT
BRANCH   1  21
ATOM     21  S   UNL     1       1.544   1.857  -1.812  0.00  0.00    +0.105 S 
ATOM     22  O   UNL     1       0.805   1.744  -0.603  0.00  0.00    -0.146 OA
ATOM     23  O   UNL     1       2.562   2.831  -1.994  0.00  0.00    -0.146 OA
BRANCH  21  29
ATOM     24  C   UNL     1       1.545  -0.868  -1.962  0.00  0.00    +0.132 A 
ATOM     25  C   UNL     1       2.130  -2.100  -2.188  0.00  0.00    +0.030 A 
ATOM     26  C   UNL     1       3.465  -2.176  -2.541  0.00  0.00    +0.002 A 
ATOM     27  C   UNL     1       4.214  -1.021  -2.667  0.00  0.00    +0.002 A 
ATOM     28  C   UNL     1       3.628   0.210  -2.441  0.00  0.00    +0.031 A 
ATOM     29  C   UNL     1       2.292   0.287  -2.093  0.00  0.00    +0.139 A 
BRANCH  24  30
ATOM     30  S   UNL     1      -0.157  -0.771  -1.513  0.00  0.00    +0.062 S 
ATOM     31  O   UNL     1      -0.763   0.143  -2.416  0.00  0.00    -0.153 OA
ATOM     32  O   UNL     1      -0.195  -0.589  -0.104  0.00  0.00    -0.153 OA
BRANCH  30  34
ATOM     33  C   UNL     1      -0.937  -3.243  -0.743  0.00  0.00    +0.131 C 
ATOM     34  N   UNL     1      -0.829  -2.253  -1.817  0.00  0.00    -0.183 NA
ATOM     35  C   UNL     1      -1.315  -2.575  -3.161  0.00  0.00    +0.131 C 
ENDBRANCH  30  34
ENDBRANCH  24  30
ENDBRANCH  21  29
ENDBRANCH   1  21
TORSDOF 4
