REMARK  Name = ZINC52811978
REMARK  3 active torsions:
REMARK  status: ('A' for Active; 'I' for Inactive)
REMARK    1  A    between atoms: C_7  and  S_12
REMARK    2  A    between atoms: S_12  and  C_13
REMARK    3  A    between atoms: C_19  and  N_21
REMARK                            x       y       z     vdW  Elec       q    Type
REMARK                         _______ _______ _______ _____ _____    ______ ____
ROOT
ATOM      1  S   UNL     1      -0.143  -3.082  -0.012  0.00  0.00    -0.031 S 
ENDROOT
BRANCH   1   8
ATOM      2  C   UNL     1      -0.016   1.360   0.009  0.00  0.00    +0.001 A 
ATOM      3  C   UNL     1       1.168   2.091   0.002  0.00  0.00    +0.002 A 
ATOM      4  C   UNL     1       2.380   1.466  -0.013  0.00  0.00    +0.028 A 
ATOM      5  C   UNL     1       2.436   0.066  -0.021  0.00  0.00    +0.077 A 
ATOM      6  C   UNL     1       1.229  -0.677  -0.013  0.00  0.00    +0.033 A 
ATOM      7  C   UNL     1       0.002  -0.004   0.002  0.00  0.00    +0.012 A 
ATOM      8  C   UNL     1       1.313  -2.090  -0.021  0.00  0.00    +0.117 A 
ATOM      9  N   UNL     1       2.516  -2.647  -0.035  0.00  0.00    -0.210 NA
ATOM     10  C   UNL     1       3.618  -1.912  -0.042  0.00  0.00    +0.224 A 
ATOM     11  N   UNL     1       3.601  -0.599  -0.035  0.00  0.00    -0.217 NA
ATOM     12 CL   UNL     1       5.154  -2.721  -0.060  0.00  0.00    -0.041 Cl
ENDBRANCH   1   8
BRANCH   1  13
ATOM     13  C   UNL     1       0.467  -4.735  -0.026  0.00  0.00    +0.177 A 
ATOM     14  N   UNL     1      -0.415  -5.772  -0.029  0.00  0.00    -0.302 N 
ATOM     15  H   UNL     1      -1.369  -5.596  -0.022  0.00  0.00    +0.171 HD
ATOM     16  C   UNL     1       0.034  -7.044  -0.040  0.00  0.00    +0.254 A 
ATOM     17  O   UNL     1      -0.750  -7.980  -0.043  0.00  0.00    -0.268 OA
ATOM     18  C   UNL     1       1.414  -7.273  -0.049  0.00  0.00    +0.113 A 
ATOM     19  C   UNL     1       2.271  -6.181  -0.045  0.00  0.00    +0.124 A 
ATOM     20  N   UNL     1       1.767  -4.942  -0.040  0.00  0.00    -0.208 NA
BRANCH  19  21
ATOM     21  N   UNL     1       3.638  -6.373  -0.054  0.00  0.00    -0.343 N 
ATOM     22  H   UNL     1       4.001  -7.273  -0.062  0.00  0.00    +0.144 HD
ATOM     23  H   UNL     1       4.235  -5.609  -0.052  0.00  0.00    +0.144 HD
ENDBRANCH  19  21
ENDBRANCH   1  13
TORSDOF 3
