REMARK  Name = ZINC05835027
REMARK  7 active torsions:
REMARK  status: ('A' for Active; 'I' for Inactive)
REMARK    1  A    between atoms: C_1  and  C_2
REMARK    2  A    between atoms: C_5  and  N_8
REMARK    3  A    between atoms: C_9  and  C_11
REMARK    4  A    between atoms: C_12  and  C_29
REMARK    5  A    between atoms: C_17  and  C_19
REMARK    6  A    between atoms: C_24  and  O_25
REMARK    7  A    between atoms: O_25  and  C_26
REMARK                            x       y       z     vdW  Elec       q    Type
REMARK                         _______ _______ _______ _____ _____    ______ ____
ROOT
ATOM      1  C   UNL     1      -1.440   3.892   0.295  0.00  0.00    +0.056 C 
ATOM      2  C   UNL     1      -2.013   2.769   0.778  0.00  0.00    +0.017 C 
ATOM      3  N   UNL     1      -1.393   1.557   0.666  0.00  0.00    -0.300 N 
ATOM      4  C   UNL     1      -0.204   1.383   0.076  0.00  0.00    +0.135 C 
ATOM      5  S   UNL     1       0.458  -0.194  -0.004  0.00  0.00    -0.019 S 
ATOM      6  N   UNL     1       0.488   2.408  -0.459  0.00  0.00    -0.315 N 
ATOM      7  C   UNL     1      -0.092   3.760  -0.385  0.00  0.00    +0.143 C 
ATOM      8  C   UNL     1      -3.356   2.855   1.456  0.00  0.00    +0.061 C 
ATOM      9  H   UNL     1      -1.841   0.778   1.031  0.00  0.00    +0.154 HD
ATOM     10  H   UNL     1       1.349   2.260  -0.882  0.00  0.00    +0.149 HD
ENDROOT
BRANCH   7  11
ATOM     11  C   UNL     1       0.885   4.646   0.345  0.00  0.00    +0.019 A 
ATOM     12  C   UNL     1       0.809   4.774   1.719  0.00  0.00    +0.009 A 
ATOM     13  C   UNL     1       1.707   5.583   2.389  0.00  0.00    +0.001 A 
ATOM     14  C   UNL     1       2.678   6.273   1.686  0.00  0.00    +0.004 A 
ATOM     15  C   UNL     1       2.754   6.152   0.312  0.00  0.00    +0.046 A 
ATOM     16  C   UNL     1       1.857   5.337  -0.362  0.00  0.00    +0.132 A 
BRANCH  16  17
ATOM     17  O   UNL     1       1.931   5.216  -1.714  0.00  0.00    -0.434 OA
BRANCH  17  18
ATOM     18  C   UNL     1       2.943   5.974  -2.379  0.00  0.00    +0.541 C 
ATOM     19  F   UNL     1       2.667   7.339  -2.245  0.00  0.00    -0.166 F 
ATOM     20  F   UNL     1       4.188   5.692  -1.807  0.00  0.00    -0.166 F 
ENDBRANCH  17  18
ENDBRANCH  16  17
ENDBRANCH   7  11
BRANCH   1  22
ATOM     21  N   UNL     1      -1.480   6.258  -0.062  0.00  0.00    -0.282 N 
ATOM     22  C   UNL     1      -2.079   5.150   0.415  0.00  0.00    +0.248 C 
ATOM     23  O   UNL     1      -3.170   5.229   0.950  0.00  0.00    -0.270 OA
ATOM     24  H   UNL     1      -0.625   6.191  -0.515  0.00  0.00    +0.155 HD
BRANCH  21  29
ATOM     25  C   UNL     1      -3.958  11.321   0.576  0.00  0.00    +0.044 C 
ATOM     26  C   UNL     1      -3.299   9.976   0.407  0.00  0.00    -0.050 A 
ATOM     27  C   UNL     1      -1.920   9.879   0.399  0.00  0.00    +0.005 A 
ATOM     28  C   UNL     1      -1.313   8.648   0.244  0.00  0.00    +0.023 A 
ATOM     29  C   UNL     1      -2.091   7.506   0.096  0.00  0.00    +0.034 A 
ATOM     30  C   UNL     1      -3.476   7.608   0.100  0.00  0.00    +0.023 A 
ATOM     31  C   UNL     1      -4.076   8.841   0.260  0.00  0.00    +0.005 A 
ENDBRANCH  21  29
ENDBRANCH   1  22
TORSDOF 5
