REMARK  Name = ZINC39371229
REMARK  6 active torsions:
REMARK  status: ('A' for Active; 'I' for Inactive)
REMARK    1  A    between atoms: C_1  and  C_2
REMARK    2  A    between atoms: C_3  and  C_17
REMARK    3  A    between atoms: C_4  and  C_10
REMARK    4  A    between atoms: N_19  and  N_20
REMARK    5  A    between atoms: C_21  and  C_22
REMARK    6  A    between atoms: C_27  and  O_28
REMARK                            x       y       z     vdW  Elec       q    Type
REMARK                         _______ _______ _______ _____ _____    ______ ____
ROOT
ATOM      1  C   UNL     1      -0.039   1.491   0.090  0.00  0.00    +0.061 C 
ATOM      2  C   UNL     1      -0.009  -0.014   0.029  0.00  0.00    +0.017 C 
ATOM      3  C   UNL     1      -1.170  -0.702   0.032  0.00  0.00    +0.057 C 
ATOM      4  C   UNL     1      -1.094  -2.215  -0.030  0.00  0.00    +0.139 C 
ATOM      5  N   UNL     1       0.250  -2.813  -0.089  0.00  0.00    -0.315 N 
ATOM      6  C   UNL     1       1.318  -1.992  -0.085  0.00  0.00    +0.135 C 
ATOM      7  S   UNL     1       2.887  -2.674  -0.154  0.00  0.00    -0.019 S 
ATOM      8  N   UNL     1       1.193  -0.660  -0.034  0.00  0.00    -0.300 N 
ATOM      9  H   UNL     1       0.363  -3.776  -0.130  0.00  0.00    +0.149 HD
ATOM     10  H   UNL     1       2.001  -0.124  -0.038  0.00  0.00    +0.154 HD
ENDROOT
BRANCH   4  11
ATOM     11  C   UNL     1      -1.794  -2.765   1.186  0.00  0.00    -0.023 A 
ATOM     12  C   UNL     1      -1.188  -2.689   2.426  0.00  0.00    +0.007 A 
ATOM     13  C   UNL     1      -1.829  -3.194   3.541  0.00  0.00    +0.020 A 
ATOM     14  C   UNL     1      -3.078  -3.776   3.417  0.00  0.00    +0.041 A 
ATOM     15  C   UNL     1      -3.684  -3.852   2.175  0.00  0.00    +0.020 A 
ATOM     16  C   UNL     1      -3.045  -3.341   1.062  0.00  0.00    +0.007 A 
ATOM     17 CL   UNL     1      -3.884  -4.410   4.817  0.00  0.00    -0.084 Cl
ENDBRANCH   4  11
BRANCH   3  18
ATOM     18  C   UNL     1      -2.417  -0.034   0.092  0.00  0.00    +0.263 C 
ATOM     19  O   UNL     1      -3.077   0.116  -0.920  0.00  0.00    -0.269 OA
ATOM     20  N   UNL     1      -2.874   0.436   1.270  0.00  0.00    -0.203 N 
ATOM     21  H   UNL     1      -2.316   0.384   2.062  0.00  0.00    +0.178 HD
BRANCH  20  22
ATOM     22  N   UNL     1      -4.153   1.001   1.350  0.00  0.00    -0.187 NA
ATOM     23  C   UNL     1      -4.593   1.454   2.485  0.00  0.00    +0.142 C 
BRANCH  23  24
ATOM     24  C   UNL     1      -5.939   2.049   2.569  0.00  0.00    +0.036 A 
ATOM     25  C   UNL     1      -6.414   2.542   3.786  0.00  0.00    +0.013 A 
ATOM     26  C   UNL     1      -7.674   3.098   3.858  0.00  0.00    +0.001 A 
ATOM     27  C   UNL     1      -8.471   3.168   2.728  0.00  0.00    +0.004 A 
ATOM     28  C   UNL     1      -8.013   2.683   1.518  0.00  0.00    +0.046 A 
ATOM     29  C   UNL     1      -6.747   2.127   1.427  0.00  0.00    +0.125 A 
BRANCH  29  30
ATOM     30  O   UNL     1      -6.294   1.655   0.237  0.00  0.00    -0.506 OA
ATOM     31  H   UNL     1      -6.502   0.724   0.078  0.00  0.00    +0.292 HD
ENDBRANCH  29  30
ENDBRANCH  23  24
ENDBRANCH  20  22
ENDBRANCH   3  18
TORSDOF 5
