REMARK  Name = ZINC40532526
REMARK  2 active torsions:
REMARK  status: ('A' for Active; 'I' for Inactive)
REMARK    1  A    between atoms: C_5  and  C_8
REMARK    2  A    between atoms: C_5  and  N_11
REMARK                            x       y       z     vdW  Elec       q    Type
REMARK                         _______ _______ _______ _____ _____    ______ ____
ROOT
ATOM      1  N   UNL     1       2.469  -0.548  -0.387  0.00  0.00    -0.283 N 
ATOM      2  C   UNL     1       2.115  -1.620  -1.124  0.00  0.00    +0.304 C 
ATOM      3  O   UNL     1       1.559  -2.564  -0.596  0.00  0.00    -0.253 OA
ATOM      4  N   UNL     1       2.379  -1.646  -2.445  0.00  0.00    -0.275 N 
ATOM      5  C   UNL     1       2.000  -2.799  -3.280  0.00  0.00    +0.128 C 
ATOM      6  C   UNL     1       1.013  -2.316  -4.343  0.00  0.00    +0.123 C 
ATOM      7  N   UNL     1       1.488  -1.091  -4.971  0.00  0.00    -0.313 N 
ATOM      8  C   UNL     1       2.369  -0.252  -4.423  0.00  0.00    +0.231 C 
ATOM      9  O   UNL     1       2.628   0.778  -5.009  0.00  0.00    -0.274 OA
ATOM     10  C   UNL     1       3.050  -0.521  -3.114  0.00  0.00    +0.205 C 
ATOM     11  H   UNL     1       2.912   0.204  -0.808  0.00  0.00    +0.151 HD
ATOM     12  H   UNL     1       1.141  -0.869  -5.849  0.00  0.00    +0.149 HD
ENDROOT
BRANCH   1  17
ATOM     13  C   UNL     1      -0.056   1.403   0.003  0.00  0.00    +0.000 C 
ATOM     14  C   UNL     1       1.349   2.038  -0.010  0.00  0.00    +0.000 C 
ATOM     15  C   UNL     1       1.901   2.008   1.390  0.00  0.00    +0.003 C 
ATOM     16  C   UNL     1       2.776   0.768   1.651  0.00  0.00    +0.037 C 
ATOM     17  C   UNL     1       2.183  -0.521   1.050  0.00  0.00    +0.137 C 
ATOM     18  C   UNL     1       0.695  -0.618   1.252  0.00  0.00    +0.037 C 
ATOM     19  C   UNL     1      -0.008  -0.051   0.001  0.00  0.00    +0.003 C 
BRANCH  17  20
ATOM     20  C   UNL     1       2.841  -1.710   1.698  0.00  0.00    +0.379 C 
ATOM     21  O   UNL     1       2.756  -1.873   2.904  0.00  0.00    -0.244 OA
ATOM     22  O   UNL     1       3.460  -2.511   1.018  0.00  0.00    -0.244 OA
ENDBRANCH  17  20
ENDBRANCH   1  17
TORSDOF 2
