REMARK  Name = ZINC02383946
REMARK  12 active torsions:
REMARK  status: ('A' for Active; 'I' for Inactive)
REMARK    1  A    between atoms: C_1  and  C_2
REMARK    2  A    between atoms: C_2  and  C_3
REMARK    3  A    between atoms: C_3  and  C_5
REMARK    4  A    between atoms: C_3  and  N_6
REMARK    5  A    between atoms: C_7  and  C_9
REMARK    6  A    between atoms: N_20  and  N_23
REMARK    7  A    between atoms: C_21  and  N_22
REMARK    8  A    between atoms: C_24  and  C_25
REMARK    9  A    between atoms: C_28  and  C_31
REMARK   10  A    between atoms: C_31  and  C_32
REMARK   11  A    between atoms: C_31  and  C_33
REMARK   12  A    between atoms: C_31  and  C_34
REMARK                            x       y       z     vdW  Elec       q    Type
REMARK                         _______ _______ _______ _____ _____    ______ ____
ROOT
ATOM      1  C   UNL     1      -6.670  -0.138  -0.747  0.00  0.00    +0.105 A 
ATOM      2  C   UNL     1      -6.714  -0.176   0.724  0.00  0.00    +0.124 A 
ATOM      3  C   UNL     1      -5.509   0.531   1.168  0.00  0.00    +0.183 A 
ATOM      4  N   UNL     1      -5.271   0.660   2.456  0.00  0.00    -0.224 NA
ATOM      5  C   UNL     1      -6.129   0.147   3.347  0.00  0.00    +0.092 A 
ATOM      6  C   UNL     1      -5.883   0.280   4.726  0.00  0.00    +0.030 A 
ATOM      7  C   UNL     1      -6.760  -0.244   5.624  0.00  0.00    +0.002 A 
ATOM      8  C   UNL     1      -7.905  -0.916   5.200  0.00  0.00    +0.002 A 
ATOM      9  C   UNL     1      -8.177  -1.065   3.875  0.00  0.00    +0.030 A 
ATOM     10  C   UNL     1      -7.294  -0.536   2.916  0.00  0.00    +0.090 A 
ATOM     11  N   UNL     1      -7.551  -0.678   1.610  0.00  0.00    -0.241 NA
ATOM     12  N   UNL     1      -4.837   0.936   0.030  0.00  0.00    -0.198 N 
ATOM     13  C   UNL     1      -5.513   0.553  -1.091  0.00  0.00    +0.134 A 
ENDROOT
BRANCH   1  15
ATOM     14  N   UNL     1      -7.514  -1.977  -2.098  0.00  0.00    -0.309 N 
ATOM     15  C   UNL     1      -7.653  -0.708  -1.665  0.00  0.00    +0.250 C 
ATOM     16  O   UNL     1      -8.598  -0.037  -2.041  0.00  0.00    -0.270 OA
ATOM     17  H   UNL     1      -6.762  -2.512  -1.799  0.00  0.00    +0.149 HD
BRANCH  14  18
ATOM     18  C   UNL     1      -8.500  -2.549  -3.019  0.00  0.00    +0.070 C 
ATOM     19  C   UNL     1      -9.681  -3.105  -2.221  0.00  0.00    +0.028 C 
BRANCH  18  21
ATOM     20  C   UNL     1      -6.750  -3.100  -4.716  0.00  0.00    +0.005 C 
ATOM     21  C   UNL     1      -7.851  -3.677  -3.823  0.00  0.00    +0.018 C 
ENDBRANCH  18  21
ENDBRANCH  14  18
ENDBRANCH   1  15
BRANCH  13  22
ATOM     22  N   UNL     1      -5.108   0.810  -2.375  0.00  0.00    -0.342 N 
ATOM     23  H   UNL     1      -4.284   1.297  -2.535  0.00  0.00    +0.144 HD
ATOM     24  H   UNL     1      -5.644   0.505  -3.123  0.00  0.00    +0.144 HD
ENDBRANCH  13  22
BRANCH  12  25
ATOM     25  N   UNL     1      -3.631   1.648   0.028  0.00  0.00    -0.171 NA
ATOM     26  C   UNL     1      -2.501   1.010   0.019  0.00  0.00    +0.141 C 
BRANCH  26  27
ATOM     27  C   UNL     1      -1.231   1.759   0.017  0.00  0.00    -0.005 A 
ATOM     28  C   UNL     1      -0.013   1.076   0.008  0.00  0.00    +0.010 A 
ATOM     29  C   UNL     1       1.171   1.783   0.001  0.00  0.00    +0.005 A 
ATOM     30  C   UNL     1       1.155   3.167   0.008  0.00  0.00    -0.042 A 
ATOM     31  C   UNL     1      -0.048   3.851   0.022  0.00  0.00    +0.005 A 
ATOM     32  C   UNL     1      -1.240   3.156   0.029  0.00  0.00    +0.010 A 
BRANCH  30  33
ATOM     33  C   UNL     1       2.452   3.933  -0.001  0.00  0.00    -0.013 C 
ATOM     34  C   UNL     1       3.247   3.577  -1.259  0.00  0.00    +0.015 C 
ATOM     35  C   UNL     1       2.159   5.434   0.010  0.00  0.00    +0.015 C 
ATOM     36  C   UNL     1       3.270   3.564   1.239  0.00  0.00    +0.015 C 
ENDBRANCH  30  33
ENDBRANCH  26  27
ENDBRANCH  12  25
TORSDOF 7
