REMARK  Name = ZINC21076913
REMARK  7 active torsions:
REMARK  status: ('A' for Active; 'I' for Inactive)
REMARK    1  A    between atoms: C_6  and  N_7
REMARK    2  A    between atoms: C_8  and  C_10
REMARK    3  A    between atoms: C_10  and  C_11
REMARK    4  A    between atoms: C_11  and  S_12
REMARK    5  A    between atoms: S_12  and  C_13
REMARK    6  A    between atoms: N_18  and  N_19
REMARK    7  A    between atoms: C_20  and  C_21
REMARK                            x       y       z     vdW  Elec       q    Type
REMARK                         _______ _______ _______ _____ _____    ______ ____
ROOT
ATOM      1  C   UNL     1       0.049   1.049  -2.809  0.00  0.00    +0.210 A 
ATOM      2  N   UNL     1      -0.220   1.238  -4.135  0.00  0.00    -0.186 NA
ATOM      3  C   UNL     1       0.733   0.575  -4.858  0.00  0.00    +0.232 A 
ATOM      4  N   UNL     1       1.555   0.001  -4.013  0.00  0.00    -0.245 N 
ATOM      5  N   UNL     1       1.125   0.305  -2.715  0.00  0.00    -0.144 NA
ATOM      6  N   UNL     1       0.815   0.519  -6.242  0.00  0.00    -0.205 N 
ATOM      7  H   UNL     1       0.067   1.040  -6.858  0.00  0.00    +0.177 HD
ATOM      8  H   UNL     1       2.401  -0.594  -4.388  0.00  0.00    +0.192 HD
ENDROOT
BRANCH   6   9
ATOM      9  N   UNL     1       1.849  -0.201  -6.854  0.00  0.00    -0.188 NA
ATOM     10  C   UNL     1       1.925  -0.254  -8.149  0.00  0.00    +0.139 C 
BRANCH  10  11
ATOM     11  C   UNL     1       3.014  -1.012  -8.793  0.00  0.00    +0.013 A 
ATOM     12  C   UNL     1       3.099  -1.070 -10.186  0.00  0.00    +0.012 A 
ATOM     13  C   UNL     1       4.119  -1.781 -10.783  0.00  0.00    +0.021 A 
ATOM     14  C   UNL     1       5.059  -2.436 -10.004  0.00  0.00    +0.042 A 
ATOM     15  C   UNL     1       4.981  -2.383  -8.622  0.00  0.00    +0.040 A 
ATOM     16  C   UNL     1       3.968  -1.670  -8.012  0.00  0.00    +0.051 A 
ATOM     17 CL   UNL     1       3.876  -1.598  -6.280  0.00  0.00    -0.083 Cl
ATOM     18 CL   UNL     1       6.340  -3.328 -10.763  0.00  0.00    -0.083 Cl
ENDBRANCH  10  11
ENDBRANCH   6   9
BRANCH   1  19
ATOM     19  S   UNL     1      -0.883   1.698  -1.462  0.00  0.00    -0.084 S 
BRANCH  19  20
ATOM     20  C   UNL     1      -0.011   1.088   0.008  0.00  0.00    +0.086 C 
BRANCH  20  21
ATOM     21  C   UNL     1      -0.725   1.585   1.267  0.00  0.00    +0.107 C 
BRANCH  21  23
ATOM     22  N   UNL     1      -0.453   1.393   3.718  0.00  0.00    -0.285 N 
ATOM     23  C   UNL     1      -0.001   1.079   2.488  0.00  0.00    +0.218 C 
ATOM     24  O   UNL     1       0.989   0.389   2.363  0.00  0.00    -0.275 OA
ATOM     25  H   UNL     1      -1.304   2.080   3.832  0.00  0.00    +0.155 HD
BRANCH  22  31
ATOM     26  C   UNL     1      -0.599   0.529   5.969  0.00  0.00    +0.024 A 
ATOM     27  C   UNL     1       0.008  -0.019   7.082  0.00  0.00    +0.017 A 
ATOM     28  C   UNL     1       1.374  -0.240   7.088  0.00  0.00    +0.018 A 
ATOM     29  C   UNL     1       2.134   0.079   5.977  0.00  0.00    +0.017 A 
ATOM     30  C   UNL     1       1.531   0.620   4.859  0.00  0.00    +0.024 A 
ATOM     31  C   UNL     1       0.161   0.844   4.850  0.00  0.00    +0.033 A 
ATOM     32 BR   UNL     1       2.203  -0.982   8.617  0.00  0.00    -0.050 Br
ENDBRANCH  22  31
ENDBRANCH  21  23
ENDBRANCH  20  21
ENDBRANCH  19  20
ENDBRANCH   1  19
TORSDOF 7
