REMARK  Name = ZINC12712495
REMARK  3 active torsions:
REMARK  status: ('A' for Active; 'I' for Inactive)
REMARK    1  A    between atoms: C_10  and  C_11
REMARK    2  A    between atoms: N_17  and  C_18
REMARK    3  A    between atoms: C_18  and  C_19
REMARK                            x       y       z     vdW  Elec       q    Type
REMARK                         _______ _______ _______ _____ _____    ______ ____
ROOT
ATOM      1  C   UNL     1      -5.979   0.071   0.058  0.00  0.00    +0.095 A 
ATOM      2  C   UNL     1      -6.170  -1.305  -0.118  0.00  0.00    +0.163 A 
ATOM      3  N   UNL     1      -5.119  -2.103  -0.127  0.00  0.00    -0.152 NA
ATOM      4  N   UNL     1      -3.933  -1.627   0.023  0.00  0.00    -0.113 NA
ATOM      5  C   UNL     1      -3.723  -0.327   0.192  0.00  0.00    +0.236 A 
ATOM      6  N   UNL     1      -4.737   0.527   0.216  0.00  0.00    -0.212 NA
ATOM      7  N   UNL     1      -2.430   0.142   0.350  0.00  0.00    -0.307 N 
ATOM      8  H   UNL     1      -2.270   1.090   0.474  0.00  0.00    +0.149 HD
ENDROOT
BRANCH   1  18
ATOM      9  C   UNL     1      -7.122   4.506  -2.213  0.00  0.00    +0.001 A 
ATOM     10  C   UNL     1      -6.024   3.648  -2.244  0.00  0.00    +0.001 A 
ATOM     11  C   UNL     1      -6.010   2.503  -1.507  0.00  0.00    +0.009 A 
ATOM     12  C   UNL     1      -7.111   2.182  -0.700  0.00  0.00    -0.009 A 
ATOM     13  C   UNL     1      -8.229   3.050  -0.672  0.00  0.00    -0.017 A 
ATOM     14  C   UNL     1      -8.210   4.224  -1.445  0.00  0.00    +0.008 A 
ATOM     15  C   UNL     1      -9.336   2.727   0.132  0.00  0.00    +0.008 A 
ATOM     16  C   UNL     1      -9.332   1.584   0.873  0.00  0.00    +0.001 A 
ATOM     17  C   UNL     1      -8.244   0.718   0.852  0.00  0.00    +0.011 A 
ATOM     18  C   UNL     1      -7.133   0.998   0.075  0.00  0.00    +0.010 A 
ENDBRANCH   1  18
BRANCH   7  19
ATOM     19  C   UNL     1      -1.304  -0.795   0.332  0.00  0.00    +0.162 C 
BRANCH  19  20
ATOM     20  C   UNL     1      -0.016  -0.036   0.523  0.00  0.00    +0.086 A 
ATOM     21  C   UNL     1       1.259  -0.753   0.542  0.00  0.00    +0.012 A 
ATOM     22  C   UNL     1       1.328  -2.138   0.385  0.00  0.00    +0.010 A 
ATOM     23  C   UNL     1       2.544  -2.762   0.409  0.00  0.00    +0.001 A 
ATOM     24  C   UNL     1       3.715  -2.037   0.587  0.00  0.00    +0.001 A 
ATOM     25  C   UNL     1       3.678  -0.669   0.744  0.00  0.00    +0.014 A 
ATOM     26  C   UNL     1       2.449  -0.011   0.724  0.00  0.00    +0.050 A 
ATOM     27  C   UNL     1       2.342   1.444   0.885  0.00  0.00    +0.272 A 
ATOM     28  O   UNL     1       3.339   2.126   1.044  0.00  0.00    -0.266 OA
ATOM     29  N   UNL     1       1.118   2.013   0.853  0.00  0.00    -0.242 N 
ATOM     30  H   UNL     1       1.041   2.974   0.959  0.00  0.00    +0.192 HD
ATOM     31  N   UNL     1      -0.039   1.255   0.672  0.00  0.00    -0.174 NA
ENDBRANCH  19  20
ENDBRANCH   7  19
TORSDOF 3
