REMARK  Name = ZINC14645665
REMARK  7 active torsions:
REMARK  status: ('A' for Active; 'I' for Inactive)
REMARK    1  A    between atoms: C_2  and  C_22
REMARK    2  A    between atoms: C_3  and  O_21
REMARK    3  A    between atoms: C_4  and  O_20
REMARK    4  A    between atoms: C_11  and  O_17
REMARK    5  A    between atoms: C_13  and  O_16
REMARK    6  A    between atoms: C_14  and  O_15
REMARK    7  A    between atoms: C_22  and  O_23
REMARK                            x       y       z     vdW  Elec       q    Type
REMARK                         _______ _______ _______ _____ _____    ______ ____
ROOT
ATOM      1  C   UNL     1       6.122  -0.615  -0.657  0.00  0.00    +0.022 A 
ATOM      2  C   UNL     1       7.269   0.101  -0.951  0.00  0.00    +0.024 A 
ATOM      3  C   UNL     1       7.255   1.486  -0.946  0.00  0.00    +0.164 A 
ATOM      4  C   UNL     1       6.078   2.178  -0.642  0.00  0.00    +0.170 A 
ATOM      5  C   UNL     1       4.918   1.466  -0.345  0.00  0.00    +0.078 A 
ATOM      6  C   UNL     1       4.942   0.056  -0.353  0.00  0.00    +0.037 A 
ATOM      7  C   UNL     1       3.712  -0.697  -0.038  0.00  0.00    +0.198 C 
ATOM      8  O   UNL     1       3.763  -1.888   0.203  0.00  0.00    -0.286 OA
ATOM      9  C   UNL     1       2.419   0.013  -0.021  0.00  0.00    +0.082 A 
ATOM     10  C   UNL     1       2.397   1.425  -0.013  0.00  0.00    +0.078 A 
ATOM     11  C   UNL     1       1.173   2.100   0.002  0.00  0.00    +0.132 A 
ATOM     12  C   UNL     1      -0.017   1.378   0.010  0.00  0.00    +0.095 A 
ATOM     13  C   UNL     1       0.002  -0.004   0.002  0.00  0.00    +0.162 A 
ATOM     14  C   UNL     1       1.220  -0.697  -0.013  0.00  0.00    +0.170 A 
ATOM     15  C   UNL     1       3.664   2.174  -0.022  0.00  0.00    +0.202 C 
ATOM     16  O   UNL     1       3.678   3.364   0.234  0.00  0.00    -0.286 OA
ENDROOT
BRANCH  14  17
ATOM     17  O   UNL     1       1.232  -2.053  -0.020  0.00  0.00    -0.503 OA
ATOM     18  H   UNL     1       1.228  -2.442  -0.906  0.00  0.00    +0.292 HD
ENDBRANCH  14  17
BRANCH  13  19
ATOM     19  O   UNL     1      -1.167  -0.695   0.010  0.00  0.00    -0.503 OA
ATOM     20  H   UNL     1      -1.514  -0.890  -0.871  0.00  0.00    +0.292 HD
ENDBRANCH  13  19
BRANCH  11  21
ATOM     21  O   UNL     1       1.145   3.456   0.010  0.00  0.00    -0.506 OA
ATOM     22  H   UNL     1       1.145   3.844   0.895  0.00  0.00    +0.292 HD
ENDBRANCH  11  21
BRANCH   4  23
ATOM     23  O   UNL     1       6.066   3.535  -0.637  0.00  0.00    -0.503 OA
ATOM     24  H   UNL     1       6.283   3.927   0.220  0.00  0.00    +0.292 HD
ENDBRANCH   4  23
BRANCH   3  25
ATOM     25  O   UNL     1       8.389   2.174  -1.236  0.00  0.00    -0.503 OA
ATOM     26  H   UNL     1       8.938   2.372  -0.465  0.00  0.00    +0.292 HD
ENDBRANCH   3  25
BRANCH   2  27
ATOM     27  C   UNL     1       8.544  -0.633  -1.280  0.00  0.00    +0.194 C 
BRANCH  27  28
ATOM     28  O   UNL     1       8.312  -2.041  -1.222  0.00  0.00    -0.390 OA
ATOM     29  H   UNL     1       9.091  -2.577  -1.423  0.00  0.00    +0.210 HD
ENDBRANCH  27  28
ENDBRANCH   2  27
TORSDOF 7
