REMARK  Name = ZINC17188823
REMARK  13 active torsions:
REMARK  status: ('A' for Active; 'I' for Inactive)
REMARK    1  A    between atoms: C_1  and  C_2
REMARK    2  A    between atoms: C_2  and  C_3
REMARK    3  A    between atoms: C_2  and  C_4
REMARK    4  A    between atoms: C_2  and  C_5
REMARK    5  A    between atoms: C_5  and  C_11
REMARK    6  A    between atoms: N_6  and  N_7
REMARK    7  A    between atoms: N_7  and  C_8
REMARK    8  A    between atoms: C_8  and  N_10
REMARK    9  A    between atoms: C_11  and  C_12
REMARK   10  A    between atoms: C_12  and  C_14
REMARK   11  A    between atoms: C_14  and  C_15
REMARK   12  A    between atoms: C_15  and  C_16
REMARK   13  A    between atoms: N_18  and  C_19
REMARK                            x       y       z     vdW  Elec       q    Type
REMARK                         _______ _______ _______ _____ _____    ______ ____
ROOT
ATOM      1  C   UNL     1       5.845   2.562   0.188  0.00  0.00    +0.139 C 
ATOM      2  O   UNL     1       5.811   1.379   0.429  0.00  0.00    -0.297 OA
ENDROOT
BRANCH   1   3
ATOM      3  C   UNL     1       7.136   3.205  -0.247  0.00  0.00    +0.127 C 
BRANCH   3   4
ATOM      4  C   UNL     1       8.191   2.144  -0.425  0.00  0.00    +0.049 C 
ATOM      5  N   UNL     1       8.871   1.742   0.582  0.00  0.00    -0.189 NA
BRANCH   4   7
ATOM      6  C   UNL     1       9.462   0.418  -1.672  0.00  0.00    +0.017 C 
ATOM      7  C   UNL     1       8.446   1.556  -1.789  0.00  0.00    +0.003 C 
ATOM      8  C   UNL     1       7.136   1.014  -2.364  0.00  0.00    +0.017 C 
ATOM      9  C   UNL     1       8.999   2.640  -2.716  0.00  0.00    +0.017 C 
ENDBRANCH   4   7
BRANCH   5  10
ATOM     10  N   UNL     1       8.556   2.201   1.868  0.00  0.00    -0.219 N 
ATOM     11  H   UNL     1       7.781   2.768   2.004  0.00  0.00    +0.176 HD
BRANCH  10  12
ATOM     12  C   UNL     1       9.331   1.856   2.915  0.00  0.00    +0.147 C 
ATOM     13  S   UNL     1       8.946   2.417   4.486  0.00  0.00    -0.017 S 
BRANCH  12  14
ATOM     14  N   UNL     1      10.408   1.069   2.726  0.00  0.00    -0.339 N 
ATOM     15  H   UNL     1      10.626   0.751   1.836  0.00  0.00    +0.144 HD
ATOM     16  H   UNL     1      10.966   0.820   3.480  0.00  0.00    +0.144 HD
ENDBRANCH  12  14
ENDBRANCH  10  12
ENDBRANCH   5  10
ENDBRANCH   3   4
ENDBRANCH   1   3
BRANCH   1  17
ATOM     17  C   UNL     1       4.596   3.394   0.324  0.00  0.00    +0.084 C 
BRANCH  17  18
ATOM     18  C   UNL     1       3.437   2.504   0.776  0.00  0.00    +0.103 C 
BRANCH  18  19
ATOM     19  C   UNL     1       2.188   3.336   0.912  0.00  0.00    +0.218 C 
ATOM     20  O   UNL     1       2.221   4.524   0.670  0.00  0.00    -0.275 OA
ATOM     21  N   UNL     1       1.033   2.761   1.301  0.00  0.00    -0.285 N 
ATOM     22  H   UNL     1       0.987   1.799   1.423  0.00  0.00    +0.155 HD
BRANCH  21  23
ATOM     23  C   UNL     1      -0.102   3.549   1.525  0.00  0.00    +0.033 A 
ATOM     24  C   UNL     1       0.033   4.832   2.039  0.00  0.00    +0.025 A 
ATOM     25  C   UNL     1      -1.088   5.611   2.252  0.00  0.00    +0.022 A 
ATOM     26  C   UNL     1      -2.345   5.108   1.966  0.00  0.00    +0.041 A 
ATOM     27  C   UNL     1      -2.483   3.828   1.460  0.00  0.00    +0.022 A 
ATOM     28  C   UNL     1      -1.365   3.048   1.239  0.00  0.00    +0.025 A 
ATOM     29 CL   UNL     1      -3.752   6.087   2.243  0.00  0.00    -0.084 Cl
ENDBRANCH  21  23
ENDBRANCH  18  19
ENDBRANCH  17  18
ENDBRANCH   1  17
TORSDOF 10
