REMARK  Name = ZINC13976461
REMARK  13 active torsions:
REMARK  status: ('A' for Active; 'I' for Inactive)
REMARK    1  A    between atoms: C_1  and  C_2
REMARK    2  A    between atoms: C_2  and  C_3
REMARK    3  A    between atoms: C_2  and  C_4
REMARK    4  A    between atoms: C_2  and  C_5
REMARK    5  A    between atoms: C_8  and  O_11
REMARK    6  A    between atoms: O_11  and  C_12
REMARK    7  A    between atoms: C_12  and  C_13
REMARK    8  A    between atoms: N_15  and  C_16
REMARK    9  A    between atoms: C_16  and  N_18
REMARK   10  A    between atoms: N_18  and  N_19
REMARK   11  A    between atoms: C_20  and  C_22
REMARK   12  A    between atoms: C_25  and  N_28
REMARK   13  A    between atoms: C_29  and  C_31
REMARK                            x       y       z     vdW  Elec       q    Type
REMARK                         _______ _______ _______ _____ _____    ______ ____
ROOT
ATOM      1  N   UNL     1       2.356   1.191   0.018  0.00  0.00    -0.245 N 
ATOM      2  H   UNL     1       2.366   0.221   0.021  0.00  0.00    +0.172 HD
ENDROOT
BRANCH   1   3
ATOM      3  N   UNL     1       1.136   1.879   0.026  0.00  0.00    -0.231 N 
ATOM      4  C   UNL     1      -0.024   1.194   0.038  0.00  0.00    +0.260 C 
ATOM      5  O   UNL     1      -0.012  -0.022   0.041  0.00  0.00    -0.269 OA
ATOM      6  H   UNL     1       1.126   2.849   0.024  0.00  0.00    +0.173 HD
BRANCH   4   7
ATOM      7  C   UNL     1      -1.310   1.919   0.040  0.00  0.00    +0.038 A 
ATOM      8  C   UNL     1      -1.325   3.317   0.043  0.00  0.00    +0.015 A 
ATOM      9  C   UNL     1      -2.526   3.990   0.041  0.00  0.00    +0.024 A 
ATOM     10  C   UNL     1      -3.723   3.281   0.046  0.00  0.00    +0.033 A 
ATOM     11  C   UNL     1      -3.711   1.889   0.049  0.00  0.00    +0.024 A 
ATOM     12  C   UNL     1      -2.514   1.210   0.046  0.00  0.00    +0.015 A 
BRANCH  10  13
ATOM     13  N   UNL     1      -4.938   3.966   0.049  0.00  0.00    -0.285 N 
ATOM     14  C   UNL     1      -5.996   3.464  -0.619  0.00  0.00    +0.220 C 
ATOM     15  O   UNL     1      -5.917   2.378  -1.152  0.00  0.00    -0.275 OA
ATOM     16  H   UNL     1      -5.021   4.803   0.531  0.00  0.00    +0.155 HD
BRANCH  14  17
ATOM     17  C   UNL     1      -7.277   4.254  -0.702  0.00  0.00    +0.075 C 
ATOM     18  C   UNL     1      -8.492   3.711   0.053  0.00  0.00    +0.013 C 
ATOM     19  C   UNL     1      -8.442   3.630  -1.474  0.00  0.00    +0.013 C 
ENDBRANCH  14  17
ENDBRANCH  10  13
ENDBRANCH   4   7
ENDBRANCH   1   3
BRANCH   1  20
ATOM     20  C   UNL     1       3.517   1.877   0.007  0.00  0.00    +0.153 C 
ATOM     21  S   UNL     1       5.008   1.035  -0.003  0.00  0.00    -0.017 S 
BRANCH  20  24
ATOM     22  C   UNL     1       4.664   3.910  -0.007  0.00  0.00    +0.256 C 
ATOM     23  O   UNL     1       5.720   3.314  -0.014  0.00  0.00    -0.272 OA
ATOM     24  N   UNL     1       3.503   3.224   0.004  0.00  0.00    -0.264 N 
ATOM     25  H   UNL     1       2.658   3.701   0.010  0.00  0.00    +0.157 HD
BRANCH  22  26
ATOM     26  C   UNL     1       4.649   5.417  -0.011  0.00  0.00    +0.324 C 
BRANCH  26  27
ATOM     27  O   UNL     1       5.991   5.906  -0.023  0.00  0.00    -0.483 OA
BRANCH  27  31
ATOM     28  C   UNL     1       6.490  10.001  -0.037  0.00  0.00    -0.042 A 
ATOM     29  C   UNL     1       7.596   9.171  -0.044  0.00  0.00    +0.008 A 
ATOM     30  C   UNL     1       7.432   7.800  -0.039  0.00  0.00    +0.046 A 
ATOM     31  C   UNL     1       6.155   7.255  -0.028  0.00  0.00    +0.121 A 
ATOM     32  C   UNL     1       5.048   8.091  -0.026  0.00  0.00    +0.046 A 
ATOM     33  C   UNL     1       5.218   9.461  -0.025  0.00  0.00    +0.008 A 
BRANCH  28  35
ATOM     34  C   UNL     1       7.441  11.913  -1.299  0.00  0.00    +0.015 C 
ATOM     35  C   UNL     1       6.673  11.497  -0.042  0.00  0.00    -0.013 C 
ATOM     36  C   UNL     1       5.303  12.178  -0.033  0.00  0.00    +0.015 C 
ATOM     37  C   UNL     1       7.461  11.919   1.200  0.00  0.00    +0.015 C 
ENDBRANCH  28  35
ENDBRANCH  27  31
ENDBRANCH  26  27
ENDBRANCH  22  26
ENDBRANCH  20  24
ENDBRANCH   1  20
TORSDOF 10
