REMARK  Name = ZINC42014663
REMARK  4 active torsions:
REMARK  status: ('A' for Active; 'I' for Inactive)
REMARK    1  A    between atoms: C_1  and  C_2
REMARK    2  A    between atoms: C_3  and  N_21
REMARK    3  A    between atoms: C_5  and  C_9
REMARK    4  A    between atoms: N_13  and  C_14
REMARK                            x       y       z     vdW  Elec       q    Type
REMARK                         _______ _______ _______ _____ _____    ______ ____
ROOT
ATOM      1  C   UNL     1       0.038  -4.259  -0.009  0.00  0.00    +0.187 A 
ATOM      2  N   UNL     1      -0.303  -5.045  -1.009  0.00  0.00    -0.108 NA
ATOM      3  N   UNL     1      -0.141  -6.278  -0.688  0.00  0.00    -0.022 NA
ATOM      4  N   UNL     1       0.307  -6.378   0.515  0.00  0.00    -0.039 NA
ATOM      5  N   UNL     1       0.450  -5.069   1.009  0.00  0.00    -0.193 N 
ENDROOT
BRANCH   1  10
ATOM      6  C   UNL     1      -0.137   1.500   0.055  0.00  0.00    +0.048 C 
ATOM      7  C   UNL     1      -0.092  -0.006   0.037  0.00  0.00    +0.005 A 
ATOM      8  C   UNL     1      -1.017  -0.719  -0.717  0.00  0.00    +0.031 A 
ATOM      9  C   UNL     1      -0.978  -2.105  -0.735  0.00  0.00    +0.034 A 
ATOM     10  C   UNL     1      -0.008  -2.780   0.006  0.00  0.00    +0.026 A 
ATOM     11  C   UNL     1       0.916  -2.059   0.760  0.00  0.00    +0.050 A 
ATOM     12  C   UNL     1       0.874  -0.676   0.768  0.00  0.00    +0.129 A 
ATOM     13  F   UNL     1       1.774   0.021   1.495  0.00  0.00    -0.205 F 
BRANCH   8  14
ATOM     14  N   UNL     1      -1.987  -0.038  -1.457  0.00  0.00    -0.358 N 
ATOM     15  H   UNL     1      -2.015   0.931  -1.444  0.00  0.00    +0.142 HD
ATOM     16  H   UNL     1      -2.632  -0.535  -1.983  0.00  0.00    +0.142 HD
ENDBRANCH   8  14
ENDBRANCH   1  10
BRANCH   5  17
ATOM     17  C   UNL     1       0.912  -4.681   2.274  0.00  0.00    +0.070 A 
ATOM     18  C   UNL     1       0.249  -3.687   2.981  0.00  0.00    +0.028 A 
ATOM     19  C   UNL     1       0.706  -3.305   4.228  0.00  0.00    +0.003 A 
ATOM     20  C   UNL     1       1.823  -3.913   4.771  0.00  0.00    +0.015 A 
ATOM     21  C   UNL     1       2.486  -4.903   4.069  0.00  0.00    +0.020 A 
ATOM     22  C   UNL     1       2.030  -5.293   2.824  0.00  0.00    +0.043 A 
ATOM     23 BR   UNL     1       4.013  -5.730   4.817  0.00  0.00    -0.050 Br
ENDBRANCH   5  17
TORSDOF 3
