REMARK  Name = ZINC21320494
REMARK  9 active torsions:
REMARK  status: ('A' for Active; 'I' for Inactive)
REMARK    1  A    between atoms: C_1  and  O_2
REMARK    2  A    between atoms: O_2  and  C_3
REMARK    3  A    between atoms: C_8  and  C_9
REMARK    4  A    between atoms: N_10  and  N_11
REMARK    5  A    between atoms: C_15  and  S_18
REMARK    6  A    between atoms: N_16  and  N_17
REMARK    7  A    between atoms: S_18  and  C_19
REMARK    8  A    between atoms: C_19  and  C_20
REMARK    9  A    between atoms: N_22  and  C_23
REMARK                            x       y       z     vdW  Elec       q    Type
REMARK                         _______ _______ _______ _____ _____    ______ ____
ROOT
ATOM      1  N   UNL     1      -2.950   1.521   0.026  0.00  0.00    -0.204 N 
ATOM      2  C   UNL     1      -2.090   1.702  -1.047  0.00  0.00    +0.254 A 
ATOM      3  N   UNL     1      -2.421   2.155  -2.232  0.00  0.00    -0.109 NA
ATOM      4  N   UNL     1      -1.264   2.186  -3.023  0.00  0.00    -0.119 NA
ATOM      5  C   UNL     1      -0.263   1.757  -2.292  0.00  0.00    +0.210 A 
ATOM      6  N   UNL     1      -0.747   1.442  -1.055  0.00  0.00    -0.211 N 
ATOM      7  H   UNL     1      -2.564   1.134   0.981  0.00  0.00    +0.177 HD
ENDROOT
BRANCH   6   8
ATOM      8  N   UNL     1      -0.018   0.957  -0.007  0.00  0.00    -0.294 N 
ATOM      9  H   UNL     1       1.062   0.782  -0.122  0.00  0.00    +0.163 HD
ATOM     10  H   UNL     1      -0.510   0.740   0.953  0.00  0.00    +0.163 HD
ENDBRANCH   6   8
BRANCH   1  12
ATOM     11  C   UNL     1      -5.115   1.661   0.899  0.00  0.00    +0.142 C 
ATOM     12  N   UNL     1      -4.310   1.831  -0.106  0.00  0.00    -0.187 NA
BRANCH  11  18
ATOM     13  C   UNL     1      -7.041   2.480  -0.454  0.00  0.00    +0.129 A 
ATOM     14  C   UNL     1      -8.387   2.782  -0.575  0.00  0.00    +0.047 A 
ATOM     15  C   UNL     1      -9.238   2.599   0.499  0.00  0.00    +0.019 A 
ATOM     16  C   UNL     1      -8.753   2.111   1.701  0.00  0.00    +0.019 A 
ATOM     17  C   UNL     1      -7.415   1.800   1.837  0.00  0.00    +0.028 A 
ATOM     18  C   UNL     1      -6.545   1.986   0.760  0.00  0.00    +0.037 A 
ATOM     19 BR   UNL     1      -9.930   1.865   3.161  0.00  0.00    -0.050 Br
BRANCH  13  21
ATOM     20  C   UNL     1      -6.781   3.166  -2.715  0.00  0.00    +0.277 C 
ATOM     21  O   UNL     1      -6.204   2.660  -1.510  0.00  0.00    -0.494 OA
ENDBRANCH  13  21
ENDBRANCH  11  18
ENDBRANCH   1  12
BRANCH   5  22
ATOM     22  S   UNL     1       1.413   1.609  -2.817  0.00  0.00    -0.075 S 
BRANCH  22  23
ATOM     23  C   UNL     1       1.385   2.182  -4.538  0.00  0.00    +0.173 C 
BRANCH  23  24
ATOM     24  C   UNL     1       2.776   2.106  -5.115  0.00  0.00    +0.228 C 
ATOM     25  O   UNL     1       3.694   1.704  -4.432  0.00  0.00    -0.275 OA
ATOM     26  N   UNL     1       2.998   2.483  -6.389  0.00  0.00    -0.283 N 
ATOM     27  H   UNL     1       2.155   2.778  -7.031  0.00  0.00    +0.155 HD
BRANCH  26  28
ATOM     28  C   UNL     1       4.304   2.501  -6.897  0.00  0.00    +0.069 A 
ATOM     29  C   UNL     1       5.225   1.550  -6.481  0.00  0.00    +0.029 A 
ATOM     30  C   UNL     1       6.512   1.569  -6.982  0.00  0.00    +0.040 A 
ATOM     31  C   UNL     1       6.885   2.535  -7.901  0.00  0.00    +0.126 A 
ATOM     32  C   UNL     1       5.969   3.486  -8.319  0.00  0.00    +0.078 A 
ATOM     33  C   UNL     1       4.678   3.469  -7.823  0.00  0.00    +0.147 A 
ATOM     34  F   UNL     1       3.783   4.393  -8.235  0.00  0.00    -0.203 F 
ATOM     35  F   UNL     1       8.144   2.551  -8.390  0.00  0.00    -0.205 F 
ENDBRANCH  26  28
ENDBRANCH  23  24
ENDBRANCH  22  23
ENDBRANCH   5  22
TORSDOF 8
