REMARK  Name = ZINC46658381
REMARK  10 active torsions:
REMARK  status: ('A' for Active; 'I' for Inactive)
REMARK    1  A    between atoms: C_1  and  C_2
REMARK    2  A    between atoms: C_3  and  C_30
REMARK    3  A    between atoms: C_7  and  N_29
REMARK    4  A    between atoms: C_9  and  S_11
REMARK    5  A    between atoms: S_11  and  C_12
REMARK    6  A    between atoms: C_12  and  C_14
REMARK    7  A    between atoms: C_12  and  C_15
REMARK    8  A    between atoms: N_17  and  C_18
REMARK    9  A    between atoms: C_23  and  C_28
REMARK   10  A    between atoms: C_25  and  C_27
REMARK                            x       y       z     vdW  Elec       q    Type
REMARK                         _______ _______ _______ _____ _____    ______ ____
ROOT
ATOM      1  S   UNL     1       1.725  -3.460   4.328  0.00  0.00    -0.073 S 
ENDROOT
BRANCH   1  10
ATOM      2  C   UNL     1      -1.287   1.427   0.444  0.00  0.00    +0.045 C 
ATOM      3  C   UNL     1      -1.146  -0.073   0.394  0.00  0.00    -0.028 A 
ATOM      4  C   UNL     1      -1.693  -0.773  -0.610  0.00  0.00    -0.008 A 
ATOM      5  S   UNL     1      -1.260  -2.459  -0.227  0.00  0.00    -0.073 S 
ATOM      6  C   UNL     1      -0.356  -2.179   1.272  0.00  0.00    +0.115 A 
ATOM      7  C   UNL     1      -0.410  -0.777   1.431  0.00  0.00    +0.050 A 
ATOM      8  C   UNL     1       0.255  -0.264   2.579  0.00  0.00    +0.129 A 
ATOM      9  N   UNL     1       0.869  -1.101   3.400  0.00  0.00    -0.207 NA
ATOM     10  C   UNL     1       0.886  -2.411   3.188  0.00  0.00    +0.192 A 
ATOM     11  N   UNL     1       0.274  -2.947   2.139  0.00  0.00    -0.214 NA
ATOM     12  C   UNL     1      -2.486  -0.257  -1.783  0.00  0.00    +0.052 C 
BRANCH   8  13
ATOM     13  N   UNL     1       0.261   1.095   2.835  0.00  0.00    -0.343 N 
ATOM     14  H   UNL     1       0.109   1.725   2.113  0.00  0.00    +0.144 HD
ATOM     15  H   UNL     1       0.416   1.418   3.736  0.00  0.00    +0.144 HD
ENDBRANCH   8  13
ENDBRANCH   1  10
BRANCH   1  16
ATOM     16  C   UNL     1       2.381  -2.318   5.575  0.00  0.00    +0.137 C 
ATOM     17  C   UNL     1       3.421  -1.400   4.929  0.00  0.00    +0.029 C 
BRANCH  16  18
ATOM     18  C   UNL     1       3.026  -3.104   6.687  0.00  0.00    +0.226 C 
ATOM     19  O   UNL     1       3.452  -4.219   6.473  0.00  0.00    -0.275 OA
ATOM     20  N   UNL     1       3.129  -2.568   7.919  0.00  0.00    -0.311 N 
ATOM     21  H   UNL     1       2.788  -1.677   8.090  0.00  0.00    +0.149 HD
BRANCH  20  22
ATOM     22  C   UNL     1       3.756  -3.333   9.000  0.00  0.00    +0.076 C 
ATOM     23  C   UNL     1       5.272  -3.139   8.949  0.00  0.00    +0.022 C 
ATOM     24  C   UNL     1       5.927  -3.937  10.078  0.00  0.00    +0.002 C 
ATOM     25  C   UNL     1       5.395  -3.445  11.426  0.00  0.00    +0.003 C 
ATOM     26  C   UNL     1       3.878  -3.639  11.477  0.00  0.00    -0.009 C 
ATOM     27  C   UNL     1       3.224  -2.841  10.348  0.00  0.00    +0.009 C 
ATOM     28  C   UNL     1       1.707  -3.035  10.399  0.00  0.00    +0.009 C 
ATOM     29  C   UNL     1       3.548  -5.123  11.310  0.00  0.00    +0.008 C 
ENDBRANCH  20  22
ENDBRANCH  16  18
ENDBRANCH   1  16
TORSDOF 5
