REMARK  Name = ZINC09316805
REMARK  6 active torsions:
REMARK  status: ('A' for Active; 'I' for Inactive)
REMARK    1  A    between atoms: C_1  and  O_2
REMARK    2  A    between atoms: O_2  and  C_3
REMARK    3  A    between atoms: C_6  and  C_9
REMARK    4  A    between atoms: N_13  and  C_14
REMARK    5  A    between atoms: C_14  and  N_16
REMARK    6  A    between atoms: C_17  and  C_19
REMARK                            x       y       z     vdW  Elec       q    Type
REMARK                         _______ _______ _______ _____ _____    ______ ____
ROOT
ATOM      1  C   UNL     1       2.587  -2.540   4.285  0.00  0.00    +0.055 A 
ATOM      2  C   UNL     1       3.155  -1.833   5.287  0.00  0.00    +0.074 A 
ATOM      3  S   UNL     1       3.796  -3.124   6.336  0.00  0.00    -0.060 S 
ATOM      4  C   UNL     1       3.303  -4.457   5.438  0.00  0.00    +0.162 A 
ATOM      5  N   UNL     1       3.489  -5.746   5.708  0.00  0.00    -0.169 NA
ATOM      6  N   UNL     1       2.662  -3.903   4.372  0.00  0.00    -0.335 N 
ATOM      7  H   UNL     1       2.269  -4.464   3.685  0.00  0.00    +0.168 HD
ENDROOT
BRANCH   1  11
ATOM      8  C   UNL     1       0.646  -0.620   1.028  0.00  0.00    +0.120 A 
ATOM      9  C   UNL     1       1.222   0.141   2.036  0.00  0.00    +0.046 A 
ATOM     10  C   UNL     1       1.853  -0.478   3.095  0.00  0.00    +0.013 A 
ATOM     11  C   UNL     1       1.911  -1.871   3.152  0.00  0.00    -0.001 A 
ATOM     12  C   UNL     1       1.330  -2.632   2.136  0.00  0.00    +0.013 A 
ATOM     13  C   UNL     1       0.697  -2.006   1.084  0.00  0.00    +0.046 A 
BRANCH   8  15
ATOM     14  C   UNL     1       0.010   1.423  -0.008  0.00  0.00    +0.277 C 
ATOM     15  O   UNL     1       0.026  -0.005  -0.014  0.00  0.00    -0.495 OA
ENDBRANCH   8  15
ENDBRANCH   1  11
BRANCH   5  16
ATOM     16  C   UNL     1       2.938  -6.678   4.926  0.00  0.00    +0.163 C 
ATOM     17  S   UNL     1       3.432  -6.826   3.293  0.00  0.00    -0.016 S 
BRANCH  16  18
ATOM     18  N   UNL     1       1.995  -7.503   5.422  0.00  0.00    -0.262 N 
ATOM     19  C   UNL     1       1.440  -8.444   4.632  0.00  0.00    +0.256 C 
ATOM     20  O   UNL     1       1.790  -8.549   3.472  0.00  0.00    -0.269 OA
ATOM     21  H   UNL     1       1.715  -7.419   6.347  0.00  0.00    +0.157 HD
BRANCH  19  22
ATOM     22  C   UNL     1       0.414  -9.340   5.171  0.00  0.00    +0.074 A 
ATOM     23  C   UNL     1      -0.272 -10.366   4.537  0.00  0.00    +0.021 A 
ATOM     24  C   UNL     1      -1.186 -11.040   5.310  0.00  0.00    +0.008 A 
ATOM     25  C   UNL     1      -1.355 -10.670   6.604  0.00  0.00    +0.046 A 
ATOM     26  S   UNL     1      -0.274  -9.401   6.815  0.00  0.00    -0.092 S 
ENDBRANCH  19  22
ENDBRANCH  16  18
ENDBRANCH   5  16
TORSDOF 5
