REMARK  Name = ZINC63161311
REMARK  8 active torsions:
REMARK  status: ('A' for Active; 'I' for Inactive)
REMARK    1  A    between atoms: C_1  and  C_2
REMARK    2  A    between atoms: C_2  and  C_3
REMARK    3  A    between atoms: C_2  and  C_4
REMARK    4  A    between atoms: C_4  and  C_5
REMARK    5  A    between atoms: C_5  and  C_6
REMARK    6  A    between atoms: C_5  and  N_11
REMARK    7  A    between atoms: N_14  and  C_15
REMARK    8  A    between atoms: C_17  and  C_23
REMARK                            x       y       z     vdW  Elec       q    Type
REMARK                         _______ _______ _______ _____ _____    ______ ____
ROOT
ATOM      1  N   UNL     1      -1.289  -0.893   2.355  0.00  0.00    -0.292 N 
ATOM      2  C   UNL     1      -2.349  -0.382   1.697  0.00  0.00    +0.304 C 
ATOM      3  O   UNL     1      -2.207   0.581   0.969  0.00  0.00    -0.252 OA
ATOM      4  N   UNL     1      -3.567  -0.939   1.848  0.00  0.00    -0.265 N 
ATOM      5  H   UNL     1      -1.403  -1.661   2.936  0.00  0.00    +0.151 HD
ATOM      6  H   UNL     1      -3.669  -1.751   2.369  0.00  0.00    +0.157 HD
ENDROOT
BRANCH   4   7
ATOM      7  C   UNL     1      -4.688  -0.346   1.250  0.00  0.00    +0.100 A 
ATOM      8  C   UNL     1      -5.452  -1.050   0.359  0.00  0.00    +0.042 A 
ATOM      9  C   UNL     1      -6.568  -0.432  -0.224  0.00  0.00    +0.073 A 
ATOM     10  C   UNL     1      -6.879   0.845   0.096  0.00  0.00    +0.098 A 
ATOM     11  N   UNL     1      -6.121   1.546   0.980  0.00  0.00    -0.327 N 
ATOM     12  H   UNL     1      -6.360   2.461   1.197  0.00  0.00    +0.168 HD
ATOM     13  C   UNL     1      -5.046   0.983   1.564  0.00  0.00    +0.270 A 
ATOM     14  O   UNL     1      -4.378   1.623   2.360  0.00  0.00    -0.266 OA
BRANCH   9  15
ATOM     15  C   UNL     1      -7.420  -1.192  -1.207  0.00  0.00    +0.419 C 
ATOM     16  F   UNL     1      -8.466  -0.373  -1.648  0.00  0.00    -0.166 F 
ATOM     17  F   UNL     1      -6.638  -1.579  -2.301  0.00  0.00    -0.166 F 
ATOM     18  F   UNL     1      -7.949  -2.328  -0.586  0.00  0.00    -0.166 F 
ENDBRANCH   9  15
ENDBRANCH   4   7
BRANCH   1  19
ATOM     19  C   UNL     1       0.035  -0.287   2.191  0.00  0.00    +0.112 C 
BRANCH  19  20
ATOM     20  C   UNL     1       0.876  -0.584   3.406  0.00  0.00    +0.010 A 
ATOM     21  C   UNL     1       1.739   0.228   4.065  0.00  0.00    +0.013 A 
ATOM     22  C   UNL     1       2.410  -0.264   5.169  0.00  0.00    +0.008 A 
ATOM     23  C   UNL     1       2.185  -1.542   5.560  0.00  0.00    +0.045 A 
ATOM     24  S   UNL     1       0.989  -2.092   4.355  0.00  0.00    -0.100 S 
ENDBRANCH  19  20
BRANCH  19  25
ATOM     25  C   UNL     1       0.711  -0.869   0.948  0.00  0.00    +0.030 C 
BRANCH  25  27
ATOM     26  C   UNL     1      -0.007   1.057  -0.473  0.00  0.00    +0.007 C 
ATOM     27  C   UNL     1      -0.076  -0.462  -0.299  0.00  0.00    -0.015 C 
ATOM     28  C   UNL     1       0.527  -1.144  -1.528  0.00  0.00    +0.007 C 
ENDBRANCH  25  27
ENDBRANCH  19  25
ENDBRANCH   1  19
TORSDOF 6
