REMARK  Name = ZINC08418271
REMARK  11 active torsions:
REMARK  status: ('A' for Active; 'I' for Inactive)
REMARK    1  A    between atoms: C_1  and  C_2
REMARK    2  A    between atoms: C_7  and  N_12
REMARK    3  A    between atoms: C_9  and  C_11
REMARK    4  A    between atoms: N_12  and  C_13
REMARK    5  A    between atoms: C_13  and  N_15
REMARK    6  A    between atoms: N_15  and  N_16
REMARK    7  A    between atoms: C_17  and  C_19
REMARK    8  A    between atoms: C_21  and  O_28
REMARK    9  A    between atoms: C_22  and  O_26
REMARK   10  A    between atoms: O_26  and  C_27
REMARK   11  A    between atoms: O_28  and  C_29
REMARK                            x       y       z     vdW  Elec       q    Type
REMARK                         _______ _______ _______ _____ _____    ______ ____
ROOT
ATOM      1  N   UNL     1      -0.010   4.225   0.024  0.00  0.00    -0.231 N 
ATOM      2  C   UNL     1       1.165   3.566   0.010  0.00  0.00    +0.260 C 
ATOM      3  O   UNL     1       2.211   4.186   0.003  0.00  0.00    -0.269 OA
ATOM      4  H   UNL     1      -0.844   3.730   0.029  0.00  0.00    +0.173 HD
ENDROOT
BRANCH   2   5
ATOM      5  C   UNL     1       1.183   2.090   0.002  0.00  0.00    +0.043 A 
ATOM      6  C   UNL     1       2.401   1.404  -0.013  0.00  0.00    +0.062 A 
ATOM      7  C   UNL     1       2.413   0.023  -0.021  0.00  0.00    +0.164 A 
ATOM      8  C   UNL     1       1.213  -0.685  -0.014  0.00  0.00    +0.180 A 
ATOM      9  C   UNL     1       0.002  -0.004   0.002  0.00  0.00    +0.087 A 
ATOM     10  C   UNL     1      -0.017   1.375   0.010  0.00  0.00    +0.037 A 
ATOM     11 CL   UNL     1      -1.490  -0.891   0.011  0.00  0.00    -0.080 Cl
BRANCH   8  12
ATOM     12  O   UNL     1       1.226  -2.043  -0.021  0.00  0.00    -0.490 OA
ATOM     13  C   UNL     1       1.220  -2.685  -1.298  0.00  0.00    +0.277 C 
ENDBRANCH   8  12
BRANCH   7  14
ATOM     14  O   UNL     1       3.597  -0.646  -0.036  0.00  0.00    -0.491 OA
ATOM     15  C   UNL     1       4.789   0.142  -0.043  0.00  0.00    +0.277 C 
ENDBRANCH   7  14
ENDBRANCH   2   5
BRANCH   1  16
ATOM     16  N   UNL     1      -0.027   5.626   0.031  0.00  0.00    -0.246 N 
ATOM     17  H   UNL     1       0.807   6.121   0.026  0.00  0.00    +0.172 HD
BRANCH  16  18
ATOM     18  C   UNL     1      -1.202   6.285   0.045  0.00  0.00    +0.147 C 
ATOM     19  S   UNL     1      -1.223   7.997   0.054  0.00  0.00    -0.017 S 
BRANCH  18  20
ATOM     20  N   UNL     1      -2.361   5.597   0.053  0.00  0.00    -0.322 N 
ATOM     21  H   UNL     1      -2.349   4.627   0.048  0.00  0.00    +0.148 HD
BRANCH  20  27
ATOM     22  C   UNL     1      -5.938   3.251   0.466  0.00  0.00    +0.008 C 
ATOM     23  C   UNL     1      -4.859   4.145  -0.149  0.00  0.00    -0.009 C 
ATOM     24  C   UNL     1      -5.255   4.511  -1.581  0.00  0.00    +0.003 C 
ATOM     25  C   UNL     1      -4.176   5.405  -2.196  0.00  0.00    +0.002 C 
ATOM     26  C   UNL     1      -4.035   6.681  -1.363  0.00  0.00    +0.022 C 
ATOM     27  C   UNL     1      -3.639   6.314   0.068  0.00  0.00    +0.075 C 
ATOM     28  C   UNL     1      -4.717   5.421   0.684  0.00  0.00    +0.009 C 
ATOM     29  C   UNL     1      -4.321   5.054   2.115  0.00  0.00    +0.009 C 
ENDBRANCH  20  27
ENDBRANCH  18  20
ENDBRANCH  16  18
ENDBRANCH   1  16
TORSDOF 7
