REMARK  Name = ZINC16477938
REMARK  7 active torsions:
REMARK  status: ('A' for Active; 'I' for Inactive)
REMARK    1  A    between atoms: C_4  and  C_7
REMARK    2  A    between atoms: C_8  and  C_26
REMARK    3  A    between atoms: C_9  and  C_15
REMARK    4  A    between atoms: C_20  and  O_21
REMARK    5  A    between atoms: O_21  and  C_22
REMARK    6  A    between atoms: C_22  and  C_23
REMARK    7  A    between atoms: C_26  and  C_28
REMARK                            x       y       z     vdW  Elec       q    Type
REMARK                         _______ _______ _______ _____ _____    ______ ____
ROOT
ATOM      1  C   UNL     1      -4.834  -2.331  -1.913  0.00  0.00    +0.049 C 
ATOM      2  C   UNL     1      -4.024  -1.365  -1.383  0.00  0.00    +0.046 C 
ATOM      3  C   UNL     1      -4.387  -0.814  -0.018  0.00  0.00    +0.142 C 
ATOM      4  N   UNL     1      -5.590  -1.367   0.626  0.00  0.00    -0.315 N 
ATOM      5  C   UNL     1      -6.292  -2.318  -0.020  0.00  0.00    +0.135 C 
ATOM      6  S   UNL     1      -7.690  -2.962   0.728  0.00  0.00    -0.019 S 
ATOM      7  N   UNL     1      -5.935  -2.777  -1.226  0.00  0.00    -0.296 N 
ATOM      8  H   UNL     1      -5.872  -1.052   1.500  0.00  0.00    +0.149 HD
ATOM      9  H   UNL     1      -6.485  -3.463  -1.636  0.00  0.00    +0.154 HD
ENDROOT
BRANCH   1  13
ATOM     10  C   UNL     1      -3.934  -3.964  -5.728  0.00  0.00    +0.000 A 
ATOM     11  C   UNL     1      -2.945  -3.881  -4.763  0.00  0.00    +0.001 A 
ATOM     12  C   UNL     1      -3.230  -3.351  -3.522  0.00  0.00    +0.010 A 
ATOM     13  C   UNL     1      -4.521  -2.898  -3.239  0.00  0.00    -0.003 A 
ATOM     14  C   UNL     1      -5.516  -2.991  -4.216  0.00  0.00    +0.010 A 
ATOM     15  C   UNL     1      -5.215  -3.517  -5.455  0.00  0.00    +0.001 A 
ENDBRANCH   1  13
BRANCH   3  16
ATOM     16  C   UNL     1      -4.576   0.675  -0.154  0.00  0.00    +0.019 A 
ATOM     17  C   UNL     1      -5.847   1.201  -0.285  0.00  0.00    +0.009 A 
ATOM     18  C   UNL     1      -6.020   2.567  -0.414  0.00  0.00    +0.001 A 
ATOM     19  C   UNL     1      -4.923   3.409  -0.408  0.00  0.00    +0.004 A 
ATOM     20  C   UNL     1      -3.651   2.888  -0.273  0.00  0.00    +0.046 A 
ATOM     21  C   UNL     1      -3.475   1.518  -0.142  0.00  0.00    +0.126 A 
BRANCH  21  22
ATOM     22  O   UNL     1      -2.224   1.002  -0.009  0.00  0.00    -0.482 OA
BRANCH  22  23
ATOM     23  C   UNL     1      -1.131   1.917  -0.113  0.00  0.00    +0.324 C 
BRANCH  23  24
ATOM     24  C   UNL     1       0.168   1.163   0.006  0.00  0.00    +0.248 C 
ATOM     25  O   UNL     1       0.161  -0.047   0.093  0.00  0.00    -0.272 OA
ATOM     26  N   UNL     1       1.338   1.832   0.012  0.00  0.00    -0.327 N 
ATOM     27  H   UNL     1       2.169   1.354   0.157  0.00  0.00    +0.145 HD
ATOM     28  H   UNL     1       1.348   2.792  -0.130  0.00  0.00    +0.145 HD
ENDBRANCH  23  24
ENDBRANCH  22  23
ENDBRANCH  21  22
ENDBRANCH   3  16
BRANCH   2  29
ATOM     29  C   UNL     1      -2.892  -0.899  -2.079  0.00  0.00    +0.193 C 
ATOM     30  O   UNL     1      -1.778  -1.269  -1.749  0.00  0.00    -0.287 OA
BRANCH  29  31
ATOM     31  C   UNL     1      -3.054   0.039  -3.212  0.00  0.00    +0.022 A 
ATOM     32  C   UNL     1      -4.318   0.535  -3.536  0.00  0.00    +0.012 A 
ATOM     33  C   UNL     1      -4.462   1.414  -4.589  0.00  0.00    +0.001 A 
ATOM     34  C   UNL     1      -3.358   1.795  -5.332  0.00  0.00    +0.000 A 
ATOM     35  C   UNL     1      -2.103   1.302  -5.021  0.00  0.00    +0.001 A 
ATOM     36  C   UNL     1      -1.945   0.427  -3.966  0.00  0.00    +0.012 A 
ENDBRANCH  29  31
ENDBRANCH   2  29
TORSDOF 7
