REMARK  Name = ZINC13018493
REMARK  12 active torsions:
REMARK  status: ('A' for Active; 'I' for Inactive)
REMARK    1  A    between atoms: C_1  and  C_2
REMARK    2  A    between atoms: C_2  and  C_4
REMARK    3  A    between atoms: C_2  and  N_14
REMARK    4  A    between atoms: C_7  and  S_10
REMARK    5  A    between atoms: S_10  and  N_13
REMARK    6  A    between atoms: N_14  and  C_15
REMARK    7  A    between atoms: C_15  and  C_17
REMARK    8  A    between atoms: C_15  and  C_18
REMARK    9  A    between atoms: N_20  and  C_21
REMARK   10  A    between atoms: C_24  and  C_27
REMARK   11  A    between atoms: C_27  and  C_28
REMARK   12  A    between atoms: C_27  and  C_29
REMARK                            x       y       z     vdW  Elec       q    Type
REMARK                         _______ _______ _______ _____ _____    ______ ____
ROOT
ATOM      1  N   UNL     1      -1.350  -0.602   0.050  0.00  0.00    -0.299 NA
ATOM      2  H   UNL     1      -1.327  -1.472   0.561  0.00  0.00    +0.123 HD
ENDROOT
BRANCH   1   4
ATOM      3  C   UNL     1       0.296   0.657   1.355  0.00  0.00    +0.029 C 
ATOM      4  C   UNL     1      -0.018   0.015   0.002  0.00  0.00    +0.081 C 
BRANCH   4   5
ATOM      5  C   UNL     1       1.014  -1.040  -0.304  0.00  0.00    -0.031 A 
ATOM      6  C   UNL     1       0.912  -2.293   0.270  0.00  0.00    +0.007 A 
ATOM      7  C   UNL     1       1.859  -3.261  -0.011  0.00  0.00    +0.029 A 
ATOM      8  C   UNL     1       2.907  -2.975  -0.867  0.00  0.00    +0.105 A 
ATOM      9  C   UNL     1       3.008  -1.722  -1.441  0.00  0.00    +0.029 A 
ATOM     10  C   UNL     1       2.059  -0.756  -1.163  0.00  0.00    +0.007 A 
BRANCH   8  11
ATOM     11  S   UNL     1       4.114  -4.208  -1.224  0.00  0.00    +0.056 S 
ATOM     12  O   UNL     1       5.292  -3.520  -1.623  0.00  0.00    -0.153 OA
ATOM     13  O   UNL     1       4.096  -5.121  -0.135  0.00  0.00    -0.153 OA
BRANCH  11  14
ATOM     14  N   UNL     1       3.582  -5.044  -2.551  0.00  0.00    -0.204 NA
ATOM     15  H   UNL     1       4.222  -5.438  -3.164  0.00  0.00    +0.144 HD
ATOM     16  H   UNL     1       2.631  -5.139  -2.715  0.00  0.00    +0.144 HD
ENDBRANCH  11  14
ENDBRANCH   8  11
ENDBRANCH   4   5
ENDBRANCH   1   4
BRANCH   1  17
ATOM     17  C   UNL     1      -1.887  -0.801  -1.303  0.00  0.00    +0.138 C 
ATOM     18  C   UNL     1      -2.465   0.517  -1.821  0.00  0.00    +0.034 C 
BRANCH  17  19
ATOM     19  C   UNL     1      -2.973  -1.845  -1.264  0.00  0.00    +0.234 C 
ATOM     20  O   UNL     1      -3.271  -2.371  -0.212  0.00  0.00    -0.274 OA
ATOM     21  N   UNL     1      -3.614  -2.193  -2.397  0.00  0.00    -0.284 N 
ATOM     22  H   UNL     1      -3.324  -1.831  -3.249  0.00  0.00    +0.155 HD
BRANCH  21  23
ATOM     23  C   UNL     1      -4.697  -3.078  -2.345  0.00  0.00    +0.033 A 
ATOM     24  C   UNL     1      -4.905  -3.984  -3.376  0.00  0.00    +0.023 A 
ATOM     25  C   UNL     1      -5.975  -4.856  -3.321  0.00  0.00    +0.006 A 
ATOM     26  C   UNL     1      -6.839  -4.826  -2.241  0.00  0.00    -0.045 A 
ATOM     27  C   UNL     1      -6.635  -3.924  -1.214  0.00  0.00    +0.006 A 
ATOM     28  C   UNL     1      -5.563  -3.054  -1.259  0.00  0.00    +0.023 A 
BRANCH  26  29
ATOM     29  C   UNL     1      -8.005  -5.779  -2.185  0.00  0.00    +0.013 C 
ATOM     30  C   UNL     1      -7.886  -6.658  -0.939  0.00  0.00    +0.012 C 
ATOM     31  C   UNL     1      -9.311  -4.983  -2.125  0.00  0.00    +0.012 C 
ENDBRANCH  26  29
ENDBRANCH  21  23
ENDBRANCH  17  19
ENDBRANCH   1  17
TORSDOF 8
