REMARK  Name = ZINC50997151
REMARK  5 active torsions:
REMARK  status: ('A' for Active; 'I' for Inactive)
REMARK    1  A    between atoms: C_1  and  C_2
REMARK    2  A    between atoms: C_2  and  C_3
REMARK    3  A    between atoms: C_3  and  C_4
REMARK    4  A    between atoms: C_6  and  C_13
REMARK    5  A    between atoms: N_8  and  C_9
REMARK                            x       y       z     vdW  Elec       q    Type
REMARK                         _______ _______ _______ _____ _____    ______ ____
ROOT
ATOM      1  C   UNL     1      -1.524  -2.047   0.003  0.00  0.00    +0.077 C 
ATOM      2  N   UNL     1      -1.486  -2.750  -1.074  0.00  0.00    -0.363 N 
ATOM      3  C   UNL     1      -1.322  -4.162  -0.696  0.00  0.00    +0.173 C 
ATOM      4  C   UNL     1      -1.273  -4.128   0.820  0.00  0.00    +0.101 C 
ATOM      5  N   UNL     1      -1.398  -2.793   1.141  0.00  0.00    -0.276 N 
ATOM      6  N   UNL     1      -1.138  -5.127   1.629  0.00  0.00    -0.388 N 
ATOM      7  H   UNL     1      -1.135  -6.034   1.285  0.00  0.00    +0.157 HD
ATOM      8  H   UNL     1      -1.041  -4.970   2.582  0.00  0.00    +0.157 HD
ATOM      9  H   UNL     1      -1.554  -2.407  -1.979  0.00  0.00    +0.162 HD
ENDROOT
BRANCH   3  10
ATOM     10  C   UNL     1      -2.498  -4.976  -1.169  0.00  0.00    -0.004 A 
ATOM     11  C   UNL     1      -3.682  -4.349  -1.508  0.00  0.00    +0.007 A 
ATOM     12  C   UNL     1      -4.761  -5.096  -1.942  0.00  0.00    +0.000 A 
ATOM     13  C   UNL     1      -4.656  -6.471  -2.038  0.00  0.00    +0.001 A 
ATOM     14  C   UNL     1      -3.473  -7.099  -1.700  0.00  0.00    +0.015 A 
ATOM     15  C   UNL     1      -2.391  -6.351  -1.270  0.00  0.00    +0.023 A 
ATOM     16 BR   UNL     1      -0.769  -7.210  -0.813  0.00  0.00    -0.050 Br
ENDBRANCH   3  10
BRANCH   5  17
ATOM     17  C   UNL     1      -1.401  -2.254   2.503  0.00  0.00    +0.081 C 
ATOM     18  C   UNL     1      -2.278  -2.958   3.540  0.00  0.00    +0.025 C 
ATOM     19  C   UNL     1      -2.687  -1.587   2.996  0.00  0.00    +0.025 C 
ENDBRANCH   5  17
BRANCH   1  20
ATOM     20  C   UNL     1      -1.684  -0.549   0.009  0.00  0.00    +0.069 C 
BRANCH  20  22
ATOM     21  C   UNL     1      -0.467   1.633  -0.033  0.00  0.00    +0.004 C 
ATOM     22  C   UNL     1      -0.304   0.112  -0.039  0.00  0.00    +0.004 C 
ENDBRANCH  20  22
ENDBRANCH   1  20
TORSDOF 4
