REMARK  Name = ZINC67022177
REMARK  6 active torsions:
REMARK  status: ('A' for Active; 'I' for Inactive)
REMARK    1  A    between atoms: C_1  and  C_2
REMARK    2  A    between atoms: C_2  and  C_3
REMARK    3  A    between atoms: C_4  and  C_24
REMARK    4  A    between atoms: C_6  and  N_10
REMARK    5  A    between atoms: C_7  and  C_8
REMARK    6  A    between atoms: C_11  and  C_13
REMARK                            x       y       z     vdW  Elec       q    Type
REMARK                         _______ _______ _______ _____ _____    ______ ____
ROOT
ATOM      1  N   UNL     1       3.984  -1.480  -2.755  0.00  0.00    -0.275 N 
ATOM      2  C   UNL     1       4.326  -1.904  -3.988  0.00  0.00    +0.252 C 
ATOM      3  O   UNL     1       3.474  -2.021  -4.848  0.00  0.00    -0.270 OA
ATOM      4  H   UNL     1       4.664  -1.387  -2.068  0.00  0.00    +0.156 HD
ENDROOT
BRANCH   2   5
ATOM      5  C   UNL     1       5.732  -2.226  -4.294  0.00  0.00    +0.080 A 
ATOM      6  C   UNL     1       6.715  -2.099  -3.306  0.00  0.00    +0.017 A 
ATOM      7  C   UNL     1       8.028  -2.401  -3.595  0.00  0.00    +0.003 A 
ATOM      8  C   UNL     1       8.386  -2.832  -4.862  0.00  0.00    +0.027 A 
ATOM      9  C   UNL     1       7.425  -2.963  -5.850  0.00  0.00    +0.076 A 
ATOM     10  C   UNL     1       6.092  -2.666  -5.571  0.00  0.00    +0.154 A 
ATOM     11  O   UNL     1       5.158  -2.800  -6.546  0.00  0.00    -0.480 OA
ATOM     12  C   UNL     1       5.584  -2.538  -7.886  0.00  0.00    +0.325 C 
ATOM     13  C   UNL     1       6.896  -3.235  -8.146  0.00  0.00    +0.255 C 
ATOM     14  O   UNL     1       7.162  -3.635  -9.259  0.00  0.00    -0.272 OA
ATOM     15  N   UNL     1       7.775  -3.399  -7.136  0.00  0.00    -0.280 N 
ATOM     16  H   UNL     1       8.632  -3.824  -7.297  0.00  0.00    +0.155 HD
ENDBRANCH   2   5
BRANCH   1  20
ATOM     17  C   UNL     1       0.707  -0.490  -1.238  0.00  0.00    -0.018 A 
ATOM     18  C   UNL     1       0.050  -0.726  -2.389  0.00  0.00    -0.007 A 
ATOM     19  S   UNL     1       1.337  -1.267  -3.492  0.00  0.00    -0.077 S 
ATOM     20  C   UNL     1       2.662  -1.177  -2.467  0.00  0.00    +0.090 A 
ATOM     21  C   UNL     1       2.132  -0.726  -1.268  0.00  0.00    +0.084 A 
ATOM     22  C   UNL     1      -1.422  -0.571  -2.674  0.00  0.00    +0.052 C 
BRANCH  17  24
ATOM     23  C   UNL     1      -0.019   1.526   0.010  0.00  0.00    +0.009 C 
ATOM     24  C   UNL     1       0.002  -0.004   0.002  0.00  0.00    +0.034 C 
ENDBRANCH  17  24
BRANCH  21  25
ATOM     25  C   UNL     1       2.955  -0.509  -0.116  0.00  0.00    +0.102 C 
ATOM     26  N   UNL     1       3.608  -0.337   0.798  0.00  0.00    -0.191 NA
ENDBRANCH  21  25
ENDBRANCH   1  20
TORSDOF 4
