REMARK  Name = ZINC20919020
REMARK  9 active torsions:
REMARK  status: ('A' for Active; 'I' for Inactive)
REMARK    1  A    between atoms: C_4  and  C_7
REMARK    2  A    between atoms: C_7  and  C_8
REMARK    3  A    between atoms: C_8  and  C_29
REMARK    4  A    between atoms: N_9  and  N_10
REMARK    5  A    between atoms: C_14  and  S_17
REMARK    6  A    between atoms: N_15  and  N_16
REMARK    7  A    between atoms: S_17  and  C_18
REMARK    8  A    between atoms: C_18  and  C_19
REMARK    9  A    between atoms: C_29  and  C_30
REMARK                            x       y       z     vdW  Elec       q    Type
REMARK                         _______ _______ _______ _____ _____    ______ ____
ROOT
ATOM      1  N   UNL     1      10.423   2.943  -2.809  0.00  0.00    -0.204 N 
ATOM      2  C   UNL     1       9.235   2.882  -2.093  0.00  0.00    +0.254 A 
ATOM      3  N   UNL     1       9.123   2.869  -0.787  0.00  0.00    -0.109 NA
ATOM      4  N   UNL     1       7.760   2.802  -0.470  0.00  0.00    -0.119 NA
ATOM      5  C   UNL     1       7.084   2.777  -1.593  0.00  0.00    +0.210 A 
ATOM      6  N   UNL     1       7.978   2.820  -2.625  0.00  0.00    -0.211 N 
ATOM      7  H   UNL     1      10.402   2.949  -3.909  0.00  0.00    +0.177 HD
ENDROOT
BRANCH   6   8
ATOM      8  N   UNL     1       7.669   2.806  -3.956  0.00  0.00    -0.294 N 
ATOM      9  H   UNL     1       6.618   2.754  -4.276  0.00  0.00    +0.163 HD
ATOM     10  H   UNL     1       8.472   2.848  -4.707  0.00  0.00    +0.163 HD
ENDBRANCH   6   8
BRANCH   1  12
ATOM     11  C   UNL     1      12.743   3.053  -2.792  0.00  0.00    +0.045 C 
ATOM     12  N   UNL     1      11.648   2.997  -2.132  0.00  0.00    -0.188 NA
BRANCH  11  13
ATOM     13  C   UNL     1      12.714   3.061  -4.299  0.00  0.00    +0.088 C 
BRANCH  13  17
ATOM     14  C   UNL     1      12.497   7.092  -5.697  0.00  0.00    +0.000 A 
ATOM     15  C   UNL     1      13.727   6.497  -5.493  0.00  0.00    +0.000 A 
ATOM     16  C   UNL     1      13.798   5.192  -5.041  0.00  0.00    +0.004 A 
ATOM     17  C   UNL     1      12.638   4.483  -4.792  0.00  0.00    -0.042 A 
ATOM     18  C   UNL     1      11.407   5.077  -5.001  0.00  0.00    +0.004 A 
ATOM     19  C   UNL     1      11.336   6.383  -5.449  0.00  0.00    +0.000 A 
ENDBRANCH  13  17
ENDBRANCH  11  13
BRANCH  11  20
ATOM     20  C   UNL     1      14.061   3.111  -2.063  0.00  0.00    +0.088 C 
BRANCH  20  21
ATOM     21  C   UNL     1      14.851   1.861  -2.354  0.00  0.00    -0.042 A 
ATOM     22  C   UNL     1      14.718   0.753  -1.538  0.00  0.00    +0.004 A 
ATOM     23  C   UNL     1      15.439  -0.395  -1.808  0.00  0.00    +0.000 A 
ATOM     24  C   UNL     1      16.301  -0.432  -2.888  0.00  0.00    +0.000 A 
ATOM     25  C   UNL     1      16.438   0.678  -3.701  0.00  0.00    +0.000 A 
ATOM     26  C   UNL     1      15.713   1.824  -3.434  0.00  0.00    +0.004 A 
ENDBRANCH  20  21
ENDBRANCH  11  20
ENDBRANCH   1  12
BRANCH   5  27
ATOM     27  S   UNL     1       5.330   2.694  -1.745  0.00  0.00    -0.077 S 
BRANCH  27  28
ATOM     28  C   UNL     1       4.743   2.656  -0.029  0.00  0.00    +0.151 C 
BRANCH  28  29
ATOM     29  C   UNL     1       3.238   2.585  -0.015  0.00  0.00    +0.118 A 
ATOM     30  N   UNL     1       2.512   1.434  -0.014  0.00  0.00    -0.341 N 
ATOM     31  H   UNL     1       3.025   0.461  -0.023  0.00  0.00    +0.167 HD
ATOM     32  C   UNL     1       1.178   1.790   0.000  0.00  0.00    +0.066 A 
ATOM     33  C   UNL     1      -0.013   1.076   0.008  0.00  0.00    +0.028 A 
ATOM     34  C   UNL     1      -1.214   1.752   0.017  0.00  0.00    +0.002 A 
ATOM     35  C   UNL     1      -1.240   3.139   0.031  0.00  0.00    +0.002 A 
ATOM     36  C   UNL     1      -0.078   3.858   0.023  0.00  0.00    +0.030 A 
ATOM     37  C   UNL     1       1.151   3.194   0.008  0.00  0.00    +0.089 A 
ATOM     38  N   UNL     1       2.442   3.615  -0.002  0.00  0.00    -0.232 NA
ENDBRANCH  28  29
ENDBRANCH  27  28
ENDBRANCH   5  27
TORSDOF 9
