REMARK  Name = ZINC66239743
REMARK  9 active torsions:
REMARK  status: ('A' for Active; 'I' for Inactive)
REMARK    1  A    between atoms: C_1  and  C_2
REMARK    2  A    between atoms: C_5  and  C_28
REMARK    3  A    between atoms: C_6  and  C_8
REMARK    4  A    between atoms: C_8  and  C_10
REMARK    5  A    between atoms: C_8  and  N_11
REMARK    6  A    between atoms: C_12  and  C_14
REMARK    7  A    between atoms: C_17  and  N_20
REMARK    8  A    between atoms: C_21  and  N_27
REMARK    9  A    between atoms: C_22  and  C_25
REMARK                            x       y       z     vdW  Elec       q    Type
REMARK                         _______ _______ _______ _____ _____    ______ ____
ROOT
ATOM      1  C   UNL     1      -1.683  -1.768   5.691  0.00  0.00    +0.037 A 
ATOM      2  C   UNL     1      -1.677  -0.375   5.576  0.00  0.00    +0.015 A 
ATOM      3  C   UNL     1      -2.232   0.399   6.571  0.00  0.00    +0.028 A 
ATOM      4  C   UNL     1      -2.798  -0.204   7.689  0.00  0.00    +0.067 A 
ATOM      5  C   UNL     1      -2.805  -1.590   7.807  0.00  0.00    +0.028 A 
ATOM      6  C   UNL     1      -2.257  -2.370   6.814  0.00  0.00    +0.015 A 
ENDROOT
BRANCH   4   7
ATOM      7  N   UNL     1      -3.360   0.584   8.697  0.00  0.00    -0.218 N 
ATOM      8  C   UNL     1      -4.450   0.265   9.442  0.00  0.00    +0.137 A 
ATOM      9  C   UNL     1      -4.665   1.322  10.322  0.00  0.00    +0.111 A 
ATOM     10  C   UNL     1      -3.658   2.283  10.070  0.00  0.00    +0.155 A 
ATOM     11  N   UNL     1      -2.892   1.835   9.114  0.00  0.00    -0.172 NA
BRANCH   8  12
ATOM     12  N   UNL     1      -5.202  -0.889   9.345  0.00  0.00    -0.342 N 
ATOM     13  H   UNL     1      -4.967  -1.568   8.693  0.00  0.00    +0.144 HD
ATOM     14  H   UNL     1      -5.966  -1.021   9.928  0.00  0.00    +0.144 HD
ENDBRANCH   8  12
BRANCH   9  15
ATOM     15  C   UNL     1      -5.708   1.418  11.299  0.00  0.00    +0.104 C 
ATOM     16  N   UNL     1      -6.535   1.494  12.073  0.00  0.00    -0.191 NA
ENDBRANCH   9  15
ENDBRANCH   4   7
BRANCH   1  18
ATOM     17  N   UNL     1      -0.535  -2.018   3.545  0.00  0.00    -0.305 N 
ATOM     18  C   UNL     1      -1.089  -2.601   4.627  0.00  0.00    +0.245 C 
ATOM     19  O   UNL     1      -1.099  -3.812   4.726  0.00  0.00    -0.270 OA
ATOM     20  H   UNL     1      -0.527  -1.051   3.466  0.00  0.00    +0.150 HD
BRANCH  17  21
ATOM     21  C   UNL     1       0.054  -2.845   2.489  0.00  0.00    +0.101 C 
ATOM     22  C   UNL     1       1.497  -3.192   2.858  0.00  0.00    +0.033 C 
BRANCH  21  28
ATOM     23  C   UNL     1      -0.018   1.503   0.010  0.00  0.00    +0.044 C 
ATOM     24  C   UNL     1       0.002  -0.004   0.002  0.00  0.00    -0.050 A 
ATOM     25  C   UNL     1       0.006  -0.689  -1.199  0.00  0.00    +0.003 A 
ATOM     26  C   UNL     1       0.025  -2.071  -1.207  0.00  0.00    +0.004 A 
ATOM     27  C   UNL     1       0.040  -2.768  -0.013  0.00  0.00    -0.046 A 
ATOM     28  C   UNL     1       0.037  -2.084   1.188  0.00  0.00    -0.024 A 
ATOM     29  C   UNL     1       0.023  -0.702   1.195  0.00  0.00    +0.009 A 
ATOM     30  C   UNL     1       0.059  -4.275  -0.021  0.00  0.00    +0.044 C 
ENDBRANCH  21  28
ENDBRANCH  17  21
ENDBRANCH   1  18
TORSDOF 6
