REMARK  Name = ZINC13936148
REMARK  7 active torsions:
REMARK  status: ('A' for Active; 'I' for Inactive)
REMARK    1  A    between atoms: C_4  and  N_7
REMARK    2  A    between atoms: N_7  and  C_8
REMARK    3  A    between atoms: C_8  and  N_10
REMARK    4  A    between atoms: N_10  and  C_11
REMARK    5  A    between atoms: C_14  and  S_17
REMARK    6  A    between atoms: S_17  and  N_20
REMARK    7  A    between atoms: N_20  and  C_21
REMARK                            x       y       z     vdW  Elec       q    Type
REMARK                         _______ _______ _______ _____ _____    ______ ____
ROOT
ATOM      1  C   UNL     1       4.194   1.516   4.226  0.00  0.00    +0.033 A 
ATOM      2  C   UNL     1       2.887   1.295   4.639  0.00  0.00    +0.025 A 
ATOM      3  C   UNL     1       1.974   0.737   3.766  0.00  0.00    +0.030 A 
ATOM      4  C   UNL     1       2.360   0.399   2.482  0.00  0.00    +0.109 A 
ATOM      5  C   UNL     1       3.663   0.611   2.070  0.00  0.00    +0.030 A 
ATOM      6  C   UNL     1       4.580   1.174   2.936  0.00  0.00    +0.025 A 
ENDROOT
BRANCH   4   7
ATOM      7  S   UNL     1       1.192  -0.313   1.371  0.00  0.00    +0.072 S 
ATOM      8  O   UNL     1       0.124  -0.808   2.167  0.00  0.00    -0.150 OA
ATOM      9  O   UNL     1       1.929  -1.142   0.483  0.00  0.00    -0.150 OA
BRANCH   7  10
ATOM     10  N   UNL     1       0.569   0.922   0.459  0.00  0.00    -0.216 N 
ATOM     11  H   UNL     1       0.738   0.953  -0.495  0.00  0.00    +0.174 HD
BRANCH  10  12
ATOM     12  C   UNL     1      -0.196   1.921   1.066  0.00  0.00    +0.050 A 
ATOM     13  C   UNL     1      -1.507   1.661   1.446  0.00  0.00    +0.026 A 
ATOM     14  C   UNL     1      -2.259   2.649   2.051  0.00  0.00    +0.023 A 
ATOM     15  C   UNL     1      -1.712   3.901   2.269  0.00  0.00    +0.059 A 
ATOM     16  C   UNL     1      -0.407   4.166   1.887  0.00  0.00    +0.061 A 
ATOM     17  C   UNL     1       0.351   3.179   1.286  0.00  0.00    +0.046 A 
ATOM     18 CL   UNL     1       0.275   5.738   2.162  0.00  0.00    -0.082 Cl
ATOM     19 CL   UNL     1      -2.662   5.142   3.024  0.00  0.00    -0.082 Cl
ENDBRANCH  10  12
ENDBRANCH   7  10
ENDBRANCH   4   7
BRANCH   1  20
ATOM     20  N   UNL     1       5.122   2.081   5.108  0.00  0.00    -0.297 N 
ATOM     21  H   UNL     1       4.880   2.861   5.630  0.00  0.00    +0.154 HD
BRANCH  20  22
ATOM     22  C   UNL     1       6.350   1.541   5.231  0.00  0.00    +0.139 C 
ATOM     23  S   UNL     1       6.811   0.225   4.237  0.00  0.00    -0.018 S 
BRANCH  22  24
ATOM     24  N   UNL     1       7.216   2.037   6.137  0.00  0.00    -0.297 N 
ATOM     25  H   UNL     1       6.935   2.740   6.743  0.00  0.00    +0.154 HD
BRANCH  24  29
ATOM     26  C   UNL     1      11.102   0.547   6.335  0.00  0.00    +0.000 A 
ATOM     27  C   UNL     1      10.883   1.912   6.383  0.00  0.00    +0.002 A 
ATOM     28  C   UNL     1       9.596   2.409   6.317  0.00  0.00    +0.023 A 
ATOM     29  C   UNL     1       8.521   1.536   6.204  0.00  0.00    +0.033 A 
ATOM     30  C   UNL     1       8.744   0.166   6.162  0.00  0.00    +0.023 A 
ATOM     31  C   UNL     1      10.034  -0.324   6.223  0.00  0.00    +0.002 A 
ENDBRANCH  24  29
ENDBRANCH  22  24
ENDBRANCH  20  22
ENDBRANCH   1  20
TORSDOF 7
