REMARK  Name = ZINC43348491
REMARK  8 active torsions:
REMARK  status: ('A' for Active; 'I' for Inactive)
REMARK    1  A    between atoms: C_4  and  O_7
REMARK    2  A    between atoms: O_7  and  C_8
REMARK    3  A    between atoms: C_13  and  N_14
REMARK    4  A    between atoms: N_17  and  C_18
REMARK    5  A    between atoms: C_18  and  C_19
REMARK    6  A    between atoms: C_19  and  C_20
REMARK    7  A    between atoms: C_23  and  S_26
REMARK    8  A    between atoms: S_26  and  N_29
REMARK                            x       y       z     vdW  Elec       q    Type
REMARK                         _______ _______ _______ _____ _____    ______ ____
ROOT
ATOM      1  N   UNL     1       5.929  -1.934   0.114  0.00  0.00    -0.266 N 
ATOM      2  C   UNL     1       7.083  -2.631   0.102  0.00  0.00    +0.304 C 
ATOM      3  O   UNL     1       7.061  -3.844   0.190  0.00  0.00    -0.253 OA
ATOM      4  N   UNL     1       8.260  -1.984  -0.009  0.00  0.00    -0.299 N 
ATOM      5  H   UNL     1       5.948  -0.964   0.101  0.00  0.00    +0.156 HD
ATOM      6  H   UNL     1       8.277  -1.017  -0.079  0.00  0.00    +0.150 HD
ENDROOT
BRANCH   1  12
ATOM      7  C   UNL     1       3.596  -2.082  -0.515  0.00  0.00    +0.150 A 
ATOM      8  C   UNL     1       2.387  -2.758  -0.486  0.00  0.00    +0.048 A 
ATOM      9  C   UNL     1       2.279  -3.952   0.203  0.00  0.00    +0.004 A 
ATOM     10  C   UNL     1       3.375  -4.474   0.864  0.00  0.00    +0.002 A 
ATOM     11  C   UNL     1       4.585  -3.806   0.840  0.00  0.00    +0.027 A 
ATOM     12  C   UNL     1       4.702  -2.611   0.146  0.00  0.00    +0.077 A 
BRANCH   7  13
ATOM     13  O   UNL     1       3.703  -0.907  -1.192  0.00  0.00    -0.454 OA
BRANCH  13  17
ATOM     14  C   UNL     1       0.273   0.722  -2.803  0.00  0.00    +0.000 A 
ATOM     15  C   UNL     1       0.422   0.645  -1.430  0.00  0.00    +0.004 A 
ATOM     16  C   UNL     1       1.570   0.100  -0.888  0.00  0.00    +0.046 A 
ATOM     17  C   UNL     1       2.573  -0.371  -1.723  0.00  0.00    +0.129 A 
ATOM     18  C   UNL     1       2.421  -0.293  -3.100  0.00  0.00    +0.046 A 
ATOM     19  C   UNL     1       1.271   0.254  -3.636  0.00  0.00    +0.004 A 
ENDBRANCH  13  17
ENDBRANCH   7  13
ENDBRANCH   1  12
BRANCH   4  20
ATOM     20  C   UNL     1       9.514  -2.741  -0.022  0.00  0.00    +0.110 C 
BRANCH  20  21
ATOM     21  C   UNL     1      10.692  -1.775  -0.156  0.00  0.00    +0.054 C 
BRANCH  21  22
ATOM     22  C   UNL     1      11.982  -2.554  -0.169  0.00  0.00    -0.046 A 
ATOM     23  C   UNL     1      12.635  -2.830   1.017  0.00  0.00    +0.005 A 
ATOM     24  C   UNL     1      13.818  -3.545   1.004  0.00  0.00    +0.029 A 
ATOM     25  C   UNL     1      14.348  -3.984  -0.195  0.00  0.00    +0.105 A 
ATOM     26  C   UNL     1      13.694  -3.708  -1.381  0.00  0.00    +0.029 A 
ATOM     27  C   UNL     1      12.509  -2.997  -1.368  0.00  0.00    +0.005 A 
BRANCH  25  28
ATOM     28  S   UNL     1      15.857  -4.894  -0.211  0.00  0.00    +0.056 S 
ATOM     29  O   UNL     1      16.423  -4.719  -1.502  0.00  0.00    -0.153 OA
ATOM     30  O   UNL     1      16.552  -4.548   0.979  0.00  0.00    -0.153 OA
BRANCH  28  31
ATOM     31  N   UNL     1      15.463  -6.497  -0.080  0.00  0.00    -0.204 NA
ATOM     32  H   UNL     1      16.031  -7.171  -0.485  0.00  0.00    +0.144 HD
ATOM     33  H   UNL     1      14.664  -6.762   0.401  0.00  0.00    +0.144 HD
ENDBRANCH  28  31
ENDBRANCH  25  28
ENDBRANCH  21  22
ENDBRANCH  20  21
ENDBRANCH   4  20
TORSDOF 8
