REMARK  Name = ZINC52011833
REMARK  4 active torsions:
REMARK  status: ('A' for Active; 'I' for Inactive)
REMARK    1  A    between atoms: C_5  and  C_8
REMARK    2  A    between atoms: C_5  and  N_11
REMARK    3  A    between atoms: N_14  and  C_15
REMARK    4  A    between atoms: C_21  and  O_23
REMARK                            x       y       z     vdW  Elec       q    Type
REMARK                         _______ _______ _______ _____ _____    ______ ____
ROOT
ATOM      1  N   UNL     1       2.469  -0.548  -0.387  0.00  0.00    -0.284 N 
ATOM      2  C   UNL     1       2.115  -1.620  -1.124  0.00  0.00    +0.301 C 
ATOM      3  O   UNL     1       1.559  -2.564  -0.596  0.00  0.00    -0.253 OA
ATOM      4  N   UNL     1       2.379  -1.646  -2.445  0.00  0.00    -0.294 N 
ATOM      5  H   UNL     1       2.912   0.204  -0.808  0.00  0.00    +0.151 HD
ATOM      6  H   UNL     1       2.822  -0.893  -2.866  0.00  0.00    +0.151 HD
ENDROOT
BRANCH   1  11
ATOM      7  C   UNL     1      -0.056   1.404   0.003  0.00  0.00    +0.000 C 
ATOM      8  C   UNL     1       1.349   2.038  -0.010  0.00  0.00    +0.000 C 
ATOM      9  C   UNL     1       1.901   2.008   1.390  0.00  0.00    +0.003 C 
ATOM     10  C   UNL     1       2.776   0.767   1.651  0.00  0.00    +0.037 C 
ATOM     11  C   UNL     1       2.183  -0.521   1.050  0.00  0.00    +0.137 C 
ATOM     12  C   UNL     1       0.695  -0.618   1.252  0.00  0.00    +0.037 C 
ATOM     13  C   UNL     1      -0.008  -0.051   0.001  0.00  0.00    +0.003 C 
BRANCH  11  14
ATOM     14  C   UNL     1       2.841  -1.710   1.698  0.00  0.00    +0.379 C 
ATOM     15  O   UNL     1       2.756  -1.873   2.904  0.00  0.00    -0.244 OA
ATOM     16  O   UNL     1       3.460  -2.511   1.018  0.00  0.00    -0.244 OA
ENDBRANCH  11  14
ENDBRANCH   1  11
BRANCH   4  17
ATOM     17  C   UNL     1       1.995  -2.811  -3.246  0.00  0.00    +0.103 C 
ATOM     18  C   UNL     1       3.090  -3.875  -3.156  0.00  0.00    +0.025 C 
ATOM     19  C   UNL     1       2.689  -5.092  -3.993  0.00  0.00    +0.002 C 
ATOM     20  C   UNL     1       2.507  -4.670  -5.452  0.00  0.00    +0.003 C 
ATOM     21  C   UNL     1       1.411  -3.606  -5.542  0.00  0.00    +0.033 C 
ATOM     22  C   UNL     1       1.812  -2.389  -4.705  0.00  0.00    +0.135 C 
BRANCH  22  23
ATOM     23  O   UNL     1       0.789  -1.395  -4.789  0.00  0.00    -0.390 OA
ATOM     24  H   UNL     1       0.619  -1.081  -5.688  0.00  0.00    +0.210 HD
ENDBRANCH  22  23
ENDBRANCH   4  17
TORSDOF 4
