REMARK  Name = ZINC12542895
REMARK  11 active torsions:
REMARK  status: ('A' for Active; 'I' for Inactive)
REMARK    1  A    between atoms: C_1  and  C_2
REMARK    2  A    between atoms: C_5  and  C_9
REMARK    3  A    between atoms: C_7  and  C_8
REMARK    4  A    between atoms: C_18  and  C_21
REMARK    5  A    between atoms: C_21  and  O_23
REMARK    6  A    between atoms: O_23  and  C_24
REMARK    7  A    between atoms: C_24  and  C_26
REMARK    8  A    between atoms: C_24  and  C_27
REMARK    9  A    between atoms: N_29  and  C_30
REMARK   10  A    between atoms: C_33  and  S_36
REMARK   11  A    between atoms: S_36  and  N_39
REMARK                            x       y       z     vdW  Elec       q    Type
REMARK                         _______ _______ _______ _____ _____    ______ ____
ROOT
ATOM      1  C   UNL     1       0.067  -6.801  -2.898  0.00  0.00    +0.314 C 
ATOM      2  O   UNL     1       0.044  -6.010  -3.811  0.00  0.00    -0.250 OA
ENDROOT
BRANCH   1  10
ATOM      3  C   UNL     1       0.047  -4.278  -0.017  0.00  0.00    -0.003 C 
ATOM      4  C   UNL     1       1.313  -4.769   0.688  0.00  0.00    +0.015 C 
ATOM      5  C   UNL     1       1.342  -6.298   0.678  0.00  0.00    -0.009 C 
ATOM      6  C   UNL     1       0.109  -6.837   1.408  0.00  0.00    +0.007 C 
ATOM      7  C   UNL     1      -1.156  -6.346   0.702  0.00  0.00    -0.009 C 
ATOM      8  C   UNL     1      -1.185  -4.816   0.712  0.00  0.00    +0.015 C 
ATOM      9  C   UNL     1      -1.161  -6.846  -0.744  0.00  0.00    +0.021 C 
ATOM     10  C   UNL     1       0.072  -6.308  -1.474  0.00  0.00    +0.069 C 
ATOM     11  C   UNL     1       1.337  -6.799  -0.768  0.00  0.00    +0.021 C 
ATOM     12  C   UNL     1       0.043  -4.778  -1.463  0.00  0.00    +0.029 C 
BRANCH   3  17
ATOM     13  C   UNL     1      -0.064   1.500   0.021  0.00  0.00    +0.044 C 
ATOM     14  C   UNL     1      -0.035  -0.007   0.011  0.00  0.00    -0.048 A 
ATOM     15  C   UNL     1      -0.032  -0.690  -1.190  0.00  0.00    +0.004 A 
ATOM     16  C   UNL     1      -0.005  -2.072  -1.200  0.00  0.00    +0.004 A 
ATOM     17  C   UNL     1       0.019  -2.771  -0.007  0.00  0.00    -0.041 A 
ATOM     18  C   UNL     1       0.017  -2.088   1.194  0.00  0.00    +0.007 A 
ATOM     19  C   UNL     1      -0.005  -0.706   1.204  0.00  0.00    -0.047 A 
ATOM     20  C   UNL     1      -0.002   0.039   2.514  0.00  0.00    +0.044 C 
ENDBRANCH   3  17
ENDBRANCH   1  10
BRANCH   1  21
ATOM     21  O   UNL     1       0.090  -8.118  -3.152  0.00  0.00    -0.452 OA
BRANCH  21  22
ATOM     22  C   UNL     1       0.084  -8.515  -4.525  0.00  0.00    +0.259 C 
ATOM     23  C   UNL     1       1.524  -8.629  -5.029  0.00  0.00    +0.062 C 
BRANCH  22  24
ATOM     24  C   UNL     1      -0.603  -9.849  -4.660  0.00  0.00    +0.258 C 
ATOM     25  O   UNL     1      -1.044 -10.406  -3.677  0.00  0.00    -0.271 OA
ATOM     26  N   UNL     1      -0.727 -10.424  -5.873  0.00  0.00    -0.282 N 
ATOM     27  H   UNL     1      -0.435  -9.949  -6.666  0.00  0.00    +0.155 HD
BRANCH  26  28
ATOM     28  C   UNL     1      -1.277 -11.705  -5.987  0.00  0.00    +0.034 A 
ATOM     29  C   UNL     1      -0.798 -12.585  -6.949  0.00  0.00    +0.025 A 
ATOM     30  C   UNL     1      -1.343 -13.849  -7.059  0.00  0.00    +0.030 A 
ATOM     31  C   UNL     1      -2.364 -14.239  -6.213  0.00  0.00    +0.105 A 
ATOM     32  C   UNL     1      -2.844 -13.366  -5.254  0.00  0.00    +0.030 A 
ATOM     33  C   UNL     1      -2.299 -12.102  -5.135  0.00  0.00    +0.025 A 
BRANCH  31  34
ATOM     34  S   UNL     1      -3.057 -15.853  -6.357  0.00  0.00    +0.056 S 
ATOM     35  O   UNL     1      -4.367 -15.783  -5.811  0.00  0.00    -0.153 OA
ATOM     36  O   UNL     1      -2.808 -16.285  -7.687  0.00  0.00    -0.153 OA
BRANCH  34  37
ATOM     37  N   UNL     1      -2.184 -16.851  -5.364  0.00  0.00    -0.204 NA
ATOM     38  H   UNL     1      -2.609 -17.620  -4.954  0.00  0.00    +0.144 HD
ATOM     39  H   UNL     1      -1.247 -16.666  -5.193  0.00  0.00    +0.144 HD
ENDBRANCH  34  37
ENDBRANCH  31  34
ENDBRANCH  26  28
ENDBRANCH  22  24
ENDBRANCH  21  22
ENDBRANCH   1  21
TORSDOF 8
