REMARK  Name = ZINC35986578
REMARK  1 active torsions:
REMARK  status: ('A' for Active; 'I' for Inactive)
REMARK    1  A    between atoms: N_9  and  P_10
REMARK                            x       y       z     vdW  Elec       q    Type
REMARK                         _______ _______ _______ _____ _____    ______ ____
ROOT
ATOM      1  C   UNL     1      -0.016   1.316   0.009  0.00  0.00    +0.092 A 
ATOM      2  C   UNL     1       1.183   1.949   0.001  0.00  0.00    +0.066 A 
ATOM      3  S   UNL     1       2.296   0.553  -0.017  0.00  0.00    -0.062 S 
ATOM      4  C   UNL     1       1.137  -0.668  -0.012  0.00  0.00    +0.143 A 
ATOM      5  N   UNL     1       0.002  -0.004   0.002  0.00  0.00    -0.343 N 
ATOM      6  N   UNL     1       1.333  -2.045  -0.022  0.00  0.00    -0.250 N 
ATOM      7  C   UNL     1       2.583  -2.547  -0.037  0.00  0.00    +0.314 C 
ATOM      8  O   UNL     1       3.540  -1.798  -0.041  0.00  0.00    -0.252 OA
ATOM      9  N   UNL     1       2.773  -3.882  -0.046  0.00  0.00    -0.203 N 
ATOM     10  H   UNL     1       2.009  -4.480  -0.042  0.00  0.00    +0.162 HD
ATOM     11  H   UNL     1      -0.836  -0.492   0.007  0.00  0.00    +0.167 HD
ATOM     12  H   UNL     1       0.569  -2.643  -0.018  0.00  0.00    +0.158 HD
ENDROOT
BRANCH   9  13
ATOM     13  P   UNL     1       4.294  -4.494  -0.064  0.00  0.00    +0.484 P 
ATOM     14  O   UNL     1       4.999  -4.102  -1.407  0.00  0.00    -0.232 OA
ATOM     15  O   UNL     1       5.106  -3.910   1.142  0.00  0.00    -0.122 OA
ATOM     16  O   UNL     1       4.231  -6.055   0.057  0.00  0.00    -0.122 OA
ENDBRANCH   9  13
TORSDOF 1
