REMARK  Name = ZINC05036970
REMARK  4 active torsions:
REMARK  status: ('A' for Active; 'I' for Inactive)
REMARK    1  A    between atoms: N_10  and  C_13
REMARK    2  A    between atoms: N_11  and  O_12
REMARK    3  A    between atoms: C_16  and  S_19
REMARK    4  A    between atoms: S_19  and  N_22
REMARK                            x       y       z     vdW  Elec       q    Type
REMARK                         _______ _______ _______ _____ _____    ______ ____
ROOT
ATOM      1  C   UNL     1      -4.993   5.328   8.819  0.00  0.00    +0.002 A 
ATOM      2  C   UNL     1      -4.008   6.176   8.348  0.00  0.00    +0.002 A 
ATOM      3  C   UNL     1      -3.271   5.833   7.228  0.00  0.00    +0.031 A 
ATOM      4  C   UNL     1      -3.521   4.636   6.580  0.00  0.00    +0.108 A 
ATOM      5  C   UNL     1      -4.515   3.779   7.055  0.00  0.00    +0.062 A 
ATOM      6  C   UNL     1      -5.249   4.130   8.176  0.00  0.00    +0.025 A 
ATOM      7  N   UNL     1      -4.758   2.571   6.388  0.00  0.00    -0.266 N 
ATOM      8  C   UNL     1      -4.045   2.240   5.297  0.00  0.00    +0.331 C 
ATOM      9  O   UNL     1      -4.277   1.189   4.732  0.00  0.00    -0.250 OA
ATOM     10  N   UNL     1      -3.078   3.043   4.819  0.00  0.00    -0.140 N 
ATOM     11  N   UNL     1      -2.790   4.265   5.445  0.00  0.00    -0.157 N 
ATOM     12  H   UNL     1      -5.448   1.972   6.714  0.00  0.00    +0.157 HD
ENDROOT
BRANCH  10  13
ATOM     13  C   UNL     1      -2.355   2.659   3.684  0.00  0.00    +0.062 A 
ATOM     14  C   UNL     1      -1.789   1.394   3.615  0.00  0.00    +0.027 A 
ATOM     15  C   UNL     1      -1.076   1.018   2.493  0.00  0.00    +0.030 A 
ATOM     16  C   UNL     1      -0.927   1.901   1.439  0.00  0.00    +0.105 A 
ATOM     17  C   UNL     1      -1.485   3.164   1.507  0.00  0.00    +0.030 A 
ATOM     18  C   UNL     1      -2.203   3.544   2.624  0.00  0.00    +0.027 A 
BRANCH  16  19
ATOM     19  S   UNL     1      -0.017   1.417   0.010  0.00  0.00    +0.056 S 
ATOM     20  O   UNL     1       0.870   0.386   0.422  0.00  0.00    -0.153 OA
ATOM     21  O   UNL     1       0.440   2.614  -0.605  0.00  0.00    -0.153 OA
BRANCH  19  22
ATOM     22  N   UNL     1      -1.091   0.725  -1.043  0.00  0.00    -0.204 NA
ATOM     23  H   UNL     1      -0.969  -0.195  -1.325  0.00  0.00    +0.144 HD
ATOM     24  H   UNL     1      -1.843   1.239  -1.377  0.00  0.00    +0.144 HD
ENDBRANCH  19  22
ENDBRANCH  16  19
ENDBRANCH  10  13
BRANCH  11  25
ATOM     25  O   UNL     1      -1.775   5.111   4.937  0.00  0.00    -0.268 OA
ATOM     26  H   UNL     1      -1.656   5.929   5.439  0.00  0.00    +0.246 HD
ENDBRANCH  11  25
TORSDOF 4
