REMARK  Name = ZINC26919609
REMARK  9 active torsions:
REMARK  status: ('A' for Active; 'I' for Inactive)
REMARK    1  A    between atoms: C_1  and  C_2
REMARK    2  A    between atoms: C_2  and  C_3
REMARK    3  A    between atoms: C_2  and  C_4
REMARK    4  A    between atoms: C_7  and  C_10
REMARK    5  A    between atoms: C_12  and  C_24
REMARK    6  A    between atoms: C_14  and  C_19
REMARK    7  A    between atoms: C_14  and  O_23
REMARK    8  A    between atoms: C_24  and  S_26
REMARK    9  A    between atoms: S_26  and  C_27
REMARK                            x       y       z     vdW  Elec       q    Type
REMARK                         _______ _______ _______ _____ _____    ______ ____
ROOT
ATOM      1  C   UNL     1      -1.020   1.707   5.535  0.00  0.00    +0.120 C 
ATOM      2  C   UNL     1      -1.277   3.057   6.215  0.00  0.00    +0.150 C 
ATOM      3  C   UNL     1      -2.694   3.520   5.860  0.00  0.00    +0.244 C 
ATOM      4  N   UNL     1      -2.838   3.556   4.404  0.00  0.00    -0.264 N 
ATOM      5  C   UNL     1      -2.133   2.733   3.613  0.00  0.00    +0.302 C 
ATOM      6  O   UNL     1      -2.298   2.797   2.410  0.00  0.00    -0.253 OA
ATOM      7  N   UNL     1      -1.255   1.842   4.096  0.00  0.00    -0.292 N 
ATOM      8  H   UNL     1      -3.534   4.268   3.937  0.00  0.00    +0.153 HD
ATOM      9  H   UNL     1      -0.705   1.206   3.387  0.00  0.00    +0.151 HD
ENDROOT
BRANCH   1  13
ATOM     10  C   UNL     1       3.023   0.512   6.219  0.00  0.00    -0.045 A 
ATOM     11  C   UNL     1       2.015   0.039   7.037  0.00  0.00    +0.004 A 
ATOM     12  C   UNL     1       0.707   0.429   6.819  0.00  0.00    +0.006 A 
ATOM     13  C   UNL     1       0.406   1.285   5.776  0.00  0.00    -0.026 A 
ATOM     14  C   UNL     1       1.414   1.754   4.954  0.00  0.00    +0.006 A 
ATOM     15  C   UNL     1       2.722   1.368   5.175  0.00  0.00    +0.004 A 
BRANCH  10  17
ATOM     16  C   UNL     1       4.558  -1.431   6.347  0.00  0.00    +0.012 C 
ATOM     17  C   UNL     1       4.450   0.091   6.460  0.00  0.00    +0.013 C 
ATOM     18  C   UNL     1       4.881   0.530   7.861  0.00  0.00    +0.012 C 
ENDBRANCH  10  17
ENDBRANCH   1  13
BRANCH   3  19
ATOM     19  C   UNL     1      -3.713   2.543   6.450  0.00  0.00    +0.436 C 
ATOM     20  F   UNL     1      -3.583   1.298   5.825  0.00  0.00    -0.166 F 
ATOM     21  F   UNL     1      -3.483   2.401   7.823  0.00  0.00    -0.166 F 
ATOM     22  F   UNL     1      -5.006   3.036   6.243  0.00  0.00    -0.166 F 
ENDBRANCH   3  19
BRANCH   3  23
ATOM     23  O   UNL     1      -2.920   4.826   6.395  0.00  0.00    -0.364 OA
ATOM     24  H   UNL     1      -3.888   5.324   6.240  0.00  0.00    +0.212 HD
ENDBRANCH   3  23
BRANCH   2  25
ATOM     25  C   UNL     1      -0.275   4.070   5.723  0.00  0.00    +0.199 C 
ATOM     26  O   UNL     1      -0.293   4.426   4.563  0.00  0.00    -0.285 OA
BRANCH  25  27
ATOM     27  S   UNL     1       0.887   4.717   6.800  0.00  0.00    -0.091 S 
ATOM     28  C   UNL     1       1.770   5.830   5.678  0.00  0.00    +0.093 C 
ENDBRANCH  25  27
ENDBRANCH   2  25
TORSDOF 6
