REMARK  Name = ZINC09541948
REMARK  7 active torsions:
REMARK  status: ('A' for Active; 'I' for Inactive)
REMARK    1  A    between atoms: C_6  and  C_7
REMARK    2  A    between atoms: C_9  and  C_13
REMARK    3  A    between atoms: C_16  and  S_19
REMARK    4  A    between atoms: N_17  and  N_18
REMARK    5  A    between atoms: S_19  and  C_20
REMARK    6  A    between atoms: C_20  and  C_21
REMARK    7  A    between atoms: N_23  and  C_24
REMARK                            x       y       z     vdW  Elec       q    Type
REMARK                         _______ _______ _______ _____ _____    ______ ____
ROOT
ATOM      1  C   UNL     1      -3.316  -3.818   0.000  0.00  0.00    +0.199 A 
ATOM      2  N   UNL     1      -2.693  -4.941  -0.279  0.00  0.00    -0.125 NA
ATOM      3  N   UNL     1      -3.505  -5.931  -0.175  0.00  0.00    -0.120 NA
ATOM      4  C   UNL     1      -4.697  -5.503   0.177  0.00  0.00    +0.209 A 
ATOM      5  N   UNL     1      -4.619  -4.146   0.306  0.00  0.00    -0.223 N 
ENDROOT
BRANCH   1   8
ATOM      6  C   UNL     1      -1.279  -0.763  -0.026  0.00  0.00    +0.093 A 
ATOM      7  C   UNL     1      -1.399  -2.162  -0.026  0.00  0.00    +0.061 A 
ATOM      8  C   UNL     1      -2.731  -2.466  -0.007  0.00  0.00    +0.105 A 
ATOM      9  N   UNL     1      -3.421  -1.288   0.005  0.00  0.00    -0.273 N 
ATOM     10  H   UNL     1      -4.386  -1.191   0.021  0.00  0.00    +0.189 HD
ATOM     11  N   UNL     1      -2.488  -0.243  -0.002  0.00  0.00    -0.173 NA
BRANCH   6  17
ATOM     12  C   UNL     1      -0.025   1.393  -0.036  0.00  0.00    +0.011 A 
ATOM     13  C   UNL     1       1.161   2.098  -0.052  0.00  0.00    +0.020 A 
ATOM     14  C   UNL     1       2.369   1.423  -0.077  0.00  0.00    +0.041 A 
ATOM     15  C   UNL     1       2.394   0.039  -0.085  0.00  0.00    +0.020 A 
ATOM     16  C   UNL     1       1.213  -0.675  -0.069  0.00  0.00    +0.011 A 
ATOM     17  C   UNL     1      -0.005   0.000  -0.044  0.00  0.00    +0.002 A 
ATOM     18 CL   UNL     1       3.859   2.315  -0.099  0.00  0.00    -0.084 Cl
ENDBRANCH   6  17
ENDBRANCH   1   8
BRANCH   5  19
ATOM     19  N   UNL     1      -5.623  -3.291   0.661  0.00  0.00    -0.295 N 
ATOM     20  H   UNL     1      -6.126  -2.967  -0.151  0.00  0.00    +0.163 HD
ATOM     21  H   UNL     1      -6.248  -3.723   1.325  0.00  0.00    +0.163 HD
ENDBRANCH   5  19
BRANCH   4  22
ATOM     22  S   UNL     1      -6.128  -6.497   0.439  0.00  0.00    -0.075 S 
BRANCH  22  23
ATOM     23  C   UNL     1      -5.556  -8.187   0.113  0.00  0.00    +0.173 C 
BRANCH  23  24
ATOM     24  C   UNL     1      -6.699  -9.150   0.304  0.00  0.00    +0.227 C 
ATOM     25  O   UNL     1      -7.792  -8.738   0.629  0.00  0.00    -0.275 OA
ATOM     26  N   UNL     1      -6.506 -10.471   0.115  0.00  0.00    -0.285 N 
ATOM     27  H   UNL     1      -5.651 -10.794  -0.209  0.00  0.00    +0.155 HD
BRANCH  26  28
ATOM     28  C   UNL     1      -7.539 -11.375   0.386  0.00  0.00    +0.033 A 
ATOM     29  C   UNL     1      -7.248 -12.629   0.907  0.00  0.00    +0.024 A 
ATOM     30  C   UNL     1      -8.269 -13.519   1.174  0.00  0.00    +0.017 A 
ATOM     31  C   UNL     1      -9.582 -13.162   0.922  0.00  0.00    +0.018 A 
ATOM     32  C   UNL     1      -9.876 -11.914   0.403  0.00  0.00    +0.017 A 
ATOM     33  C   UNL     1      -8.858 -11.018   0.139  0.00  0.00    +0.024 A 
ATOM     34 BR   UNL     1     -10.979 -14.384   1.289  0.00  0.00    -0.050 Br
ENDBRANCH  26  28
ENDBRANCH  23  24
ENDBRANCH  22  23
ENDBRANCH   4  22
TORSDOF 7
