REMARK  Name = ZINC67017994
REMARK  5 active torsions:
REMARK  status: ('A' for Active; 'I' for Inactive)
REMARK    1  A    between atoms: C_3  and  N_13
REMARK    2  A    between atoms: C_5  and  N_7
REMARK    3  A    between atoms: N_16  and  C_17
REMARK    4  A    between atoms: C_17  and  C_18
REMARK    5  A    between atoms: C_18  and  C_21
REMARK                            x       y       z     vdW  Elec       q    Type
REMARK                         _______ _______ _______ _____ _____    ______ ____
ROOT
ATOM      1  N   UNL     1       4.264   1.581  -0.406  0.00  0.00    -0.269 N 
ATOM      2  C   UNL     1       4.068   2.914  -0.376  0.00  0.00    +0.304 C 
ATOM      3  O   UNL     1       2.939   3.361  -0.308  0.00  0.00    -0.253 OA
ATOM      4  N   UNL     1       5.123   3.751  -0.420  0.00  0.00    -0.298 N 
ATOM      5  H   UNL     1       5.165   1.222  -0.383  0.00  0.00    +0.156 HD
ATOM      6  H   UNL     1       6.024   3.394  -0.474  0.00  0.00    +0.150 HD
ENDROOT
BRANCH   1   9
ATOM      7  C   UNL     1       0.942   0.231  -1.228  0.00  0.00    +0.004 A 
ATOM      8  C   UNL     1       2.025   1.087  -1.165  0.00  0.00    +0.023 A 
ATOM      9  C   UNL     1       3.167   0.713  -0.469  0.00  0.00    +0.037 A 
ATOM     10  C   UNL     1       3.220  -0.521   0.163  0.00  0.00    +0.047 A 
ATOM     11  C   UNL     1       2.131  -1.378   0.098  0.00  0.00    +0.040 A 
ATOM     12  C   UNL     1       0.992  -0.998  -0.600  0.00  0.00    +0.024 A 
BRANCH  11  13
ATOM     13  N   UNL     1       2.181  -2.623   0.734  0.00  0.00    -0.254 N 
ATOM     14  C   UNL     1       1.154  -3.671   0.637  0.00  0.00    +0.134 C 
ATOM     15  C   UNL     1       1.704  -4.810   1.517  0.00  0.00    +0.125 C 
ATOM     16  N   UNL     1       2.983  -4.283   2.016  0.00  0.00    -0.297 N 
ATOM     17  C   UNL     1       3.175  -3.053   1.523  0.00  0.00    +0.307 C 
ATOM     18  O   UNL     1       4.160  -2.385   1.772  0.00  0.00    -0.252 OA
ATOM     19  H   UNL     1       3.593  -4.754   2.605  0.00  0.00    +0.150 HD
ENDBRANCH  11  13
ENDBRANCH   1   9
BRANCH   4  20
ATOM     20  C   UNL     1       4.910   5.200  -0.388  0.00  0.00    +0.117 C 
BRANCH  20  21
ATOM     21  C   UNL     1       6.263   5.913  -0.338  0.00  0.00    +0.011 C 
ATOM     22  C   UNL     1       6.475   7.093  -1.289  0.00  0.00    +0.014 C 
ATOM     23  C   UNL     1       7.186   5.763  -1.549  0.00  0.00    +0.014 C 
BRANCH  21  24
ATOM     24  C   UNL     1       6.907   5.991   1.022  0.00  0.00    -0.040 A 
ATOM     25  C   UNL     1       6.316   6.737   2.025  0.00  0.00    +0.005 A 
ATOM     26  C   UNL     1       6.906   6.809   3.273  0.00  0.00    +0.020 A 
ATOM     27  C   UNL     1       8.088   6.134   3.518  0.00  0.00    +0.041 A 
ATOM     28  C   UNL     1       8.680   5.387   2.514  0.00  0.00    +0.020 A 
ATOM     29  C   UNL     1       8.085   5.312   1.268  0.00  0.00    +0.005 A 
ATOM     30 CL   UNL     1       8.831   6.224   5.085  0.00  0.00    -0.084 Cl
ENDBRANCH  21  24
ENDBRANCH  20  21
ENDBRANCH   4  20
TORSDOF 5
