REMARK  Name = ZINC01684459
REMARK  7 active torsions:
REMARK  status: ('A' for Active; 'I' for Inactive)
REMARK    1  A    between atoms: C_5  and  C_10
REMARK    2  A    between atoms: C_6  and  O_9
REMARK    3  A    between atoms: N_11  and  N_12
REMARK    4  A    between atoms: C_13  and  C_15
REMARK    5  A    between atoms: N_17  and  N_18
REMARK    6  A    between atoms: C_19  and  C_20
REMARK    7  A    between atoms: C_21  and  O_30
REMARK                            x       y       z     vdW  Elec       q    Type
REMARK                         _______ _______ _______ _____ _____    ______ ____
ROOT
ATOM      1  N   UNL     1       4.954  -4.144  -0.067  0.00  0.00    -0.199 N 
ATOM      2  C   UNL     1       6.149  -4.767  -0.082  0.00  0.00    +0.320 C 
ATOM      3  O   UNL     1       7.175  -4.115  -0.088  0.00  0.00    -0.263 OA
ATOM      4  H   UNL     1       4.136  -4.665  -0.061  0.00  0.00    +0.178 HD
ENDROOT
BRANCH   2   5
ATOM      5  C   UNL     1       6.213  -6.254  -0.090  0.00  0.00    +0.320 C 
ATOM      6  O   UNL     1       5.188  -6.906  -0.083  0.00  0.00    -0.263 OA
ATOM      7  N   UNL     1       7.408  -6.878  -0.105  0.00  0.00    -0.199 N 
ATOM      8  H   UNL     1       8.226  -6.357  -0.110  0.00  0.00    +0.178 HD
BRANCH   7   9
ATOM      9  N   UNL     1       7.468  -8.277  -0.112  0.00  0.00    -0.187 NA
ATOM     10  C   UNL     1       8.621  -8.879  -0.127  0.00  0.00    +0.142 C 
BRANCH  10  11
ATOM     11  C   UNL     1       8.684 -10.346  -0.135  0.00  0.00    +0.044 A 
ATOM     12  C   UNL     1       7.516 -11.110  -0.133  0.00  0.00    +0.126 A 
ATOM     13  C   UNL     1       7.583 -12.502  -0.140  0.00  0.00    +0.046 A 
ATOM     14  C   UNL     1       8.772 -13.162  -0.149  0.00  0.00    +0.012 A 
ATOM     15  C   UNL     1       9.987 -12.455  -0.152  0.00  0.00    -0.017 A 
ATOM     16  C   UNL     1       9.972 -11.039  -0.151  0.00  0.00    -0.006 A 
ATOM     17  C   UNL     1      11.180 -10.333  -0.159  0.00  0.00    +0.009 A 
ATOM     18  C   UNL     1      12.360 -11.017  -0.173  0.00  0.00    +0.001 A 
ATOM     19  C   UNL     1      12.379 -12.409  -0.180  0.00  0.00    +0.001 A 
ATOM     20  C   UNL     1      11.222 -13.127  -0.161  0.00  0.00    +0.008 A 
BRANCH  12  21
ATOM     21  O   UNL     1       6.307 -10.493  -0.124  0.00  0.00    -0.506 OA
ATOM     22  H   UNL     1       5.952 -10.310  -1.004  0.00  0.00    +0.292 HD
ENDBRANCH  12  21
ENDBRANCH  10  11
ENDBRANCH   7   9
ENDBRANCH   2   5
BRANCH   1  24
ATOM     23  C   UNL     1       3.741  -2.142  -0.045  0.00  0.00    +0.142 C 
ATOM     24  N   UNL     1       4.894  -2.744  -0.059  0.00  0.00    -0.187 NA
BRANCH  23  29
ATOM     25  C   UNL     1      -0.017   1.388   0.010  0.00  0.00    +0.001 A 
ATOM     26  C   UNL     1       1.141   2.105   0.003  0.00  0.00    +0.008 A 
ATOM     27  C   UNL     1       2.375   1.433  -0.013  0.00  0.00    -0.017 A 
ATOM     28  C   UNL     1       2.390   0.017  -0.021  0.00  0.00    -0.006 A 
ATOM     29  C   UNL     1       3.678  -0.675  -0.037  0.00  0.00    +0.044 A 
ATOM     30  C   UNL     1       4.846   0.088  -0.044  0.00  0.00    +0.126 A 
ATOM     31  C   UNL     1       4.779   1.481  -0.035  0.00  0.00    +0.046 A 
ATOM     32  C   UNL     1       3.590   2.140  -0.021  0.00  0.00    +0.012 A 
ATOM     33  C   UNL     1       1.181  -0.688  -0.013  0.00  0.00    +0.009 A 
ATOM     34  C   UNL     1       0.002  -0.004   0.002  0.00  0.00    +0.001 A 
BRANCH  30  35
ATOM     35  O   UNL     1       6.055  -0.528  -0.059  0.00  0.00    -0.506 OA
ATOM     36  H   UNL     1       6.397  -0.702  -0.947  0.00  0.00    +0.292 HD
ENDBRANCH  30  35
ENDBRANCH  23  29
ENDBRANCH   1  24
TORSDOF 7
