REMARK  Name = ZINC09695097
REMARK  7 active torsions:
REMARK  status: ('A' for Active; 'I' for Inactive)
REMARK    1  A    between atoms: C_3  and  C_8
REMARK    2  A    between atoms: C_11  and  S_14
REMARK    3  A    between atoms: N_12  and  N_13
REMARK    4  A    between atoms: S_14  and  C_15
REMARK    5  A    between atoms: C_15  and  C_16
REMARK    6  A    between atoms: C_16  and  C_17
REMARK    7  A    between atoms: N_19  and  C_20
REMARK                            x       y       z     vdW  Elec       q    Type
REMARK                         _______ _______ _______ _____ _____    ______ ____
ROOT
ATOM      1  C   UNL     1       7.875   4.862  -0.280  0.00  0.00    +0.086 C 
ENDROOT
BRANCH   1   2
ATOM      2  S   UNL     1       9.665   4.597  -0.287  0.00  0.00    -0.084 S 
BRANCH   2   6
ATOM      3  C   UNL     1      11.457   8.031  -0.799  0.00  0.00    +0.182 A 
ATOM      4  N   UNL     1      10.188   8.364  -0.814  0.00  0.00    -0.127 NA
ATOM      5  N   UNL     1       9.458   7.317  -0.659  0.00  0.00    -0.121 NA
ATOM      6  C   UNL     1      10.218   6.253  -0.526  0.00  0.00    +0.209 A 
ATOM      7  N   UNL     1      11.516   6.669  -0.613  0.00  0.00    -0.224 N 
BRANCH   3  10
ATOM      8  C   UNL     1      13.514  11.171  -0.920  0.00  0.00    +0.002 A 
ATOM      9  C   UNL     1      12.437  10.321  -0.777  0.00  0.00    +0.012 A 
ATOM     10  C   UNL     1      12.608   8.947  -0.951  0.00  0.00    +0.022 A 
ATOM     11  C   UNL     1      13.870   8.441  -1.264  0.00  0.00    +0.027 A 
ATOM     12  C   UNL     1      14.939   9.302  -1.409  0.00  0.00    +0.019 A 
ATOM     13  C   UNL     1      14.762  10.665  -1.235  0.00  0.00    +0.015 A 
ATOM     14 BR   UNL     1      16.649   8.620  -1.840  0.00  0.00    -0.050 Br
ENDBRANCH   3  10
BRANCH   7  15
ATOM     15  N   UNL     1      12.638   5.894  -0.534  0.00  0.00    -0.295 N 
ATOM     16  H   UNL     1      12.967   5.639  -1.453  0.00  0.00    +0.163 HD
ATOM     17  H   UNL     1      13.362   6.360  -0.008  0.00  0.00    +0.163 HD
ENDBRANCH   7  15
ENDBRANCH   2   6
ENDBRANCH   1   2
BRANCH   1  18
ATOM     18  C   UNL     1       7.162   3.522  -0.080  0.00  0.00    +0.107 C 
BRANCH  18  19
ATOM     19  C   UNL     1       5.671   3.743  -0.075  0.00  0.00    +0.218 C 
ATOM     20  O   UNL     1       5.223   4.861  -0.217  0.00  0.00    -0.275 OA
ATOM     21  N   UNL     1       4.836   2.697   0.088  0.00  0.00    -0.285 N 
ATOM     22  H   UNL     1       5.194   1.814   0.269  0.00  0.00    +0.155 HD
BRANCH  21  23
ATOM     23  C   UNL     1       3.458   2.885  -0.005  0.00  0.00    +0.034 A 
ATOM     24  C   UNL     1       2.887   4.064   0.461  0.00  0.00    +0.024 A 
ATOM     25  C   UNL     1       1.522   4.262   0.375  0.00  0.00    +0.015 A 
ATOM     26  C   UNL     1       0.715   3.278  -0.180  0.00  0.00    +0.049 A 
ATOM     27  C   UNL     1       1.290   2.080  -0.653  0.00  0.00    +0.051 A 
ATOM     28  C   UNL     1       2.657   1.889  -0.564  0.00  0.00    +0.037 A 
ATOM     29  C   UNL     1       0.167   1.269  -1.170  0.00  0.00    +0.251 C 
ATOM     30  O   UNL     1       0.259   0.163  -1.664  0.00  0.00    -0.270 OA
ATOM     31  N   UNL     1      -0.973   1.964  -1.006  0.00  0.00    -0.248 N 
ATOM     32  C   UNL     1      -0.735   3.154  -0.425  0.00  0.00    +0.251 C 
ATOM     33  O   UNL     1      -1.574   3.989  -0.152  0.00  0.00    -0.270 OA
ATOM     34  H   UNL     1      -1.851   1.648  -1.270  0.00  0.00    +0.158 HD
ENDBRANCH  21  23
ENDBRANCH  18  19
ENDBRANCH   1  18
TORSDOF 7
