REMARK  Name = ZINC39838735
REMARK  11 active torsions:
REMARK  status: ('A' for Active; 'I' for Inactive)
REMARK    1  A    between atoms: C_1  and  C_2
REMARK    2  A    between atoms: C_2  and  C_3
REMARK    3  A    between atoms: C_3  and  C_4
REMARK    4  A    between atoms: C_10  and  C_27
REMARK    5  A    between atoms: C_17  and  C_26
REMARK    6  A    between atoms: C_18  and  C_25
REMARK    7  A    between atoms: C_30  and  O_35
REMARK    8  A    between atoms: C_31  and  O_33
REMARK    9  A    between atoms: O_33  and  C_34
REMARK   10  A    between atoms: O_35  and  C_36
REMARK   11  A    between atoms: C_36  and  C_37
REMARK                            x       y       z     vdW  Elec       q    Type
REMARK                         _______ _______ _______ _____ _____    ______ ____
ROOT
ATOM      1  C   UNL     1      -1.413  -2.041   0.005  0.00  0.00    +0.104 A 
ATOM      2  N   UNL     1      -1.398  -2.893   1.010  0.00  0.00    -0.145 NA
ATOM      3  N   UNL     1      -1.382  -4.142   0.832  0.00  0.00    -0.125 NA
ATOM      4  C   UNL     1      -1.379  -4.675  -0.383  0.00  0.00    +0.191 A 
ATOM      5  S   UNL     1      -1.410  -3.184  -1.374  0.00  0.00    -0.035 S 
ATOM      6  N   UNL     1      -1.363  -6.007  -0.773  0.00  0.00    -0.230 N 
ATOM      7  C   UNL     1      -1.351  -7.172   0.126  0.00  0.00    +0.152 C 
ATOM      8  C   UNL     1      -1.333  -8.372  -0.763  0.00  0.00    +0.072 A 
ATOM      9  C   UNL     1      -1.305  -9.805  -0.451  0.00  0.00    +0.199 A 
ATOM     10  O   UNL     1      -1.469 -10.247   0.672  0.00  0.00    -0.287 OA
ATOM     11  C   UNL     1      -1.060 -10.666  -1.636  0.00  0.00    +0.065 A 
ATOM     12  C   UNL     1      -0.808 -12.029  -1.478  0.00  0.00    +0.019 A 
ATOM     13  C   UNL     1      -0.579 -12.807  -2.578  0.00  0.00    -0.047 A 
ATOM     14  C   UNL     1      -0.595 -12.246  -3.848  0.00  0.00    -0.044 A 
ATOM     15  C   UNL     1      -0.843 -10.903  -4.021  0.00  0.00    +0.050 A 
ATOM     16  C   UNL     1      -1.083 -10.088  -2.915  0.00  0.00    +0.140 A 
ATOM     17  O   UNL     1      -1.334  -8.773  -3.110  0.00  0.00    -0.450 OA
ATOM     18  C   UNL     1      -1.340  -7.933  -2.056  0.00  0.00    +0.199 A 
ATOM     19  C   UNL     1      -1.362  -6.460  -2.044  0.00  0.00    +0.289 C 
ATOM     20  O   UNL     1      -1.375  -5.756  -3.034  0.00  0.00    -0.266 OA
ATOM     21  C   UNL     1      -0.337 -13.117  -5.050  0.00  0.00    +0.044 C 
ATOM     22  C   UNL     1      -0.306 -14.280  -2.412  0.00  0.00    +0.044 C 
ENDROOT
BRANCH   7  23
ATOM     23  C   UNL     1      -0.118  -7.147   0.993  0.00  0.00    -0.018 A 
ATOM     24  C   UNL     1       1.089  -6.727   0.464  0.00  0.00    +0.009 A 
ATOM     25  C   UNL     1       2.222  -6.702   1.255  0.00  0.00    +0.050 A 
ATOM     26  C   UNL     1       2.150  -7.097   2.581  0.00  0.00    +0.162 A 
ATOM     27  C   UNL     1       0.936  -7.519   3.114  0.00  0.00    +0.162 A 
ATOM     28  C   UNL     1      -0.197  -7.537   2.317  0.00  0.00    +0.055 A 
BRANCH  27  29
ATOM     29  O   UNL     1       0.861  -7.908   4.414  0.00  0.00    -0.491 OA
ATOM     30  C   UNL     1      -0.418  -8.329   4.893  0.00  0.00    +0.277 C 
ENDBRANCH  27  29
BRANCH  26  31
ATOM     31  O   UNL     1       3.265  -7.073   3.360  0.00  0.00    -0.484 OA
BRANCH  31  32
ATOM     32  C   UNL     1       4.476  -6.629   2.747  0.00  0.00    +0.256 C 
BRANCH  32  33
ATOM     33  C   UNL     1       5.595  -6.670   3.756  0.00  0.00    +0.006 C 
ATOM     34  C   UNL     1       6.759  -7.170   3.423  0.00  0.00    +0.007 C 
ENDBRANCH  32  33
ENDBRANCH  31  32
ENDBRANCH  26  31
ENDBRANCH   7  23
BRANCH   1  35
ATOM     35  C   UNL     1      -1.433  -0.534   0.013  0.00  0.00    +0.064 C 
BRANCH  35  37
ATOM     36  C   UNL     1      -0.019   1.526   0.010  0.00  0.00    +0.004 C 
ATOM     37  C   UNL     1       0.002  -0.004   0.002  0.00  0.00    +0.003 C 
ENDBRANCH  35  37
ENDBRANCH   1  35
TORSDOF 7
