REMARK  Name = ZINC33935738
REMARK  10 active torsions:
REMARK  status: ('A' for Active; 'I' for Inactive)
REMARK    1  A    between atoms: C_1  and  C_2
REMARK    2  A    between atoms: C_2  and  C_4
REMARK    3  A    between atoms: C_2  and  O_39
REMARK    4  A    between atoms: C_4  and  C_36
REMARK    5  A    between atoms: C_9  and  C_12
REMARK    6  A    between atoms: C_15  and  C_18
REMARK    7  A    between atoms: C_18  and  O_20
REMARK    8  A    between atoms: O_20  and  C_21
REMARK    9  A    between atoms: N_24  and  C_27
REMARK   10  A    between atoms: C_31  and  N_33
REMARK                            x       y       z     vdW  Elec       q    Type
REMARK                         _______ _______ _______ _____ _____    ______ ____
ROOT
ATOM      1  C   UNL     1       0.718  -0.497  -1.257  0.00  0.00    +0.074 C 
ATOM      2  C   UNL     1       0.862  -2.016  -1.235  0.00  0.00    +0.089 C 
ATOM      3  C   UNL     1       1.996  -2.121  -2.323  0.00  0.00    +0.077 C 
ATOM      4  C   UNL     1       2.977  -1.117  -1.893  0.00  0.00    -0.027 C 
ATOM      5  N   UNL     1       2.140  -0.023  -1.278  0.00  0.00    +0.397 N 
ATOM      6  C   UNL     1       1.929  -3.514  -2.693  0.00  0.00    +0.229 C 
ATOM      7  O   UNL     1       2.845  -4.235  -3.026  0.00  0.00    -0.275 OA
ATOM      8  N   UNL     1       0.601  -3.845  -2.586  0.00  0.00    -0.210 N 
ATOM      9  C   UNL     1      -0.141  -2.896  -1.913  0.00  0.00    +0.229 C 
ATOM     10  O   UNL     1      -1.348  -2.788  -1.878  0.00  0.00    -0.275 OA
ATOM     11  H   UNL     1       2.211   0.822  -1.826  0.00  0.00    -0.083 HD
ATOM     12  H   UNL     1       2.457   0.151  -0.336  0.00  0.00    -0.083 HD
ENDROOT
BRANCH   4  13
ATOM     13  C   UNL     1       3.931  -1.711  -0.888  0.00  0.00    -0.061 A 
ATOM     14  C   UNL     1       3.544  -1.842   0.434  0.00  0.00    +0.003 A 
ATOM     15  C   UNL     1       4.412  -2.385   1.359  0.00  0.00    +0.015 A 
ATOM     16  C   UNL     1       5.683  -2.802   0.958  0.00  0.00    +0.059 A 
ATOM     17  C   UNL     1       6.067  -2.666  -0.378  0.00  0.00    +0.015 A 
ATOM     18  C   UNL     1       5.187  -2.127  -1.293  0.00  0.00    +0.003 A 
BRANCH  16  19
ATOM     19  C   UNL     1       6.618  -3.383   1.943  0.00  0.00    +0.339 C 
ATOM     20  O   UNL     1       6.282  -3.500   3.104  0.00  0.00    -0.245 OA
BRANCH  19  21
ATOM     21  O   UNL     1       7.844  -3.784   1.553  0.00  0.00    -0.464 OA
ATOM     22  C   UNL     1       8.695  -4.338   2.558  0.00  0.00    +0.280 C 
ENDBRANCH  19  21
ENDBRANCH  16  19
ENDBRANCH   4  13
BRANCH   8  23
ATOM     23  C   UNL     1       0.052  -5.031  -3.096  0.00  0.00    +0.046 A 
ATOM     24  C   UNL     1      -1.304  -5.288  -2.952  0.00  0.00    +0.024 A 
ATOM     25  C   UNL     1      -1.841  -6.457  -3.455  0.00  0.00    +0.004 A 
ATOM     26  C   UNL     1      -1.029  -7.370  -4.103  0.00  0.00    +0.033 A 
ATOM     27  C   UNL     1       0.322  -7.116  -4.248  0.00  0.00    +0.128 A 
ATOM     28  C   UNL     1       0.864  -5.946  -3.752  0.00  0.00    +0.056 A 
BRANCH  27  29
ATOM     29  N   UNL     1       1.188  -8.096  -4.941  0.00  0.00    +0.056 N 
ATOM     30  O   UNL     1       0.714  -9.118  -5.380  0.00  0.00    -0.126 OA
ATOM     31  O   UNL     1       2.370  -7.875  -5.068  0.00  0.00    -0.126 OA
ENDBRANCH  27  29
ENDBRANCH   8  23
BRANCH   1  32
ATOM     32  C   UNL     1      -0.013  -0.045  -2.495  0.00  0.00    +0.349 C 
ATOM     33  O   UNL     1       0.548   0.672  -3.306  0.00  0.00    -0.248 OA
ATOM     34  O   UNL     1      -1.164  -0.397  -2.685  0.00  0.00    -0.248 OA
ENDBRANCH   1  32
BRANCH   1  36
ATOM     35  C   UNL     1      -0.019   1.526   0.010  0.00  0.00    +0.037 C 
ATOM     36  C   UNL     1       0.002  -0.004   0.002  0.00  0.00    +0.112 C 
BRANCH  36  37
ATOM     37  O   UNL     1      -1.339  -0.499   0.012  0.00  0.00    -0.393 OA
ATOM     38  H   UNL     1      -1.853  -0.225   0.784  0.00  0.00    +0.210 HD
ENDBRANCH  36  37
ENDBRANCH   1  36
TORSDOF 8
