REMARK  Name = ZINC12799534
REMARK  7 active torsions:
REMARK  status: ('A' for Active; 'I' for Inactive)
REMARK    1  A    between atoms: C_3  and  C_6
REMARK    2  A    between atoms: C_6  and  C_8
REMARK    3  A    between atoms: C_6  and  N_15
REMARK    4  A    between atoms: N_15  and  C_16
REMARK    5  A    between atoms: C_16  and  C_17
REMARK    6  A    between atoms: N_19  and  C_20
REMARK    7  A    between atoms: C_21  and  C_29
REMARK                            x       y       z     vdW  Elec       q    Type
REMARK                         _______ _______ _______ _____ _____    ______ ____
ROOT
ATOM      1  C   UNL     1       5.364   0.581   3.117  0.00  0.00    +0.231 C 
ATOM      2  O   UNL     1       5.987  -0.335   2.623  0.00  0.00    -0.274 OA
ATOM      3  N   UNL     1       5.441   0.811   4.443  0.00  0.00    -0.278 N 
ATOM      4  H   UNL     1       4.943   1.544   4.838  0.00  0.00    +0.155 HD
ENDROOT
BRANCH   3   5
ATOM      5  C   UNL     1       6.233   0.001   5.242  0.00  0.00    +0.084 A 
ATOM      6  C   UNL     1       6.427   0.084   6.612  0.00  0.00    +0.068 A 
ATOM      7  C   UNL     1       7.314  -0.894   7.217  0.00  0.00    -0.023 A 
ATOM      8  C   UNL     1       7.845  -1.775   6.342  0.00  0.00    -0.004 A 
ATOM      9  S   UNL     1       7.171  -1.311   4.774  0.00  0.00    -0.077 S 
ATOM     10  C   UNL     1       8.791  -2.893   6.653  0.00  0.00    +0.043 C 
ATOM     11  C   UNL     1       9.366  -2.662   8.058  0.00  0.00    +0.005 C 
ATOM     12  C   UNL     1       8.216  -2.341   9.018  0.00  0.00    +0.005 C 
ATOM     13  C   UNL     1       7.644  -0.958   8.701  0.00  0.00    +0.037 C 
BRANCH   6  14
ATOM     14  C   UNL     1       5.765   1.115   7.416  0.00  0.00    +0.244 C 
ATOM     15  O   UNL     1       4.672   0.897   7.905  0.00  0.00    -0.270 OA
ATOM     16  N   UNL     1       6.366   2.305   7.614  0.00  0.00    -0.325 N 
ATOM     17  H   UNL     1       7.237   2.479   7.224  0.00  0.00    +0.145 HD
ATOM     18  H   UNL     1       5.928   2.988   8.146  0.00  0.00    +0.145 HD
ENDBRANCH   6  14
ENDBRANCH   3   5
BRANCH   1  19
ATOM     19  C   UNL     1       4.503   1.462   2.248  0.00  0.00    +0.178 C 
BRANCH  19  20
ATOM     20  N   UNL     1       4.589   1.008   0.854  0.00  0.00    -0.297 NA
ATOM     21  H   UNL     1       4.332   0.036   0.774  0.00  0.00    +0.123 HD
BRANCH  20  22
ATOM     22  C   UNL     1       3.761   1.845  -0.024  0.00  0.00    +0.122 C 
BRANCH  22  23
ATOM     23  C   UNL     1       4.303   1.790  -1.429  0.00  0.00    -0.025 A 
ATOM     24  C   UNL     1       4.760   0.592  -1.947  0.00  0.00    +0.008 A 
ATOM     25  C   UNL     1       5.258   0.540  -3.235  0.00  0.00    +0.038 A 
ATOM     26  C   UNL     1       5.298   1.689  -4.008  0.00  0.00    +0.123 A 
ATOM     27  C   UNL     1       4.840   2.888  -3.488  0.00  0.00    +0.038 A 
ATOM     28  C   UNL     1       4.338   2.936  -2.202  0.00  0.00    +0.008 A 
ATOM     29  F   UNL     1       5.784   1.639  -5.267  0.00  0.00    -0.205 F 
ENDBRANCH  22  23
BRANCH  22  32
ATOM     30  C   UNL     1      -0.016   1.351   0.009  0.00  0.00    +0.008 A 
ATOM     31  C   UNL     1       1.183   2.038   0.002  0.00  0.00    +0.013 A 
ATOM     32  C   UNL     1       2.343   1.336  -0.013  0.00  0.00    +0.011 A 
ATOM     33  S   UNL     1       1.754  -0.349  -0.017  0.00  0.00    -0.100 S 
ATOM     34  C   UNL     1       0.002  -0.004   0.002  0.00  0.00    +0.045 A 
ENDBRANCH  22  32
ENDBRANCH  20  22
ENDBRANCH  19  20
ENDBRANCH   1  19
TORSDOF 7
