REMARK  Name = ZINC43221624
REMARK  11 active torsions:
REMARK  status: ('A' for Active; 'I' for Inactive)
REMARK    1  A    between atoms: C_1  and  C_2
REMARK    2  A    between atoms: C_2  and  C_3
REMARK    3  A    between atoms: C_3  and  C_5
REMARK    4  A    between atoms: C_3  and  C_6
REMARK    5  A    between atoms: C_6  and  C_37
REMARK    6  A    between atoms: C_11  and  C_14
REMARK    7  A    between atoms: C_18  and  O_21
REMARK    8  A    between atoms: C_19  and  O_20
REMARK    9  A    between atoms: O_21  and  C_22
REMARK   10  A    between atoms: N_25  and  C_28
REMARK   11  A    between atoms: C_32  and  N_34
REMARK                            x       y       z     vdW  Elec       q    Type
REMARK                         _______ _______ _______ _____ _____    ______ ____
ROOT
ATOM      1  C   UNL     1       0.541  -1.955  -0.828  0.00  0.00    +0.051 C 
ATOM      2  C   UNL     1       1.430  -2.861  -1.663  0.00  0.00    +0.086 C 
ATOM      3  C   UNL     1       2.749  -2.747  -0.808  0.00  0.00    +0.077 C 
ATOM      4  C   UNL     1       2.250  -2.986   0.557  0.00  0.00    -0.023 C 
ATOM      5  N   UNL     1       0.997  -2.138   0.584  0.00  0.00    +0.396 N 
ATOM      6  C   UNL     1       3.738  -3.251  -1.728  0.00  0.00    +0.229 C 
ATOM      7  O   UNL     1       4.735  -3.888  -1.462  0.00  0.00    -0.275 OA
ATOM      8  N   UNL     1       3.307  -2.853  -2.969  0.00  0.00    -0.210 N 
ATOM      9  C   UNL     1       2.005  -2.404  -2.967  0.00  0.00    +0.229 C 
ATOM     10  O   UNL     1       1.441  -1.769  -3.832  0.00  0.00    -0.275 OA
ATOM     11  H   UNL     1       1.194  -1.239   0.998  0.00  0.00    -0.083 HD
ATOM     12  H   UNL     1       0.281  -2.610   1.115  0.00  0.00    -0.083 HD
ENDROOT
BRANCH   4  13
ATOM     13  C   UNL     1       1.940  -4.445   0.766  0.00  0.00    -0.015 A 
ATOM     14  C   UNL     1       0.653  -4.913   0.578  0.00  0.00    +0.006 A 
ATOM     15  C   UNL     1       0.365  -6.251   0.770  0.00  0.00    +0.004 A 
ATOM     16  C   UNL     1       1.364  -7.129   1.150  0.00  0.00    +0.049 A 
ATOM     17  C   UNL     1       2.656  -6.667   1.341  0.00  0.00    +0.161 A 
ATOM     18  C   UNL     1       2.947  -5.320   1.142  0.00  0.00    +0.160 A 
BRANCH  18  19
ATOM     19  O   UNL     1       4.215  -4.863   1.322  0.00  0.00    -0.503 OA
ATOM     20  H   UNL     1       4.403  -4.570   2.224  0.00  0.00    +0.292 HD
ENDBRANCH  18  19
BRANCH  17  21
ATOM     21  O   UNL     1       3.640  -7.528   1.715  0.00  0.00    -0.491 OA
ATOM     22  C   UNL     1       3.270  -8.896   1.895  0.00  0.00    +0.277 C 
ENDBRANCH  17  21
ENDBRANCH   4  13
BRANCH   8  23
ATOM     23  C   UNL     1       4.104  -2.906  -4.122  0.00  0.00    +0.046 A 
ATOM     24  C   UNL     1       3.594  -2.478  -5.340  0.00  0.00    +0.024 A 
ATOM     25  C   UNL     1       4.380  -2.532  -6.474  0.00  0.00    +0.004 A 
ATOM     26  C   UNL     1       5.675  -3.012  -6.396  0.00  0.00    +0.033 A 
ATOM     27  C   UNL     1       6.186  -3.439  -5.185  0.00  0.00    +0.128 A 
ATOM     28  C   UNL     1       5.405  -3.382  -4.046  0.00  0.00    +0.056 A 
BRANCH  27  29
ATOM     29  N   UNL     1       7.572  -3.953  -5.106  0.00  0.00    +0.056 N 
ATOM     30  O   UNL     1       8.257  -3.998  -6.101  0.00  0.00    -0.126 OA
ATOM     31  O   UNL     1       8.019  -4.327  -4.047  0.00  0.00    -0.126 OA
ENDBRANCH  27  29
ENDBRANCH   8  23
BRANCH   1  32
ATOM     32  C   UNL     1      -0.902  -2.367  -0.966  0.00  0.00    +0.347 C 
ATOM     33  O   UNL     1      -1.443  -2.334  -2.058  0.00  0.00    -0.248 OA
ATOM     34  O   UNL     1      -1.529  -2.732   0.014  0.00  0.00    -0.248 OA
ENDBRANCH   1  32
BRANCH   1  35
ATOM     35  C   UNL     1       0.718  -0.497  -1.257  0.00  0.00    -0.014 C 
ATOM     36  C   UNL     1       2.159  -0.059  -0.988  0.00  0.00    +0.006 C 
BRANCH  35  38
ATOM     37  C   UNL     1      -0.154   1.827  -0.976  0.00  0.00    +0.004 C 
ATOM     38  C   UNL     1      -0.242   0.389  -0.461  0.00  0.00    -0.001 C 
ENDBRANCH  35  38
ENDBRANCH   1  35
TORSDOF 8
