REMARK  Name = ZINC24711274
REMARK  7 active torsions:
REMARK  status: ('A' for Active; 'I' for Inactive)
REMARK    1  A    between atoms: C_5  and  O_7
REMARK    2  A    between atoms: O_7  and  C_8
REMARK    3  A    between atoms: C_8  and  C_9
REMARK    4  A    between atoms: C_12  and  S_15
REMARK    5  A    between atoms: N_13  and  N_14
REMARK    6  A    between atoms: S_15  and  C_16
REMARK    7  A    between atoms: C_16  and  C_17
REMARK                            x       y       z     vdW  Elec       q    Type
REMARK                         _______ _______ _______ _____ _____    ______ ____
ROOT
ATOM      1  S   UNL     1       4.733   4.626  -2.159  0.00  0.00    -0.077 S 
ENDROOT
BRANCH   1   5
ATOM      2  C   UNL     1       6.914   7.823  -2.645  0.00  0.00    +0.189 A 
ATOM      3  N   UNL     1       6.930   7.665  -1.352  0.00  0.00    -0.128 NA
ATOM      4  N   UNL     1       6.237   6.633  -1.025  0.00  0.00    -0.121 NA
ATOM      5  C   UNL     1       5.744   6.068  -2.102  0.00  0.00    +0.209 A 
ATOM      6  N   UNL     1       6.158   6.811  -3.170  0.00  0.00    -0.225 N 
BRANCH   6   7
ATOM      7  N   UNL     1       5.876   6.590  -4.488  0.00  0.00    -0.295 N 
ATOM      8  H   UNL     1       5.250   5.734  -4.780  0.00  0.00    +0.163 HD
ATOM      9  H   UNL     1       6.274   7.269  -5.257  0.00  0.00    +0.163 HD
ENDBRANCH   6   7
BRANCH   2  10
ATOM     10  C   UNL     1       7.601   8.918  -3.420  0.00  0.00    +0.306 C 
BRANCH  10  11
ATOM     11  O   UNL     1       6.717  10.032  -3.558  0.00  0.00    -0.481 OA
BRANCH  11  16
ATOM     12  C   UNL     1       8.945  12.201  -5.447  0.00  0.00    +0.004 A 
ATOM     13  C   UNL     1       8.142  13.313  -5.617  0.00  0.00    +0.003 A 
ATOM     14  C   UNL     1       6.860  13.328  -5.098  0.00  0.00    +0.042 A 
ATOM     15  C   UNL     1       6.379  12.230  -4.408  0.00  0.00    +0.165 A 
ATOM     16  C   UNL     1       7.186  11.112  -4.236  0.00  0.00    +0.156 A 
ATOM     17  C   UNL     1       8.472  11.103  -4.753  0.00  0.00    +0.048 A 
ATOM     18  F   UNL     1       5.127  12.245  -3.900  0.00  0.00    -0.202 F 
ENDBRANCH  11  16
ENDBRANCH  10  11
ENDBRANCH   2  10
ENDBRANCH   1   5
BRANCH   1  19
ATOM     19  C   UNL     1       4.636   4.240  -0.393  0.00  0.00    +0.153 C 
BRANCH  19  20
ATOM     20  C   UNL     1       3.795   3.006  -0.194  0.00  0.00    +0.143 A 
ATOM     21  N   UNL     1       4.377   1.819  -0.201  0.00  0.00    -0.216 NA
ATOM     22  C   UNL     1       3.694   0.699  -0.031  0.00  0.00    +0.128 A 
ATOM     23  C   UNL     1       2.287   0.770   0.166  0.00  0.00    +0.051 A 
ATOM     24  C   UNL     1       1.337  -0.329   0.375  0.00  0.00    -0.025 A 
ATOM     25  C   UNL     1       0.042   0.011   0.534  0.00  0.00    -0.004 A 
ATOM     26  S   UNL     1       0.009   1.782   0.424  0.00  0.00    -0.073 S 
ATOM     27  C   UNL     1       1.739   2.066   0.160  0.00  0.00    +0.114 A 
ATOM     28  N   UNL     1       2.494   3.134  -0.017  0.00  0.00    -0.224 NA
ATOM     29  C   UNL     1      -1.127  -0.900   0.743  0.00  0.00    +0.043 C 
ATOM     30  C   UNL     1      -0.796  -1.905   1.855  0.00  0.00    +0.005 C 
ATOM     31  C   UNL     1      -0.147  -3.129   1.217  0.00  0.00    +0.001 C 
ATOM     32  C   UNL     1       0.675  -2.710  -0.001  0.00  0.00    +0.005 C 
ATOM     33  C   UNL     1       1.808  -1.780   0.416  0.00  0.00    +0.037 C 
ATOM     34  N   UNL     1       4.340  -0.525  -0.044  0.00  0.00    -0.343 N 
ATOM     35  H   UNL     1       3.764  -1.452   0.098  0.00  0.00    +0.144 HD
ATOM     36  H   UNL     1       5.428  -0.571  -0.197  0.00  0.00    +0.144 HD
ENDBRANCH  19  20
ENDBRANCH   1  19
TORSDOF 7
