REMARK  Name = ZINC36550403
REMARK  13 active torsions:
REMARK  status: ('A' for Active; 'I' for Inactive)
REMARK    1  A    between atoms: C_1  and  C_2
REMARK    2  A    between atoms: C_2  and  C_3
REMARK    3  A    between atoms: N_5  and  C_6
REMARK    4  A    between atoms: N_5  and  C_13
REMARK    5  A    between atoms: C_13  and  C_15
REMARK    6  A    between atoms: C_13  and  C_24
REMARK    7  A    between atoms: C_16  and  O_23
REMARK    8  A    between atoms: C_18  and  O_22
REMARK    9  A    between atoms: C_20  and  O_21
REMARK   10  A    between atoms: N_26  and  C_27
REMARK   11  A    between atoms: C_27  and  C_28
REMARK   12  A    between atoms: C_27  and  C_29
REMARK   13  A    between atoms: C_27  and  C_30
REMARK                            x       y       z     vdW  Elec       q    Type
REMARK                         _______ _______ _______ _____ _____    ______ ____
ROOT
ATOM      1  C   UNL     1       0.449  -2.780   0.972  0.00  0.00    +0.204 C 
ENDROOT
BRANCH   1   2
ATOM      2  C   UNL     1       1.168  -2.358  -0.283  0.00  0.00    +0.065 A 
ATOM      3  C   UNL     1       1.464  -1.020  -0.496  0.00  0.00    +0.129 A 
ATOM      4  C   UNL     1       2.126  -0.631  -1.651  0.00  0.00    +0.091 A 
ATOM      5  C   UNL     1       2.492  -1.581  -2.594  0.00  0.00    +0.124 A 
ATOM      6  C   UNL     1       2.196  -2.919  -2.380  0.00  0.00    +0.091 A 
ATOM      7  C   UNL     1       1.538  -3.308  -1.223  0.00  0.00    +0.129 A 
BRANCH   7   8
ATOM      8  O   UNL     1       1.253  -4.620  -1.012  0.00  0.00    -0.506 OA
ATOM      9  H   UNL     1       0.395  -4.896  -1.360  0.00  0.00    +0.292 HD
ENDBRANCH   7   8
BRANCH   5  10
ATOM     10  O   UNL     1       3.139  -1.200  -3.726  0.00  0.00    -0.507 OA
ATOM     11  H   UNL     1       4.103  -1.196  -3.646  0.00  0.00    +0.292 HD
ENDBRANCH   5  10
BRANCH   3  12
ATOM     12  O   UNL     1       1.106  -0.089   0.427  0.00  0.00    -0.506 OA
ATOM     13  H   UNL     1       1.817   0.155   1.036  0.00  0.00    +0.292 HD
ENDBRANCH   3  12
ENDBRANCH   1   2
BRANCH   1  14
ATOM     14  C   UNL     1      -0.992  -2.345   0.896  0.00  0.00    +0.239 C 
ATOM     15  O   UNL     1      -1.308  -1.230   1.251  0.00  0.00    -0.273 OA
ATOM     16  N   UNL     1      -1.929  -3.197   0.434  0.00  0.00    -0.309 N 
ATOM     17  H   UNL     1      -1.675  -4.089   0.150  0.00  0.00    +0.149 HD
BRANCH  16  18
ATOM     18  C   UNL     1      -3.330  -2.774   0.360  0.00  0.00    +0.026 C 
ATOM     19  C   UNL     1      -3.448  -1.559  -0.562  0.00  0.00    +0.031 C 
ATOM     20  C   UNL     1      -4.179  -3.920  -0.196  0.00  0.00    +0.031 C 
ATOM     21  C   UNL     1      -3.825  -2.404   1.759  0.00  0.00    +0.031 C 
ENDBRANCH  16  18
ENDBRANCH   1  14
BRANCH   1  24
ATOM     22  C   UNL     1       2.406  -2.326   2.352  0.00  0.00    +0.220 C 
ATOM     23  O   UNL     1       2.923  -1.853   3.341  0.00  0.00    -0.275 OA
ATOM     24  N   UNL     1       1.087  -2.155   2.134  0.00  0.00    -0.254 N 
BRANCH  24  25
ATOM     25  C   UNL     1       0.326  -1.379   3.017  0.00  0.00    +0.056 A 
ATOM     26  C   UNL     1       0.422   0.006   2.986  0.00  0.00    +0.025 A 
ATOM     27  C   UNL     1      -0.330   0.768   3.858  0.00  0.00    +0.002 A 
ATOM     28  C   UNL     1      -1.177   0.154   4.762  0.00  0.00    +0.002 A 
ATOM     29  C   UNL     1      -1.275  -1.224   4.796  0.00  0.00    +0.022 A 
ATOM     30  C   UNL     1      -0.530  -1.993   3.922  0.00  0.00    +0.062 A 
ATOM     31 CL   UNL     1      -0.659  -3.724   3.961  0.00  0.00    -0.082 Cl
ENDBRANCH  24  25
BRANCH  22  33
ATOM     32  C   UNL     1       4.612  -3.393   1.974  0.00  0.00    +0.013 C 
ATOM     33  C   UNL     1       3.237  -3.106   1.367  0.00  0.00    +0.093 C 
ENDBRANCH  22  33
ENDBRANCH   1  24
TORSDOF 9
