REMARK  Name = ZINC39015763
REMARK  6 active torsions:
REMARK  status: ('A' for Active; 'I' for Inactive)
REMARK    1  A    between atoms: C_10  and  C_11
REMARK    2  A    between atoms: C_11  and  S_12
REMARK    3  A    between atoms: S_12  and  C_13
REMARK    4  A    between atoms: C_17  and  C_21
REMARK    5  A    between atoms: N_19  and  N_20
REMARK    6  A    between atoms: C_24  and  C_27
REMARK                            x       y       z     vdW  Elec       q    Type
REMARK                         _______ _______ _______ _____ _____    ______ ____
ROOT
ATOM      1  C   UNL     1       6.902   1.543   1.225  0.00  0.00    +0.214 C 
ATOM      2  N   UNL     1       6.654   2.763   0.422  0.00  0.00    -0.228 NA
ATOM      3  N   UNL     1       7.877   2.932  -0.377  0.00  0.00    -0.234 NA
ATOM      4  C   UNL     1       8.247   1.535  -0.725  0.00  0.00    +0.185 C 
ATOM      5  N   UNL     1       7.917   0.758   0.494  0.00  0.00    -0.197 NA
ATOM      6  H   UNL     1       6.498   3.562   1.018  0.00  0.00    +0.143 HD
ATOM      7  H   UNL     1       8.605   3.375   0.164  0.00  0.00    +0.143 HD
ENDROOT
BRANCH   4   8
ATOM      8  C   UNL     1       9.741   1.438  -1.037  0.00  0.00    +0.187 C 
ATOM      9  C   UNL     1      10.109   2.356  -2.189  0.00  0.00    +0.034 C 
ATOM     10  C   UNL     1      10.570   1.516  -3.136  0.00  0.00    +0.091 C 
ATOM     11  N   UNL     1      10.522   0.232  -2.695  0.00  0.00    -0.154 NA
ATOM     12  N   UNL     1      10.080   0.100  -1.548  0.00  0.00    -0.176 NA
BRANCH  10  13
ATOM     13  C   UNL     1      11.060   1.935  -4.472  0.00  0.00    +0.002 A 
ATOM     14  C   UNL     1      11.071   3.284  -4.822  0.00  0.00    +0.011 A 
ATOM     15  C   UNL     1      11.528   3.668  -6.066  0.00  0.00    +0.020 A 
ATOM     16  C   UNL     1      11.974   2.716  -6.966  0.00  0.00    +0.041 A 
ATOM     17  C   UNL     1      11.966   1.374  -6.624  0.00  0.00    +0.020 A 
ATOM     18  C   UNL     1      11.516   0.981  -5.380  0.00  0.00    +0.011 A 
ATOM     19 CL   UNL     1      12.547   3.205  -8.531  0.00  0.00    -0.084 Cl
ENDBRANCH  10  13
ENDBRANCH   4   8
BRANCH   5  20
ATOM     20  N   UNL     1       7.409  -0.560   0.150  0.00  0.00    -0.264 NA
ATOM     21  H   UNL     1       7.186  -1.090   0.980  0.00  0.00    +0.137 HD
ATOM     22  H   UNL     1       6.608  -0.491  -0.460  0.00  0.00    +0.137 HD
ENDBRANCH   5  20
BRANCH   1  23
ATOM     23  S   UNL     1       5.371   0.584   1.386  0.00  0.00    -0.119 S 
BRANCH  23  24
ATOM     24  C   UNL     1       4.431   1.468   2.661  0.00  0.00    +0.107 C 
BRANCH  24  34
ATOM     25  C   UNL     1       2.870  -2.248   5.817  0.00  0.00    +0.001 A 
ATOM     26  C   UNL     1       4.081  -1.595   5.595  0.00  0.00    +0.001 A 
ATOM     27  C   UNL     1       4.187  -0.616   4.655  0.00  0.00    +0.009 A 
ATOM     28  C   UNL     1       3.060  -0.256   3.895  0.00  0.00    -0.014 A 
ATOM     29  C   UNL     1       1.829  -0.921   4.121  0.00  0.00    -0.018 A 
ATOM     30  C   UNL     1       1.758  -1.927   5.101  0.00  0.00    +0.008 A 
ATOM     31  C   UNL     1       0.703  -0.562   3.361  0.00  0.00    +0.008 A 
ATOM     32  C   UNL     1       0.809   0.416   2.421  0.00  0.00    +0.001 A 
ATOM     33  C   UNL     1       2.019   1.069   2.198  0.00  0.00    +0.005 A 
ATOM     34  C   UNL     1       3.131   0.749   2.916  0.00  0.00    -0.030 A 
ENDBRANCH  24  34
ENDBRANCH  23  24
ENDBRANCH   1  23
TORSDOF 6
