REMARK  Name = ZINC05067850
REMARK  5 active torsions:
REMARK  status: ('A' for Active; 'I' for Inactive)
REMARK    1  A    between atoms: C_1  and  C_2
REMARK    2  A    between atoms: C_5  and  C_7
REMARK    3  A    between atoms: C_13  and  C_15
REMARK    4  A    between atoms: C_22  and  N_26
REMARK    5  A    between atoms: C_23  and  C_24
REMARK                            x       y       z     vdW  Elec       q    Type
REMARK                         _______ _______ _______ _____ _____    ______ ____
ROOT
ATOM      1  C   UNL     1       1.684  -3.245  -0.023  0.00  0.00    +0.154 C 
ATOM      2  C   UNL     1       2.571  -3.197   1.196  0.00  0.00    +0.119 A 
ATOM      3  C   UNL     1       3.923  -3.356   1.123  0.00  0.00    +0.225 A 
ATOM      4  N   UNL     1       4.406  -3.258   2.390  0.00  0.00    -0.309 N 
ATOM      5  H   UNL     1       5.334  -3.330   2.662  0.00  0.00    +0.170 HD
ATOM      6  C   UNL     1       3.328  -3.039   3.210  0.00  0.00    +0.141 A 
ATOM      7  N   UNL     1       2.240  -3.006   2.469  0.00  0.00    -0.228 NA
ATOM      8  O   UNL     1       4.579  -3.566  -0.044  0.00  0.00    -0.423 OA
ATOM      9  C   UNL     1       3.902  -3.344  -1.190  0.00  0.00    +0.201 C 
ATOM     10  C   UNL     1       2.560  -3.185  -1.249  0.00  0.00    +0.103 C 
ENDROOT
BRANCH   1  15
ATOM     11  C   UNL     1      -0.018   1.503   0.010  0.00  0.00    +0.086 C 
ATOM     12  C   UNL     1       0.002  -0.004   0.002  0.00  0.00    +0.102 A 
ATOM     13  C   UNL     1      -1.078  -0.805   0.003  0.00  0.00    +0.044 A 
ATOM     14  C   UNL     1      -0.601  -2.136  -0.007  0.00  0.00    +0.046 A 
ATOM     15  C   UNL     1       0.742  -2.069  -0.013  0.00  0.00    +0.119 A 
ATOM     16  O   UNL     1       1.102  -0.775  -0.013  0.00  0.00    -0.464 OA
ENDBRANCH   1  15
BRANCH   6  17
ATOM     17  C   UNL     1       3.380  -2.868   4.677  0.00  0.00    +0.017 A 
ATOM     18  C   UNL     1       4.604  -2.920   5.346  0.00  0.00    +0.011 A 
ATOM     19  C   UNL     1       4.646  -2.759   6.716  0.00  0.00    +0.001 A 
ATOM     20  C   UNL     1       3.477  -2.548   7.426  0.00  0.00    +0.000 A 
ATOM     21  C   UNL     1       2.260  -2.497   6.769  0.00  0.00    +0.001 A 
ATOM     22  C   UNL     1       2.206  -2.650   5.399  0.00  0.00    +0.011 A 
ENDBRANCH   6  17
BRANCH   9  23
ATOM     23  N   UNL     1       4.614  -3.277  -2.361  0.00  0.00    -0.328 N 
ATOM     24  H   UNL     1       5.578  -3.388  -2.350  0.00  0.00    +0.145 HD
ATOM     25  H   UNL     1       4.154  -3.118  -3.200  0.00  0.00    +0.145 HD
ENDBRANCH   9  23
BRANCH  10  26
ATOM     26  C   UNL     1       1.948  -2.950  -2.522  0.00  0.00    +0.101 C 
ATOM     27  N   UNL     1       1.463  -2.763  -3.532  0.00  0.00    -0.191 NA
ENDBRANCH  10  26
TORSDOF 4
