REMARK  Name = ZINC46670862
REMARK  13 active torsions:
REMARK  status: ('A' for Active; 'I' for Inactive)
REMARK    1  A    between atoms: C_1  and  C_2
REMARK    2  A    between atoms: C_2  and  C_4
REMARK    3  A    between atoms: C_2  and  N_16
REMARK    4  A    between atoms: C_7  and  O_12
REMARK    5  A    between atoms: C_8  and  O_10
REMARK    6  A    between atoms: O_10  and  C_11
REMARK    7  A    between atoms: O_12  and  C_13
REMARK    8  A    between atoms: C_13  and  C_14
REMARK    9  A    between atoms: C_13  and  C_15
REMARK   10  A    between atoms: N_19  and  N_20
REMARK   11  A    between atoms: N_20  and  C_21
REMARK   12  A    between atoms: C_21  and  N_23
REMARK   13  A    between atoms: N_23  and  C_24
REMARK                            x       y       z     vdW  Elec       q    Type
REMARK                         _______ _______ _______ _____ _____    ______ ____
ROOT
ATOM      1  N   UNL     1       0.379   0.527   1.126  0.00  0.00    -0.292 N 
ATOM      2  C   UNL     1       1.722   0.629   1.136  0.00  0.00    +0.316 C 
ATOM      3  O   UNL     1       2.316   0.943   0.122  0.00  0.00    -0.251 OA
ATOM      4  N   UNL     1       2.409   0.383   2.269  0.00  0.00    -0.219 N 
ATOM      5  H   UNL     1      -0.095   0.277   1.935  0.00  0.00    +0.151 HD
ATOM      6  H   UNL     1       3.376   0.457   2.276  0.00  0.00    +0.174 HD
ENDROOT
BRANCH   1   8
ATOM      7  C   UNL     1      -0.627   2.297  -0.229  0.00  0.00    +0.033 C 
ATOM      8  C   UNL     1      -0.368   0.794  -0.106  0.00  0.00    +0.102 C 
BRANCH   8   9
ATOM      9  C   UNL     1      -1.682   0.059  -0.066  0.00  0.00    -0.024 A 
ATOM     10  C   UNL     1      -2.405   0.002   1.111  0.00  0.00    +0.009 A 
ATOM     11  C   UNL     1      -3.612  -0.671   1.152  0.00  0.00    +0.050 A 
ATOM     12  C   UNL     1      -4.100  -1.290   0.012  0.00  0.00    +0.162 A 
ATOM     13  C   UNL     1      -3.372  -1.232  -1.172  0.00  0.00    +0.162 A 
ATOM     14  C   UNL     1      -2.166  -0.552  -1.208  0.00  0.00    +0.054 A 
BRANCH  13  15
ATOM     15  O   UNL     1      -3.846  -1.839  -2.294  0.00  0.00    -0.491 OA
ATOM     16  C   UNL     1      -3.046  -1.738  -3.473  0.00  0.00    +0.277 C 
ENDBRANCH  13  15
BRANCH  12  17
ATOM     17  O   UNL     1      -5.286  -1.954   0.051  0.00  0.00    -0.486 OA
BRANCH  17  18
ATOM     18  C   UNL     1      -5.920  -2.075   1.327  0.00  0.00    +0.167 C 
ATOM     19  C   UNL     1      -6.747  -0.818   1.607  0.00  0.00    +0.051 C 
ATOM     20  C   UNL     1      -6.838  -3.299   1.326  0.00  0.00    +0.051 C 
ENDBRANCH  17  18
ENDBRANCH  12  17
ENDBRANCH   8   9
ENDBRANCH   1   8
BRANCH   4  21
ATOM     21  N   UNL     1       1.726   0.022   3.438  0.00  0.00    -0.245 N 
ATOM     22  H   UNL     1       0.758  -0.051   3.431  0.00  0.00    +0.172 HD
BRANCH  21  23
ATOM     23  C   UNL     1       2.412  -0.224   4.571  0.00  0.00    +0.147 C 
ATOM     24  S   UNL     1       1.577  -0.665   5.999  0.00  0.00    -0.017 S 
BRANCH  23  25
ATOM     25  N   UNL     1       3.756  -0.122   4.581  0.00  0.00    -0.323 N 
ATOM     26  H   UNL     1       4.229   0.128   3.772  0.00  0.00    +0.148 HD
BRANCH  25  27
ATOM     27  C   UNL     1       4.502  -0.389   5.813  0.00  0.00    +0.072 C 
ATOM     28  C   UNL     1       4.833  -1.892   5.915  0.00  0.00    +0.022 C 
ATOM     29  C   UNL     1       6.267  -2.006   5.342  0.00  0.00    +0.002 C 
ATOM     30  C   UNL     1       6.950  -0.720   5.873  0.00  0.00    +0.002 C 
ATOM     31  C   UNL     1       5.848   0.356   5.786  0.00  0.00    +0.022 C 
ENDBRANCH  25  27
ENDBRANCH  23  25
ENDBRANCH  21  23
ENDBRANCH   4  21
TORSDOF 9
