REMARK  Name = ZINC36547057
REMARK  18 active torsions:
REMARK  status: ('A' for Active; 'I' for Inactive)
REMARK    1  A    between atoms: C_1  and  C_2
REMARK    2  A    between atoms: C_2  and  C_3
REMARK    3  A    between atoms: C_3  and  C_4
REMARK    4  A    between atoms: N_6  and  C_7
REMARK    5  A    between atoms: N_6  and  C_14
REMARK    6  A    between atoms: C_14  and  C_16
REMARK    7  A    between atoms: C_14  and  C_25
REMARK    8  A    between atoms: C_17  and  O_24
REMARK    9  A    between atoms: C_19  and  O_23
REMARK   10  A    between atoms: C_21  and  O_22
REMARK   11  A    between atoms: N_27  and  C_28
REMARK   12  A    between atoms: C_28  and  C_29
REMARK   13  A    between atoms: C_28  and  C_30
REMARK   14  A    between atoms: C_28  and  C_31
REMARK   15  A    between atoms: C_31  and  C_32
REMARK   16  A    between atoms: C_32  and  C_33
REMARK   17  A    between atoms: C_32  and  C_34
REMARK   18  A    between atoms: C_32  and  C_35
REMARK                            x       y       z     vdW  Elec       q    Type
REMARK                         _______ _______ _______ _____ _____    ______ ____
ROOT
ATOM      1  C   UNL     1       2.899  -6.017  -3.417  0.00  0.00    +0.204 C 
ENDROOT
BRANCH   1   2
ATOM      2  C   UNL     1       2.458  -7.022  -4.449  0.00  0.00    +0.065 A 
ATOM      3  C   UNL     1       2.871  -6.891  -5.766  0.00  0.00    +0.129 A 
ATOM      4  C   UNL     1       2.464  -7.816  -6.716  0.00  0.00    +0.091 A 
ATOM      5  C   UNL     1       1.645  -8.873  -6.348  0.00  0.00    +0.124 A 
ATOM      6  C   UNL     1       1.233  -9.005  -5.031  0.00  0.00    +0.091 A 
ATOM      7  C   UNL     1       1.643  -8.082  -4.080  0.00  0.00    +0.129 A 
BRANCH   7   8
ATOM      8  O   UNL     1       1.242  -8.214  -2.788  0.00  0.00    -0.506 OA
ATOM      9  H   UNL     1       0.412  -7.762  -2.586  0.00  0.00    +0.292 HD
ENDBRANCH   7   8
BRANCH   5  10
ATOM     10  O   UNL     1       1.246  -9.779  -7.279  0.00  0.00    -0.507 OA
ATOM     11  H   UNL     1       1.843 -10.533  -7.375  0.00  0.00    +0.292 HD
ENDBRANCH   5  10
BRANCH   3  12
ATOM     12  O   UNL     1       3.674  -5.855  -6.126  0.00  0.00    -0.506 OA
ATOM     13  H   UNL     1       4.619  -6.047  -6.056  0.00  0.00    +0.292 HD
ENDBRANCH   3  12
ENDBRANCH   1   2
BRANCH   1  14
ATOM     14  C   UNL     1       4.388  -5.809  -3.523  0.00  0.00    +0.239 C 
ATOM     15  O   UNL     1       4.830  -4.706  -3.768  0.00  0.00    -0.273 OA
ATOM     16  N   UNL     1       5.228  -6.847  -3.346  0.00  0.00    -0.308 N 
ATOM     17  H   UNL     1       4.875  -7.729  -3.151  0.00  0.00    +0.149 HD
BRANCH  16  18
ATOM     18  C   UNL     1       6.675  -6.645  -3.450  0.00  0.00    +0.030 C 
ATOM     19  C   UNL     1       7.048  -6.364  -4.907  0.00  0.00    +0.031 C 
ATOM     20  C   UNL     1       7.088  -5.456  -2.580  0.00  0.00    +0.031 C 
BRANCH  18  21
ATOM     21  C   UNL     1       7.402  -7.903  -2.971  0.00  0.00    +0.031 C 
BRANCH  21  22
ATOM     22  C   UNL     1       6.780  -8.383  -1.659  0.00  0.00    -0.036 C 
ATOM     23  C   UNL     1       5.306  -8.723  -1.887  0.00  0.00    +0.010 C 
ATOM     24  C   UNL     1       7.521  -9.629  -1.169  0.00  0.00    +0.010 C 
ATOM     25  C   UNL     1       6.891  -7.278  -0.607  0.00  0.00    +0.010 C 
ENDBRANCH  21  22
ENDBRANCH  18  21
ENDBRANCH  16  18
ENDBRANCH   1  14
BRANCH   1  28
ATOM     26  C   UNL     1       1.389  -4.242  -2.705  0.00  0.00    +0.221 C 
ATOM     27  O   UNL     1       1.220  -4.843  -1.665  0.00  0.00    -0.275 OA
ATOM     28  N   UNL     1       2.210  -4.745  -3.648  0.00  0.00    -0.254 N 
BRANCH  28  29
ATOM     29  C   UNL     1       2.405  -4.052  -4.848  0.00  0.00    +0.056 A 
ATOM     30  C   UNL     1       3.406  -3.094  -4.944  0.00  0.00    +0.025 A 
ATOM     31  C   UNL     1       3.596  -2.412  -6.130  0.00  0.00    +0.002 A 
ATOM     32  C   UNL     1       2.790  -2.681  -7.222  0.00  0.00    +0.002 A 
ATOM     33  C   UNL     1       1.793  -3.634  -7.130  0.00  0.00    +0.022 A 
ATOM     34  C   UNL     1       1.601  -4.324  -5.948  0.00  0.00    +0.062 A 
ATOM     35 CL   UNL     1       0.353  -5.526  -5.836  0.00  0.00    -0.082 Cl
ENDBRANCH  28  29
BRANCH  26  36
ATOM     36  C   UNL     1       0.680  -2.934  -2.943  0.00  0.00    +0.096 C 
BRANCH  36  38
ATOM     37  C   UNL     1      -0.902  -1.264  -1.968  0.00  0.00    +0.004 C 
ATOM     38  C   UNL     1      -0.183  -2.593  -1.726  0.00  0.00    +0.006 C 
ENDBRANCH  36  38
ENDBRANCH  26  36
ENDBRANCH   1  28
TORSDOF 12
