REMARK  Name = ZINC04646898
REMARK  6 active torsions:
REMARK  status: ('A' for Active; 'I' for Inactive)
REMARK    1  A    between atoms: C_1  and  C_2
REMARK    2  A    between atoms: C_2  and  C_10
REMARK    3  A    between atoms: N_3  and  N_4
REMARK    4  A    between atoms: C_5  and  C_7
REMARK    5  A    between atoms: C_13  and  N_16
REMARK    6  A    between atoms: C_17  and  C_19
REMARK                            x       y       z     vdW  Elec       q    Type
REMARK                         _______ _______ _______ _____ _____    ______ ____
ROOT
ATOM      1  C   UNL     1       4.937   0.098   0.495  0.00  0.00    -0.002 A 
ATOM      2  C   UNL     1       5.151   1.431   0.131  0.00  0.00    +0.011 A 
ATOM      3  C   UNL     1       4.116   2.336   0.200  0.00  0.00    +0.024 A 
ATOM      4  C   UNL     1       2.859   1.927   0.631  0.00  0.00    +0.034 A 
ATOM      5  C   UNL     1       2.643   0.603   0.999  0.00  0.00    +0.024 A 
ATOM      6  C   UNL     1       3.671  -0.310   0.928  0.00  0.00    +0.011 A 
ENDROOT
BRANCH   4   7
ATOM      7  N   UNL     1       1.812   2.848   0.699  0.00  0.00    -0.281 N 
ATOM      8  C   UNL     1       0.551   2.458   0.424  0.00  0.00    +0.250 C 
ATOM      9  O   UNL     1       0.338   1.330   0.023  0.00  0.00    -0.270 OA
ATOM     10  H   UNL     1       1.992   3.769   0.944  0.00  0.00    +0.155 HD
BRANCH   8  11
ATOM     11  C   UNL     1      -0.570   3.401   0.605  0.00  0.00    +0.055 A 
ATOM     12  C   UNL     1      -0.328   4.698   1.066  0.00  0.00    +0.016 A 
ATOM     13  C   UNL     1      -1.379   5.574   1.232  0.00  0.00    +0.021 A 
ATOM     14  C   UNL     1      -2.673   5.173   0.942  0.00  0.00    +0.042 A 
ATOM     15  C   UNL     1      -2.921   3.890   0.485  0.00  0.00    +0.040 A 
ATOM     16  C   UNL     1      -1.877   3.003   0.310  0.00  0.00    +0.054 A 
ATOM     17 CL   UNL     1      -2.187   1.397  -0.270  0.00  0.00    -0.083 Cl
ATOM     18 CL   UNL     1      -3.991   6.284   1.154  0.00  0.00    -0.083 Cl
ENDBRANCH   8  11
ENDBRANCH   4   7
BRANCH   1  20
ATOM     19  C   UNL     1       6.165  -1.952   1.469  0.00  0.00    +0.068 C 
ATOM     20  C   UNL     1       6.041  -0.874   0.424  0.00  0.00    +0.063 C 
ATOM     21  N   UNL     1       6.909  -0.802  -0.541  0.00  0.00    -0.184 NA
BRANCH  21  22
ATOM     22  N   UNL     1       6.703   0.089  -1.603  0.00  0.00    -0.199 N 
ATOM     23  C   UNL     1       7.654   0.244  -2.545  0.00  0.00    +0.318 C 
ATOM     24  O   UNL     1       8.689  -0.388  -2.474  0.00  0.00    -0.263 OA
ATOM     25  H   UNL     1       5.877   0.594  -1.659  0.00  0.00    +0.178 HD
BRANCH  23  26
ATOM     26  C   UNL     1       7.435   1.193  -3.676  0.00  0.00    +0.298 C 
ATOM     27  O   UNL     1       6.401   1.825  -3.747  0.00  0.00    -0.265 OA
ATOM     28  N   UNL     1       8.386   1.349  -4.618  0.00  0.00    -0.322 N 
ATOM     29  H   UNL     1       9.212   0.844  -4.562  0.00  0.00    +0.145 HD
ATOM     30  H   UNL     1       8.243   1.965  -5.353  0.00  0.00    +0.145 HD
ENDBRANCH  23  26
ENDBRANCH  21  22
ENDBRANCH   1  20
TORSDOF 5
