REMARK  Name = ZINC04222506
REMARK  9 active torsions:
REMARK  status: ('A' for Active; 'I' for Inactive)
REMARK    1  A    between atoms: C_1  and  C_2
REMARK    2  A    between atoms: C_5  and  O_33
REMARK    3  A    between atoms: C_7  and  C_30
REMARK    4  A    between atoms: C_7  and  C_31
REMARK    5  A    between atoms: N_16  and  C_17
REMARK    6  A    between atoms: C_18  and  C_20
REMARK    7  A    between atoms: C_20  and  C_21
REMARK    8  A    between atoms: N_23  and  C_24
REMARK    9  A    between atoms: C_31  and  O_32
REMARK                            x       y       z     vdW  Elec       q    Type
REMARK                         _______ _______ _______ _____ _____    ______ ____
ROOT
ATOM      1  C   UNL     1       1.082   1.939  -2.451  0.00  0.00    +0.012 C 
ATOM      2  C   UNL     1       1.984   1.516  -1.289  0.00  0.00    -0.019 C 
ATOM      3  C   UNL     1       1.408   2.049   0.028  0.00  0.00    +0.010 C 
ATOM      4  C   UNL     1       0.032   1.441   0.291  0.00  0.00    +0.032 C 
ATOM      5  C   UNL     1       0.177  -0.080   0.397  0.00  0.00    +0.123 C 
ATOM      6  C   UNL     1       0.705  -0.616  -0.932  0.00  0.00    +0.021 C 
ATOM      7  C   UNL     1       2.078  -0.011  -1.242  0.00  0.00    +0.011 C 
ATOM      8  C   UNL     1       2.500  -0.528  -2.631  0.00  0.00    +0.049 C 
ATOM      9  C   UNL     1       3.627   0.286  -3.138  0.00  0.00    +0.015 A 
ATOM     10  C   UNL     1       4.069   1.478  -2.662  0.00  0.00    +0.058 A 
ATOM     11  N   UNL     1       5.113   2.009  -3.295  0.00  0.00    -0.229 NA
ATOM     12  C   UNL     1       5.687   1.416  -4.322  0.00  0.00    +0.158 A 
ATOM     13  S   UNL     1       4.735  -0.030  -4.485  0.00  0.00    -0.057 S 
ATOM     14  N   UNL     1       6.770   1.836  -5.078  0.00  0.00    -0.327 N 
ATOM     15  C   UNL     1       7.250   1.012  -6.191  0.00  0.00    +0.127 C 
ATOM     16  C   UNL     1       3.379   2.127  -1.472  0.00  0.00    +0.054 C 
ATOM     17  C   UNL     1       0.830  -2.139  -0.850  0.00  0.00    +0.016 C 
ATOM     18  H   UNL     1       7.210   2.675  -4.871  0.00  0.00    +0.148 HD
ENDROOT
BRANCH   5  19
ATOM     19  O   UNL     1      -1.097  -0.664   0.678  0.00  0.00    -0.391 OA
ATOM     20  H   UNL     1      -1.496  -0.358   1.503  0.00  0.00    +0.210 HD
ENDBRANCH   5  19
BRANCH  16  21
ATOM     21  C   UNL     1       3.248   3.632  -1.717  0.00  0.00    +0.106 C 
BRANCH  21  22
ATOM     22  C   UNL     1       4.616   4.264  -1.699  0.00  0.00    +0.214 C 
ATOM     23  O   UNL     1       5.599   3.579  -1.509  0.00  0.00    -0.276 OA
ATOM     24  N   UNL     1       4.747   5.591  -1.895  0.00  0.00    -0.312 N 
ATOM     25  H   UNL     1       3.961   6.139  -2.047  0.00  0.00    +0.149 HD
BRANCH  24  26
ATOM     26  C   UNL     1       6.077   6.206  -1.878  0.00  0.00    +0.073 C 
ATOM     27  C   UNL     1       6.471   6.528  -0.435  0.00  0.00    +0.022 C 
ATOM     28  C   UNL     1       7.859   7.171  -0.417  0.00  0.00    +0.002 C 
ATOM     29  C   UNL     1       7.835   8.461  -1.239  0.00  0.00    +0.000 C 
ATOM     30  C   UNL     1       7.441   8.139  -2.682  0.00  0.00    +0.002 C 
ATOM     31  C   UNL     1       6.053   7.496  -2.700  0.00  0.00    +0.022 C 
ENDBRANCH  24  26
ENDBRANCH  21  22
ENDBRANCH  16  21
BRANCH   6  32
ATOM     32  C   UNL     1      -0.272  -0.248  -2.050  0.00  0.00    +0.165 C 
BRANCH  32  33
ATOM     33  O   UNL     1      -1.500  -0.954  -1.862  0.00  0.00    -0.394 OA
ATOM     34  H   UNL     1      -2.167  -0.769  -2.536  0.00  0.00    +0.209 HD
ENDBRANCH  32  33
ENDBRANCH   6  32
TORSDOF 6
