REMARK  Name = ZINC34779502
REMARK  7 active torsions:
REMARK  status: ('A' for Active; 'I' for Inactive)
REMARK    1  A    between atoms: C_1  and  C_2
REMARK    2  A    between atoms: C_2  and  N_3
REMARK    3  A    between atoms: C_7  and  C_27
REMARK    4  A    between atoms: C_8  and  C_23
REMARK    5  A    between atoms: N_11  and  C_14
REMARK    6  A    between atoms: C_14  and  C_15
REMARK    7  A    between atoms: N_25  and  N_26
REMARK                            x       y       z     vdW  Elec       q    Type
REMARK                         _______ _______ _______ _____ _____    ______ ____
ROOT
ATOM      1  N   UNL     1      -1.372  -0.511   0.012  0.00  0.00    -0.261 N 
ATOM      2  C   UNL     1      -1.976  -0.739   1.192  0.00  0.00    +0.265 A 
ATOM      3  O   UNL     1      -1.389  -0.526   2.236  0.00  0.00    -0.267 OA
ATOM      4  C   UNL     1      -3.368  -1.252   1.205  0.00  0.00    +0.074 A 
ATOM      5  C   UNL     1      -4.178  -1.554   2.306  0.00  0.00    -0.017 A 
ATOM      6  C   UNL     1      -5.436  -2.016   2.046  0.00  0.00    +0.081 A 
ATOM      7  S   UNL     1      -5.488  -2.028   0.265  0.00  0.00    -0.065 S 
ATOM      8  C   UNL     1      -3.949  -1.460  -0.054  0.00  0.00    +0.098 A 
ATOM      9  N   UNL     1      -3.256  -1.201  -1.203  0.00  0.00    -0.278 N 
ATOM     10  C   UNL     1      -1.996  -0.731  -1.156  0.00  0.00    +0.333 A 
ATOM     11  O   UNL     1      -1.407  -0.505  -2.196  0.00  0.00    -0.246 OA
ATOM     12  C   UNL     1      -3.683  -1.378   3.718  0.00  0.00    +0.046 C 
ENDROOT
BRANCH   6  13
ATOM     13  C   UNL     1      -6.482  -2.405   2.994  0.00  0.00    +0.264 C 
ATOM     14  O   UNL     1      -6.276  -2.334   4.191  0.00  0.00    -0.268 OA
ATOM     15  N   UNL     1      -7.674  -2.842   2.541  0.00  0.00    -0.249 N 
ATOM     16  H   UNL     1      -7.839  -2.899   1.586  0.00  0.00    +0.169 HD
BRANCH  15  17
ATOM     17  N   UNL     1      -8.650  -3.205   3.425  0.00  0.00    -0.254 NA
ATOM     18  H   UNL     1      -9.481  -3.510   2.941  0.00  0.00    +0.140 HD
ATOM     19  H   UNL     1      -8.318  -3.919   4.057  0.00  0.00    +0.140 HD
ENDBRANCH  15  17
ENDBRANCH   6  13
BRANCH   1  21
ATOM     20  C   UNL     1      -0.019   1.526   0.010  0.00  0.00    +0.027 C 
ATOM     21  C   UNL     1       0.002  -0.004   0.002  0.00  0.00    +0.126 C 
ENDBRANCH   1  21
BRANCH   9  22
ATOM     22  C   UNL     1      -3.895  -1.431  -2.501  0.00  0.00    +0.223 C 
BRANCH  22  23
ATOM     23  C   UNL     1      -4.605  -0.177  -2.941  0.00  0.00    +0.236 C 
ATOM     24  O   UNL     1      -4.580   0.812  -2.240  0.00  0.00    -0.274 OA
ATOM     25  N   UNL     1      -5.268  -0.154  -4.114  0.00  0.00    -0.296 N 
ATOM     26  C   UNL     1      -5.318  -1.343  -4.980  0.00  0.00    +0.136 C 
ATOM     27  C   UNL     1      -6.780  -1.607  -5.355  0.00  0.00    +0.179 C 
ATOM     28  O   UNL     1      -7.354  -0.411  -5.887  0.00  0.00    -0.377 OA
ATOM     29  C   UNL     1      -7.395   0.679  -4.963  0.00  0.00    +0.179 C 
ATOM     30  C   UNL     1      -5.969   1.059  -4.565  0.00  0.00    +0.136 C 
ENDBRANCH  22  23
ENDBRANCH   9  22
TORSDOF 5
