REMARK  Name = ZINC45108082
REMARK  5 active torsions:
REMARK  status: ('A' for Active; 'I' for Inactive)
REMARK    1  A    between atoms: C_1  and  C_2
REMARK    2  A    between atoms: C_2  and  C_3
REMARK    3  A    between atoms: C_2  and  C_4
REMARK    4  A    between atoms: C_2  and  N_7
REMARK    5  A    between atoms: C_14  and  N_18
REMARK                            x       y       z     vdW  Elec       q    Type
REMARK                         _______ _______ _______ _____ _____    ______ ____
ROOT
ATOM      1  N   UNL     1       0.688  -0.476  -1.203  0.00  0.00    -0.220 N 
ATOM      2  C   UNL     1       1.217   0.328  -2.143  0.00  0.00    +0.255 C 
ATOM      3  O   UNL     1       1.202   1.542  -2.127  0.00  0.00    -0.270 OA
ATOM      4  C   UNL     1       1.819  -0.515  -3.197  0.00  0.00    +0.051 A 
ATOM      5  C   UNL     1       2.488  -0.253  -4.380  0.00  0.00    +0.014 A 
ATOM      6  C   UNL     1       2.940  -1.304  -5.167  0.00  0.00    +0.003 A 
ATOM      7  C   UNL     1       2.728  -2.610  -4.783  0.00  0.00    +0.023 A 
ATOM      8  C   UNL     1       2.055  -2.897  -3.594  0.00  0.00    +0.038 A 
ATOM      9  C   UNL     1       1.597  -1.850  -2.795  0.00  0.00    +0.070 A 
ATOM     10  C   UNL     1       0.876  -1.772  -1.513  0.00  0.00    +0.256 C 
ATOM     11  O   UNL     1       0.511  -2.720  -0.847  0.00  0.00    -0.269 OA
ENDROOT
BRANCH   1  13
ATOM     12  C   UNL     1      -0.019   1.526   0.010  0.00  0.00    +0.042 C 
ATOM     13  C   UNL     1       0.002  -0.004   0.002  0.00  0.00    +0.115 C 
ATOM     14  C   UNL     1       0.742  -0.511   1.242  0.00  0.00    +0.042 C 
BRANCH  13  15
ATOM     15  C   UNL     1      -1.412  -0.526   0.013  0.00  0.00    +0.234 C 
ATOM     16  O   UNL     1      -1.939  -0.827   1.062  0.00  0.00    -0.274 OA
ATOM     17  N   UNL     1      -2.090  -0.657  -1.144  0.00  0.00    -0.328 N 
ATOM     18  H   UNL     1      -1.669  -0.416  -1.984  0.00  0.00    +0.145 HD
ATOM     19  H   UNL     1      -3.000  -0.993  -1.137  0.00  0.00    +0.145 HD
ENDBRANCH  13  15
ENDBRANCH   1  13
BRANCH   8  20
ATOM     20  N   UNL     1       1.843  -4.213  -3.210  0.00  0.00    -0.357 N 
ATOM     21  H   UNL     1       2.163  -4.938  -3.768  0.00  0.00    +0.142 HD
ATOM     22  H   UNL     1       1.375  -4.407  -2.383  0.00  0.00    +0.142 HD
ENDBRANCH   8  20
TORSDOF 3
