REMARK  Name = ZINC20292102
REMARK  8 active torsions:
REMARK  status: ('A' for Active; 'I' for Inactive)
REMARK    1  A    between atoms: C_1  and  C_2
REMARK    2  A    between atoms: C_5  and  N_8
REMARK    3  A    between atoms: C_9  and  C_11
REMARK    4  A    between atoms: C_11  and  S_12
REMARK    5  A    between atoms: S_12  and  C_13
REMARK    6  A    between atoms: N_17  and  N_18
REMARK    7  A    between atoms: N_19  and  N_20
REMARK    8  A    between atoms: C_21  and  C_22
REMARK                            x       y       z     vdW  Elec       q    Type
REMARK                         _______ _______ _______ _____ _____    ______ ____
ROOT
ATOM      1  C   UNL     1       0.593  -8.709   2.636  0.00  0.00    +0.210 A 
ATOM      2  N   UNL     1       0.602  -9.365   1.500  0.00  0.00    -0.119 NA
ATOM      3  N   UNL     1       0.736 -10.729   1.789  0.00  0.00    -0.109 NA
ATOM      4  C   UNL     1       0.804 -10.862   3.091  0.00  0.00    +0.254 A 
ATOM      5  N   UNL     1       0.723  -9.616   3.649  0.00  0.00    -0.211 N 
ATOM      6  N   UNL     1       0.940 -12.058   3.783  0.00  0.00    -0.204 N 
ATOM      7  H   UNL     1       0.981 -12.055   4.752  0.00  0.00    +0.177 HD
ENDROOT
BRANCH   5   8
ATOM      8  N   UNL     1       0.763  -9.330   4.984  0.00  0.00    -0.294 N 
ATOM      9  H   UNL     1      -0.164  -9.338   5.383  0.00  0.00    +0.163 HD
ATOM     10  H   UNL     1       1.373  -9.968   5.472  0.00  0.00    +0.163 HD
ENDBRANCH   5   8
BRANCH   6  11
ATOM     11  N   UNL     1       1.018 -13.268   3.081  0.00  0.00    -0.188 NA
ATOM     12  C   UNL     1       1.145 -14.386   3.728  0.00  0.00    +0.138 C 
BRANCH  12  13
ATOM     13  C   UNL     1       1.226 -15.660   2.990  0.00  0.00    -0.004 A 
ATOM     14  C   UNL     1       1.173 -15.666   1.594  0.00  0.00    +0.009 A 
ATOM     15  C   UNL     1       1.251 -16.861   0.909  0.00  0.00    +0.002 A 
ATOM     16  C   UNL     1       1.381 -18.052   1.601  0.00  0.00    +0.015 A 
ATOM     17  C   UNL     1       1.434 -18.054   2.985  0.00  0.00    +0.018 A 
ATOM     18  C   UNL     1       1.363 -16.865   3.683  0.00  0.00    +0.024 A 
ATOM     19 BR   UNL     1       1.611 -19.688   3.920  0.00  0.00    -0.050 Br
ENDBRANCH  12  13
ENDBRANCH   6  11
BRANCH   1  20
ATOM     20  S   UNL     1       0.446  -6.963   2.823  0.00  0.00    -0.075 S 
BRANCH  20  21
ATOM     21  C   UNL     1       0.309  -6.349   1.121  0.00  0.00    +0.173 C 
BRANCH  21  23
ATOM     22  N   UNL     1       0.059  -4.170  -0.021  0.00  0.00    -0.285 N 
ATOM     23  C   UNL     1       0.175  -4.848   1.138  0.00  0.00    +0.227 C 
ATOM     24  O   UNL     1       0.173  -4.251   2.193  0.00  0.00    -0.275 OA
ATOM     25  H   UNL     1      -0.017  -4.651  -0.860  0.00  0.00    +0.155 HD
BRANCH  22  30
ATOM     26  C   UNL     1       0.008   1.503   0.007  0.00  0.00    +0.044 C 
ATOM     27  C   UNL     1       0.022  -0.004  -0.001  0.00  0.00    -0.050 A 
ATOM     28  C   UNL     1       0.777  -0.692   0.931  0.00  0.00    +0.005 A 
ATOM     29  C   UNL     1       0.791  -2.073   0.927  0.00  0.00    +0.023 A 
ATOM     30  C   UNL     1       0.046  -2.771  -0.014  0.00  0.00    +0.033 A 
ATOM     31  C   UNL     1      -0.712  -2.077  -0.948  0.00  0.00    +0.023 A 
ATOM     32  C   UNL     1      -0.726  -0.696  -0.936  0.00  0.00    +0.005 A 
ENDBRANCH  22  30
ENDBRANCH  21  23
ENDBRANCH  20  21
ENDBRANCH   1  20
TORSDOF 7
