REMARK  Name = ZINC40167795
REMARK  6 active torsions:
REMARK  status: ('A' for Active; 'I' for Inactive)
REMARK    1  A    between atoms: C_3  and  N_27
REMARK    2  A    between atoms: C_6  and  C_7
REMARK    3  A    between atoms: C_10  and  N_13
REMARK    4  A    between atoms: N_13  and  C_14
REMARK    5  A    between atoms: C_14  and  N_16
REMARK    6  A    between atoms: N_16  and  C_17
REMARK                            x       y       z     vdW  Elec       q    Type
REMARK                         _______ _______ _______ _____ _____    ______ ____
ROOT
ATOM      1  C   UNL     1      -1.260  -0.787  -0.007  0.00  0.00    -0.018 A 
ATOM      2  C   UNL     1      -2.461  -0.136  -0.284  0.00  0.00    +0.010 A 
ATOM      3  C   UNL     1      -3.645  -0.842  -0.273  0.00  0.00    +0.024 A 
ATOM      4  C   UNL     1      -3.642  -2.201   0.015  0.00  0.00    +0.033 A 
ATOM      5  C   UNL     1      -2.446  -2.853   0.292  0.00  0.00    +0.024 A 
ATOM      6  C   UNL     1      -1.259  -2.153   0.275  0.00  0.00    +0.010 A 
ENDROOT
BRANCH   1  12
ATOM      7  C   UNL     1       0.015   1.335  -0.300  0.00  0.00    +0.010 A 
ATOM      8  C   UNL     1       1.202   2.037  -0.310  0.00  0.00    +0.023 A 
ATOM      9  C   UNL     1       2.398   1.384  -0.038  0.00  0.00    +0.025 A 
ATOM     10  C   UNL     1       2.402   0.022   0.243  0.00  0.00    +0.023 A 
ATOM     11  C   UNL     1       1.218  -0.683   0.253  0.00  0.00    +0.010 A 
ATOM     12  C   UNL     1       0.016  -0.030  -0.018  0.00  0.00    -0.018 A 
BRANCH   9  13
ATOM     13  N   UNL     1       3.599   2.096  -0.048  0.00  0.00    -0.358 N 
ATOM     14  H   UNL     1       3.597   3.046  -0.245  0.00  0.00    +0.142 HD
ATOM     15  H   UNL     1       4.434   1.642   0.141  0.00  0.00    +0.142 HD
ENDBRANCH   9  13
ENDBRANCH   1  12
BRANCH   4  16
ATOM     16  N   UNL     1      -4.845  -2.915   0.026  0.00  0.00    -0.297 N 
ATOM     17  H   UNL     1      -5.010  -3.576   0.716  0.00  0.00    +0.154 HD
BRANCH  16  18
ATOM     18  C   UNL     1      -5.774  -2.684  -0.923  0.00  0.00    +0.135 C 
ATOM     19  S   UNL     1      -5.425  -1.627  -2.224  0.00  0.00    -0.019 S 
BRANCH  18  20
ATOM     20  N   UNL     1      -6.978  -3.286  -0.848  0.00  0.00    -0.320 N 
ATOM     21  H   UNL     1      -7.175  -3.885  -0.111  0.00  0.00    +0.148 HD
BRANCH  20  22
ATOM     22  C   UNL     1      -7.987  -3.036  -1.879  0.00  0.00    +0.112 C 
ATOM     23  C   UNL     1      -9.385  -3.085  -1.223  0.00  0.00    +0.189 C 
ATOM     24  S   UNL     1     -10.383  -3.877  -2.559  0.00  0.00    -0.028 S 
ATOM     25  O   UNL     1     -11.373  -4.712  -1.974  0.00  0.00    -0.174 OA
ATOM     26  O   UNL     1     -10.762  -2.892  -3.510  0.00  0.00    -0.174 OA
ATOM     27  C   UNL     1      -9.039  -4.927  -3.266  0.00  0.00    +0.187 C 
ATOM     28  C   UNL     1      -7.800  -4.049  -2.998  0.00  0.00    +0.123 C 
ATOM     29 CL   UNL     1      -6.415  -5.124  -2.576  0.00  0.00    -0.118 Cl
ENDBRANCH  20  22
ENDBRANCH  18  20
ENDBRANCH  16  18
ENDBRANCH   4  16
TORSDOF 6
