REMARK  Name = ZINC32985894
REMARK  15 active torsions:
REMARK  status: ('A' for Active; 'I' for Inactive)
REMARK    1  A    between atoms: C_1  and  C_2
REMARK    2  A    between atoms: C_5  and  N_8
REMARK    3  A    between atoms: C_9  and  C_11
REMARK    4  A    between atoms: C_11  and  S_12
REMARK    5  A    between atoms: S_12  and  C_13
REMARK    6  A    between atoms: C_13  and  C_14
REMARK    7  A    between atoms: N_16  and  C_17
REMARK    8  A    between atoms: N_16  and  C_22
REMARK    9  A    between atoms: C_17  and  C_18
REMARK   10  A    between atoms: C_18  and  C_19
REMARK   11  A    between atoms: C_19  and  C_20
REMARK   12  A    between atoms: C_19  and  C_21
REMARK   13  A    between atoms: C_23  and  N_38
REMARK   14  A    between atoms: N_24  and  C_31
REMARK   15  A    between atoms: C_31  and  C_32
REMARK                            x       y       z     vdW  Elec       q    Type
REMARK                         _______ _______ _______ _____ _____    ______ ____
ROOT
ATOM      1  C   UNL     1       0.416  -9.505   3.926  0.00  0.00    +0.230 C 
ATOM      2  O   UNL     1       0.106  -8.871   4.913  0.00  0.00    -0.274 OA
ATOM      3  N   UNL     1       0.922 -10.749   4.053  0.00  0.00    -0.264 N 
ENDROOT
BRANCH   3   4
ATOM      4  C   UNL     1       0.988 -11.357   5.325  0.00  0.00    +0.140 A 
ATOM      5  C   UNL     1       1.782 -10.821   6.319  0.00  0.00    +0.128 A 
ATOM      6  N   UNL     1       1.825 -11.436   7.548  0.00  0.00    -0.276 N 
ATOM      7  C   UNL     1       1.102 -12.547   7.779  0.00  0.00    +0.331 A 
ATOM      8  O   UNL     1       1.153 -13.076   8.873  0.00  0.00    -0.246 OA
ATOM      9  N   UNL     1       0.322 -13.083   6.823  0.00  0.00    -0.273 N 
ATOM     10  H   UNL     1      -0.190 -13.884   7.015  0.00  0.00    +0.173 HD
ATOM     11  C   UNL     1       0.241 -12.516   5.603  0.00  0.00    +0.277 A 
ATOM     12  O   UNL     1      -0.472 -13.008   4.745  0.00  0.00    -0.266 OA
BRANCH   5  13
ATOM     13  N   UNL     1       2.522  -9.687   6.082  0.00  0.00    -0.343 N 
ATOM     14  H   UNL     1       2.413  -9.202   5.249  0.00  0.00    +0.144 HD
ATOM     15  H   UNL     1       3.152  -9.372   6.748  0.00  0.00    +0.144 HD
ENDBRANCH   5  13
BRANCH   6  16
ATOM     16  C   UNL     1       2.664 -10.879   8.612  0.00  0.00    +0.163 C 
BRANCH  16  17
ATOM     17  C   UNL     1       1.863  -9.887   9.415  0.00  0.00    -0.028 A 
ATOM     18  C   UNL     1       1.841  -8.555   9.046  0.00  0.00    +0.005 A 
ATOM     19  C   UNL     1       1.107  -7.645   9.783  0.00  0.00    +0.000 A 
ATOM     20  C   UNL     1       0.394  -8.067  10.889  0.00  0.00    +0.000 A 
ATOM     21  C   UNL     1       0.415  -9.399  11.259  0.00  0.00    +0.000 A 
ATOM     22  C   UNL     1       1.147 -10.310  10.519  0.00  0.00    +0.005 A 
ENDBRANCH  16  17
ENDBRANCH   6  16
ENDBRANCH   3   4
BRANCH   1  23
ATOM     23  C   UNL     1       0.235  -8.901   2.557  0.00  0.00    +0.165 C 
BRANCH  23  24
ATOM     24  S   UNL     1      -0.460  -7.234   2.718  0.00  0.00    -0.142 S 
BRANCH  24  25
ATOM     25  C   UNL     1      -0.613  -6.655   1.005  0.00  0.00    +0.165 C 
BRANCH  25  27
ATOM     26  N   UNL     1      -1.391  -4.625  -0.175  0.00  0.00    -0.285 N 
ATOM     27  C   UNL     1      -1.187  -5.261   0.995  0.00  0.00    +0.227 C 
ATOM     28  O   UNL     1      -1.465  -4.713   2.041  0.00  0.00    -0.275 OA
ATOM     29  H   UNL     1      -1.230  -5.087  -1.013  0.00  0.00    +0.155 HD
BRANCH  26  34
ATOM     30  C   UNL     1      -3.193   0.754  -0.203  0.00  0.00    +0.044 C 
ATOM     31  C   UNL     1      -2.714  -0.675  -0.195  0.00  0.00    -0.050 A 
ATOM     32  C   UNL     1      -1.883  -1.119   0.817  0.00  0.00    +0.005 A 
ATOM     33  C   UNL     1      -1.443  -2.428   0.826  0.00  0.00    +0.023 A 
ATOM     34  C   UNL     1      -1.836  -3.298  -0.182  0.00  0.00    +0.033 A 
ATOM     35  C   UNL     1      -2.671  -2.849  -1.196  0.00  0.00    +0.023 A 
ATOM     36  C   UNL     1      -3.112  -1.541  -1.197  0.00  0.00    +0.005 A 
ENDBRANCH  26  34
ENDBRANCH  25  27
ENDBRANCH  24  25
ENDBRANCH  23  24
ENDBRANCH   1  23
BRANCH   3  37
ATOM     37  C   UNL     1       1.404 -11.468   2.872  0.00  0.00    +0.114 C 
BRANCH  37  38
ATOM     38  C   UNL     1       2.881 -11.143   2.643  0.00  0.00    +0.022 C 
BRANCH  38  39
ATOM     39  C   UNL     1       3.384 -11.894   1.409  0.00  0.00    -0.016 C 
ATOM     40  C   UNL     1       4.824 -11.473   1.107  0.00  0.00    +0.007 C 
ATOM     41  C   UNL     1       3.338 -13.400   1.675  0.00  0.00    +0.007 C 
ENDBRANCH  38  39
ENDBRANCH  37  38
ENDBRANCH   3  37
TORSDOF 12
