REMARK  Name = ZINC48141527
REMARK  7 active torsions:
REMARK  status: ('A' for Active; 'I' for Inactive)
REMARK    1  A    between atoms: C_1  and  C_2
REMARK    2  A    between atoms: C_2  and  C_3
REMARK    3  A    between atoms: C_2  and  C_4
REMARK    4  A    between atoms: C_4  and  N_5
REMARK    5  A    between atoms: C_6  and  C_8
REMARK    6  A    between atoms: C_11  and  N_15
REMARK    7  A    between atoms: N_18  and  C_19
REMARK                            x       y       z     vdW  Elec       q    Type
REMARK                         _______ _______ _______ _____ _____    ______ ____
ROOT
ATOM      1  C   UNL     1      -4.065  -0.139  -2.700  0.00  0.00    +0.055 A 
ATOM      2  C   UNL     1      -3.443   0.749  -3.583  0.00  0.00    +0.016 A 
ATOM      3  C   UNL     1      -4.077   1.115  -4.749  0.00  0.00    +0.024 A 
ATOM      4  C   UNL     1      -5.336   0.603  -5.050  0.00  0.00    +0.036 A 
ATOM      5  C   UNL     1      -5.959  -0.280  -4.175  0.00  0.00    +0.044 A 
ATOM      6  C   UNL     1      -5.328  -0.657  -3.009  0.00  0.00    +0.055 A 
ATOM      7 CL   UNL     1      -6.102  -1.766  -1.920  0.00  0.00    -0.083 Cl
ENDROOT
BRANCH   4   8
ATOM      8  N   UNL     1      -5.974   0.977  -6.232  0.00  0.00    -0.269 N 
ATOM      9  C   UNL     1      -7.316   1.092  -6.265  0.00  0.00    +0.304 C 
ATOM     10  O   UNL     1      -7.963   0.965  -5.244  0.00  0.00    -0.252 OA
ATOM     11  N   UNL     1      -7.942   1.349  -7.431  0.00  0.00    -0.292 N 
ATOM     12  H   UNL     1      -5.452   1.155  -7.030  0.00  0.00    +0.156 HD
ATOM     13  H   UNL     1      -7.426   1.450  -8.246  0.00  0.00    +0.151 HD
BRANCH  11  14
ATOM     14  C   UNL     1      -9.401   1.474  -7.468  0.00  0.00    +0.105 C 
ATOM     15  C   UNL     1      -9.929   1.176  -8.887  0.00  0.00    +0.032 C 
ATOM     16  C   UNL     1      -9.972   2.580  -9.526  0.00  0.00    +0.037 C 
ATOM     17  C   UNL     1     -10.141   3.538  -8.367  0.00  0.00    -0.042 A 
ATOM     18  C   UNL     1      -9.813   2.902  -7.181  0.00  0.00    -0.024 A 
ATOM     19  C   UNL     1      -9.895   3.589  -5.982  0.00  0.00    +0.006 A 
ATOM     20  C   UNL     1     -10.303   4.908  -5.963  0.00  0.00    +0.000 A 
ATOM     21  C   UNL     1     -10.631   5.546  -7.144  0.00  0.00    +0.000 A 
ATOM     22  C   UNL     1     -10.549   4.861  -8.348  0.00  0.00    +0.004 A 
ENDBRANCH  11  14
ENDBRANCH   4   8
BRANCH   1  24
ATOM     23  N   UNL     1      -2.173  -0.035  -1.155  0.00  0.00    -0.311 N 
ATOM     24  C   UNL     1      -3.389  -0.534  -1.450  0.00  0.00    +0.245 C 
ATOM     25  O   UNL     1      -3.929  -1.310  -0.686  0.00  0.00    -0.270 OA
ATOM     26  H   UNL     1      -1.742   0.585  -1.765  0.00  0.00    +0.149 HD
BRANCH  23  27
ATOM     27  C   UNL     1      -1.501  -0.427   0.086  0.00  0.00    +0.107 C 
BRANCH  27  29
ATOM     28  C   UNL     1      -0.362   1.788   0.294  0.00  0.00    +0.009 C 
ATOM     29  C   UNL     1      -0.146   0.277   0.177  0.00  0.00    -0.000 C 
ATOM     30  C   UNL     1       0.609  -0.226   1.410  0.00  0.00    +0.009 C 
ENDBRANCH  27  29
ENDBRANCH  23  27
ENDBRANCH   1  24
TORSDOF 5
