REMARK  Name = ZINC51123434
REMARK  7 active torsions:
REMARK  status: ('A' for Active; 'I' for Inactive)
REMARK    1  A    between atoms: C_1  and  C_2
REMARK    2  A    between atoms: C_2  and  C_4
REMARK    3  A    between atoms: C_2  and  N_10
REMARK    4  A    between atoms: C_4  and  N_5
REMARK    5  A    between atoms: C_11  and  C_13
REMARK    6  A    between atoms: C_18  and  N_19
REMARK    7  A    between atoms: N_19  and  N_20
REMARK                            x       y       z     vdW  Elec       q    Type
REMARK                         _______ _______ _______ _____ _____    ______ ____
ROOT
ATOM      1  N   UNL     1       0.725  -0.441   1.201  0.00  0.00    -0.307 N 
ATOM      2  C   UNL     1       0.058  -0.613   2.360  0.00  0.00    +0.248 C 
ATOM      3  O   UNL     1      -1.129  -0.355   2.422  0.00  0.00    -0.270 OA
ATOM      4  H   UNL     1       1.672  -0.646   1.152  0.00  0.00    +0.149 HD
ENDROOT
BRANCH   2   5
ATOM      5  C   UNL     1       0.768  -1.112   3.552  0.00  0.00    +0.079 A 
ATOM      6  C   UNL     1       2.101  -1.528   3.465  0.00  0.00    +0.033 A 
ATOM      7  C   UNL     1       2.722  -1.988   4.614  0.00  0.00    +0.037 A 
ATOM      8  C   UNL     1       2.015  -2.023   5.803  0.00  0.00    +0.128 A 
ATOM      9  N   UNL     1       0.759  -1.627   5.864  0.00  0.00    -0.237 NA
ATOM     10  C   UNL     1       0.119  -1.172   4.797  0.00  0.00    +0.144 A 
ATOM     11 BR   UNL     1       4.522  -2.564   4.557  0.00  0.00    -0.049 Br
BRANCH  10  12
ATOM     12  N   UNL     1      -1.196  -0.761   4.908  0.00  0.00    -0.267 N 
ATOM     13  H   UNL     1      -1.694  -0.508   4.115  0.00  0.00    +0.167 HD
BRANCH  12  14
ATOM     14  N   UNL     1      -1.796  -0.712   6.135  0.00  0.00    -0.255 NA
ATOM     15  H   UNL     1      -1.271  -0.129   6.770  0.00  0.00    +0.140 HD
ATOM     16  H   UNL     1      -2.751  -0.395   6.058  0.00  0.00    +0.140 HD
ENDBRANCH  12  14
ENDBRANCH  10  12
ENDBRANCH   2   5
BRANCH   1  18
ATOM     17  C   UNL     1      -0.020   1.584   0.050  0.00  0.00    +0.029 C 
ATOM     18  C   UNL     1       0.020   0.055   0.017  0.00  0.00    +0.090 C 
BRANCH  18  19
ATOM     19  C   UNL     1       0.752  -0.409  -1.244  0.00  0.00    +0.144 C 
BRANCH  19  20
ATOM     20  N   UNL     1       0.687  -1.870  -1.337  0.00  0.00    -0.335 N 
ATOM     21  C   UNL     1       1.585  -2.758  -0.811  0.00  0.00    +0.107 A 
ATOM     22  C   UNL     1       1.145  -3.991  -1.128  0.00  0.00    +0.130 A 
ATOM     23  N   UNL     1       0.009  -3.859  -1.828  0.00  0.00    -0.244 NA
ATOM     24  C   UNL     1      -0.274  -2.591  -1.954  0.00  0.00    +0.199 A 
ENDBRANCH  19  20
ENDBRANCH  18  19
ENDBRANCH   1  18
TORSDOF 6
