REMARK  Name = ZINC21458622
REMARK  8 active torsions:
REMARK  status: ('A' for Active; 'I' for Inactive)
REMARK    1  A    between atoms: C_1  and  C_2
REMARK    2  A    between atoms: C_5  and  S_8
REMARK    3  A    between atoms: N_6  and  N_7
REMARK    4  A    between atoms: S_8  and  C_9
REMARK    5  A    between atoms: C_9  and  C_11
REMARK    6  A    between atoms: C_9  and  C_12
REMARK    7  A    between atoms: N_14  and  C_15
REMARK    8  A    between atoms: C_19  and  C_21
REMARK                            x       y       z     vdW  Elec       q    Type
REMARK                         _______ _______ _______ _____ _____    ______ ____
ROOT
ATOM      1  C   UNL     1       3.569   3.469  -0.115  0.00  0.00    +0.230 C 
ATOM      2  O   UNL     1       2.513   4.066  -0.102  0.00  0.00    -0.274 OA
ATOM      3  N   UNL     1       3.584   2.125  -0.020  0.00  0.00    -0.285 N 
ATOM      4  H   UNL     1       4.543   1.589   0.045  0.00  0.00    +0.155 HD
ENDROOT
BRANCH   3   5
ATOM      5  C   UNL     1       2.381   1.410  -0.005  0.00  0.00    +0.034 A 
ATOM      6  C   UNL     1       1.261   1.946   0.619  0.00  0.00    +0.025 A 
ATOM      7  C   UNL     1       0.075   1.240   0.632  0.00  0.00    +0.022 A 
ATOM      8  C   UNL     1       0.001  -0.002   0.026  0.00  0.00    +0.053 A 
ATOM      9  C   UNL     1       1.115  -0.538  -0.596  0.00  0.00    +0.075 A 
ATOM     10  C   UNL     1       2.304   0.164  -0.613  0.00  0.00    +0.037 A 
ATOM     11 CL   UNL     1      -1.492  -0.888   0.045  0.00  0.00    -0.083 Cl
BRANCH   9  12
ATOM     12  C   UNL     1       1.030  -1.891  -1.256  0.00  0.00    +0.419 C 
ATOM     13  F   UNL     1       2.272  -2.217  -1.811  0.00  0.00    -0.166 F 
ATOM     14  F   UNL     1       0.679  -2.853  -0.303  0.00  0.00    -0.166 F 
ATOM     15  F   UNL     1       0.062  -1.858  -2.265  0.00  0.00    -0.166 F 
ENDBRANCH   9  12
ENDBRANCH   3   5
BRANCH   1  16
ATOM     16  C   UNL     1       4.863   4.231  -0.236  0.00  0.00    +0.137 C 
ATOM     17  C   UNL     1       5.503   4.374   1.146  0.00  0.00    +0.029 C 
BRANCH  16  18
ATOM     18  S   UNL     1       4.534   5.874  -0.921  0.00  0.00    -0.072 S 
BRANCH  18  23
ATOM     19  C   UNL     1       8.825   8.837  -1.947  0.00  0.00    +0.090 C 
ATOM     20  C   UNL     1       7.926   7.704  -1.523  0.00  0.00    +0.148 A 
ATOM     21  N   UNL     1       8.307   6.556  -1.039  0.00  0.00    -0.132 NA
ATOM     22  N   UNL     1       7.283   5.823  -0.783  0.00  0.00    -0.121 NA
ATOM     23  C   UNL     1       6.184   6.469  -1.094  0.00  0.00    +0.209 A 
ATOM     24  N   UNL     1       6.560   7.688  -1.581  0.00  0.00    -0.228 N 
BRANCH  24  25
ATOM     25  N   UNL     1       5.742   8.685  -2.031  0.00  0.00    -0.295 N 
ATOM     26  H   UNL     1       4.650   8.546  -2.025  0.00  0.00    +0.163 HD
ATOM     27  H   UNL     1       6.174   9.628  -2.398  0.00  0.00    +0.163 HD
ENDBRANCH  24  25
ENDBRANCH  18  23
ENDBRANCH  16  18
ENDBRANCH   1  16
TORSDOF 6
