REMARK  Name = ZINC15972888
REMARK  7 active torsions:
REMARK  status: ('A' for Active; 'I' for Inactive)
REMARK    1  A    between atoms: C_1  and  C_2
REMARK    2  A    between atoms: C_2  and  C_4
REMARK    3  A    between atoms: C_2  and  O_33
REMARK    4  A    between atoms: C_7  and  C_21
REMARK    5  A    between atoms: N_23  and  C_24
REMARK    6  A    between atoms: C_29  and  O_30
REMARK    7  A    between atoms: O_30  and  C_31
REMARK                            x       y       z     vdW  Elec       q    Type
REMARK                         _______ _______ _______ _____ _____    ______ ____
ROOT
ATOM      1  C   UNL     1       0.614  -0.882   1.008  0.00  0.00    +0.084 C 
ATOM      2  C   UNL     1       0.863  -2.412   0.992  0.00  0.00    +0.036 C 
ATOM      3  C   UNL     1       2.082  -2.574   1.933  0.00  0.00    +0.110 C 
ATOM      4  C   UNL     1       2.753  -1.196   1.947  0.00  0.00    +0.135 C 
ATOM      5  N   UNL     1       1.985  -0.308   1.057  0.00  0.00    -0.294 NA
ATOM      6  C   UNL     1       4.191  -1.290   1.515  0.00  0.00    +0.005 A 
ATOM      7  C   UNL     1       4.804  -1.718   0.358  0.00  0.00    +0.027 A 
ATOM      8  C   UNL     1       6.184  -1.685   0.253  0.00  0.00    +0.041 A 
ATOM      9  C   UNL     1       6.944  -1.222   1.313  0.00  0.00    +0.022 A 
ATOM     10  C   UNL     1       6.333  -0.793   2.473  0.00  0.00    +0.025 A 
ATOM     11  C   UNL     1       4.945  -0.823   2.586  0.00  0.00    +0.039 A 
ATOM     12  N   UNL     1       4.108  -0.450   3.640  0.00  0.00    -0.283 N 
ATOM     13  C   UNL     1       2.808  -0.637   3.346  0.00  0.00    +0.243 C 
ATOM     14  O   UNL     1       1.862  -0.402   4.068  0.00  0.00    -0.273 OA
ATOM     15 CL   UNL     1       6.960  -2.223  -1.204  0.00  0.00    -0.084 Cl
ATOM     16  H   UNL     1       2.397  -0.276   0.137  0.00  0.00    +0.124 HD
ATOM     17  H   UNL     1       4.426  -0.096   4.485  0.00  0.00    +0.155 HD
ENDROOT
BRANCH   3  18
ATOM     18  C   UNL     1       1.627  -2.952   3.319  0.00  0.00    +0.223 C 
ATOM     19  O   UNL     1       0.496  -2.699   3.677  0.00  0.00    -0.275 OA
ATOM     20  N   UNL     1       2.477  -3.572   4.162  0.00  0.00    -0.282 N 
ATOM     21  H   UNL     1       3.405  -3.700   3.908  0.00  0.00    +0.155 HD
BRANCH  20  22
ATOM     22  C   UNL     1       2.022  -4.032   5.404  0.00  0.00    +0.077 A 
ATOM     23  C   UNL     1       0.665  -4.222   5.620  0.00  0.00    +0.047 A 
ATOM     24  C   UNL     1       0.218  -4.676   6.848  0.00  0.00    +0.043 A 
ATOM     25  C   UNL     1       1.121  -4.941   7.862  0.00  0.00    +0.024 A 
ATOM     26  C   UNL     1       2.475  -4.753   7.653  0.00  0.00    +0.049 A 
ATOM     27  C   UNL     1       2.931  -4.304   6.424  0.00  0.00    +0.141 A 
ATOM     28 CL   UNL     1      -1.481  -4.914   7.117  0.00  0.00    -0.083 Cl
BRANCH  27  29
ATOM     29  O   UNL     1       4.263  -4.125   6.215  0.00  0.00    -0.493 OA
ATOM     30  C   UNL     1       5.136  -4.425   7.306  0.00  0.00    +0.277 C 
ENDBRANCH  27  29
ENDBRANCH  20  22
ENDBRANCH   3  18
BRANCH   1  32
ATOM     31  C   UNL     1      -0.182   1.087  -0.308  0.00  0.00    +0.039 C 
ATOM     32  C   UNL     1      -0.110  -0.441  -0.266  0.00  0.00    +0.128 C 
BRANCH  32  33
ATOM     33  O   UNL     1       0.604  -0.916  -1.409  0.00  0.00    -0.391 OA
ATOM     34  H   UNL     1       1.512  -0.590  -1.469  0.00  0.00    +0.210 HD
ENDBRANCH  32  33
ENDBRANCH   1  32
TORSDOF 5
