REMARK  Name = ZINC42250296
REMARK  3 active torsions:
REMARK  status: ('A' for Active; 'I' for Inactive)
REMARK    1  A    between atoms: C_6  and  C_7
REMARK    2  A    between atoms: N_9  and  S_10
REMARK    3  A    between atoms: S_10  and  C_13
REMARK                            x       y       z     vdW  Elec       q    Type
REMARK                         _______ _______ _______ _____ _____    ______ ____
ROOT
ATOM      1  C   UNL     1      -1.268  -0.764   0.010  0.00  0.00    +0.295 C 
ATOM      2  O   UNL     1      -2.449  -0.106   0.025  0.00  0.00    -0.264 OA
ATOM      3  N   UNL     1      -1.247  -2.064   0.003  0.00  0.00    -0.086 NA
ENDROOT
BRANCH   1   9
ATOM      4  C   UNL     1      -0.017   1.391   0.010  0.00  0.00    +0.014 A 
ATOM      5  C   UNL     1       1.170   2.094   0.002  0.00  0.00    +0.016 A 
ATOM      6  C   UNL     1       2.378   1.418  -0.013  0.00  0.00    +0.018 A 
ATOM      7  C   UNL     1       2.403   0.034  -0.021  0.00  0.00    +0.016 A 
ATOM      8  C   UNL     1       1.223  -0.680  -0.014  0.00  0.00    +0.014 A 
ATOM      9  C   UNL     1       0.002  -0.004   0.002  0.00  0.00    +0.043 A 
ATOM     10 BR   UNL     1       4.000   2.390  -0.025  0.00  0.00    -0.050 Br
ENDBRANCH   1   9
BRANCH   3  11
ATOM     11  S   UNL     1      -2.668  -2.914   0.012  0.00  0.00    +0.102 S 
ATOM     12  O   UNL     1      -3.287  -2.657   1.265  0.00  0.00    -0.146 OA
ATOM     13  O   UNL     1      -3.311  -2.644  -1.226  0.00  0.00    -0.146 OA
BRANCH  11  14
ATOM     14  C   UNL     1      -2.250  -4.626  -0.001  0.00  0.00    +0.113 A 
ATOM     15  C   UNL     1      -2.092  -5.290  -1.204  0.00  0.00    +0.032 A 
ATOM     16  C   UNL     1      -1.765  -6.632  -1.216  0.00  0.00    +0.040 A 
ATOM     17  C   UNL     1      -1.594  -7.313  -0.022  0.00  0.00    +0.124 A 
ATOM     18  C   UNL     1      -1.753  -6.647   1.182  0.00  0.00    +0.040 A 
ATOM     19  C   UNL     1      -2.075  -5.304   1.191  0.00  0.00    +0.032 A 
ATOM     20  F   UNL     1      -1.274  -8.625  -0.032  0.00  0.00    -0.205 F 
ENDBRANCH  11  14
ENDBRANCH   3  11
TORSDOF 3
