REMARK  Name = ZINC53664954
REMARK  6 active torsions:
REMARK  status: ('A' for Active; 'I' for Inactive)
REMARK    1  A    between atoms: C_1  and  C_2
REMARK    2  A    between atoms: C_2  and  C_3
REMARK    3  A    between atoms: N_5  and  C_6
REMARK    4  A    between atoms: C_9  and  N_12
REMARK    5  A    between atoms: C_13  and  C_15
REMARK    6  A    between atoms: C_15  and  C_16
REMARK                            x       y       z     vdW  Elec       q    Type
REMARK                         _______ _______ _______ _____ _____    ______ ____
ROOT
ATOM      1  N   UNL     1      -6.981  -3.430  -0.151  0.00  0.00    -0.285 N 
ATOM      2  C   UNL     1      -7.303  -4.732  -0.024  0.00  0.00    +0.219 C 
ATOM      3  O   UNL     1      -6.429  -5.570   0.035  0.00  0.00    -0.275 OA
ATOM      4  H   UNL     1      -7.679  -2.766  -0.266  0.00  0.00    +0.155 HD
ENDROOT
BRANCH   1   8
ATOM      5  C   UNL     1      -2.981  -2.253  -0.056  0.00  0.00    +0.033 A 
ATOM      6  C   UNL     1      -3.959  -1.434   0.493  0.00  0.00    +0.025 A 
ATOM      7  C   UNL     1      -5.283  -1.824   0.461  0.00  0.00    +0.025 A 
ATOM      8  C   UNL     1      -5.637  -3.034  -0.120  0.00  0.00    +0.033 A 
ATOM      9  C   UNL     1      -4.659  -3.853  -0.669  0.00  0.00    +0.025 A 
ATOM     10  C   UNL     1      -3.336  -3.461  -0.642  0.00  0.00    +0.025 A 
BRANCH   5  13
ATOM     11  C   UNL     1      -0.821  -2.163  -1.052  0.00  0.00    +0.217 C 
ATOM     12  O   UNL     1      -1.226  -2.850  -1.966  0.00  0.00    -0.275 OA
ATOM     13  N   UNL     1      -1.638  -1.858  -0.024  0.00  0.00    -0.286 N 
ATOM     14  H   UNL     1      -1.295  -1.365   0.738  0.00  0.00    +0.155 HD
BRANCH  11  16
ATOM     15  C   UNL     1       1.301  -2.136  -2.334  0.00  0.00    +0.013 C 
ATOM     16  C   UNL     1       0.596  -1.649  -1.067  0.00  0.00    +0.093 C 
ENDBRANCH  11  16
ENDBRANCH   5  13
ENDBRANCH   1   8
BRANCH   2  17
ATOM     17  C   UNL     1      -8.750  -5.146   0.047  0.00  0.00    +0.120 C 
BRANCH  17  18
ATOM     18  C   UNL     1      -8.839  -6.667   0.190  0.00  0.00    +0.146 C 
ATOM     19  C   UNL     1     -10.277  -7.076   0.374  0.00  0.00    +0.231 C 
ATOM     20  O   UNL     1     -10.677  -7.289   1.499  0.00  0.00    -0.274 OA
ATOM     21  N   UNL     1     -11.130  -7.213  -0.637  0.00  0.00    -0.284 N 
ATOM     22  C   UNL     1     -10.830  -7.127  -1.993  0.00  0.00    +0.047 A 
ATOM     23  C   UNL     1     -11.865  -6.949  -2.906  0.00  0.00    +0.024 A 
ATOM     24  C   UNL     1     -11.593  -6.850  -4.256  0.00  0.00    +0.002 A 
ATOM     25  C   UNL     1     -10.291  -6.926  -4.717  0.00  0.00    +0.001 A 
ATOM     26  C   UNL     1      -9.253  -7.106  -3.821  0.00  0.00    +0.016 A 
ATOM     27  C   UNL     1      -9.521  -7.210  -2.466  0.00  0.00    +0.030 A 
ATOM     28  S   UNL     1      -8.197  -7.461  -1.315  0.00  0.00    -0.110 S 
ATOM     29  H   UNL     1     -12.054  -7.392  -0.405  0.00  0.00    +0.155 HD
ENDBRANCH  17  18
ENDBRANCH   2  17
TORSDOF 5
