REMARK  Name = ZINC45365867
REMARK  4 active torsions:
REMARK  status: ('A' for Active; 'I' for Inactive)
REMARK    1  A    between atoms: C_3  and  N_9
REMARK    2  A    between atoms: N_12  and  C_13
REMARK    3  A    between atoms: C_16  and  N_19
REMARK    4  A    between atoms: C_26  and  C_28
REMARK                            x       y       z     vdW  Elec       q    Type
REMARK                         _______ _______ _______ _____ _____    ______ ____
ROOT
ATOM      1  C   UNL     1       4.815   5.556  -0.186  0.00  0.00    +0.035 A 
ATOM      2  C   UNL     1       3.607   6.241  -0.164  0.00  0.00    +0.025 A 
ATOM      3  C   UNL     1       3.596   7.622  -0.152  0.00  0.00    +0.028 A 
ATOM      4  C   UNL     1       4.793   8.325  -0.164  0.00  0.00    +0.047 A 
ATOM      5  C   UNL     1       6.001   7.641  -0.187  0.00  0.00    +0.028 A 
ATOM      6  C   UNL     1       6.012   6.260  -0.192  0.00  0.00    +0.025 A 
ENDROOT
BRANCH   4   7
ATOM      7  N   UNL     1       4.782   9.727  -0.154  0.00  0.00    -0.314 N 
ATOM      8  C   UNL     1       4.039  10.515  -0.992  0.00  0.00    +0.094 A 
ATOM      9  C   UNL     1       4.258  11.811  -0.719  0.00  0.00    +0.048 A 
ATOM     10  C   UNL     1       5.221  11.862   0.385  0.00  0.00    +0.090 A 
ATOM     11  C   UNL     1       5.511  10.517   0.704  0.00  0.00    +0.072 A 
ATOM     12  C   UNL     1       6.406  10.243   1.735  0.00  0.00    +0.030 A 
ATOM     13  C   UNL     1       6.974  11.306   2.411  0.00  0.00    +0.035 A 
ATOM     14  C   UNL     1       6.640  12.613   2.046  0.00  0.00    +0.126 A 
ATOM     15  N   UNL     1       5.793  12.851   1.056  0.00  0.00    -0.241 NA
BRANCH  14  16
ATOM     16  C   UNL     1       7.250  13.750   2.772  0.00  0.00    +0.260 C 
ATOM     17  O   UNL     1       8.034  13.543   3.677  0.00  0.00    -0.269 OA
ATOM     18  N   UNL     1       6.936  15.015   2.429  0.00  0.00    -0.324 N 
ATOM     19  H   UNL     1       6.310  15.181   1.707  0.00  0.00    +0.145 HD
ATOM     20  H   UNL     1       7.336  15.760   2.905  0.00  0.00    +0.145 HD
ENDBRANCH  14  16
ENDBRANCH   4   7
BRANCH   1  24
ATOM     21  N   UNL     1       3.799   2.135  -0.757  0.00  0.00    -0.268 N 
ATOM     22  C   UNL     1       3.850   3.479  -0.836  0.00  0.00    +0.308 C 
ATOM     23  O   UNL     1       3.015   4.082  -1.483  0.00  0.00    -0.252 OA
ATOM     24  N   UNL     1       4.825   4.156  -0.198  0.00  0.00    -0.269 N 
ATOM     25  H   UNL     1       4.415   1.660  -0.178  0.00  0.00    +0.156 HD
ATOM     26  H   UNL     1       5.535   3.672   0.253  0.00  0.00    +0.156 HD
BRANCH  21  29
ATOM     27  C   UNL     1       1.344   1.307  -3.368  0.00  0.00    +0.003 A 
ATOM     28  C   UNL     1       2.273   2.010  -2.625  0.00  0.00    +0.025 A 
ATOM     29  C   UNL     1       2.857   1.425  -1.510  0.00  0.00    +0.055 A 
ATOM     30  C   UNL     1       2.505   0.131  -1.144  0.00  0.00    +0.080 A 
ATOM     31  C   UNL     1       1.575  -0.568  -1.891  0.00  0.00    +0.061 A 
ATOM     32  C   UNL     1       0.995   0.021  -3.002  0.00  0.00    +0.021 A 
ATOM     33 CL   UNL     1       1.133  -2.184  -1.436  0.00  0.00    -0.082 Cl
ATOM     34 CL   UNL     1       3.233  -0.607   0.249  0.00  0.00    -0.080 Cl
ENDBRANCH  21  29
ENDBRANCH   1  24
TORSDOF 4
