REMARK  Name = ZINC51993483
REMARK  5 active torsions:
REMARK  status: ('A' for Active; 'I' for Inactive)
REMARK    1  A    between atoms: C_4  and  S_8
REMARK    2  A    between atoms: C_6  and  N_7
REMARK    3  A    between atoms: S_8  and  N_11
REMARK    4  A    between atoms: N_11  and  C_12
REMARK    5  A    between atoms: C_18  and  O_20
REMARK                            x       y       z     vdW  Elec       q    Type
REMARK                         _______ _______ _______ _____ _____    ______ ____
ROOT
ATOM      1  S   UNL     1       3.939  -0.827  -0.041  0.00  0.00    +0.062 S 
ATOM      2  O   UNL     1       4.740  -0.248   0.980  0.00  0.00    -0.153 OA
ATOM      3  O   UNL     1       3.632  -2.214  -0.073  0.00  0.00    -0.153 OA
ENDROOT
BRANCH   1   7
ATOM      4  C   UNL     1      -0.017   1.384   0.010  0.00  0.00    +0.025 A 
ATOM      5  C   UNL     1       1.171   2.090   0.002  0.00  0.00    +0.042 A 
ATOM      6  C   UNL     1       2.379   1.414  -0.013  0.00  0.00    +0.150 A 
ATOM      7  C   UNL     1       2.400   0.030  -0.021  0.00  0.00    +0.142 A 
ATOM      8  C   UNL     1       1.215  -0.680  -0.014  0.00  0.00    +0.054 A 
ATOM      9  C   UNL     1       0.002  -0.004   0.002  0.00  0.00    +0.027 A 
ATOM     10  F   UNL     1       3.539   2.107  -0.020  0.00  0.00    -0.203 F 
BRANCH   9  11
ATOM     11  N   UNL     1      -1.198  -0.721   0.010  0.00  0.00    -0.358 N 
ATOM     12  H   UNL     1      -2.046  -0.248   0.021  0.00  0.00    +0.142 HD
ATOM     13  H   UNL     1      -1.185  -1.690   0.005  0.00  0.00    +0.142 HD
ENDBRANCH   9  11
ENDBRANCH   1   7
BRANCH   1  14
ATOM     14  N   UNL     1       4.678  -0.473  -1.480  0.00  0.00    -0.184 NA
ATOM     15  H   UNL     1       4.832  -1.174  -2.132  0.00  0.00    +0.148 HD
BRANCH  14  16
ATOM     16  C   UNL     1       5.101   0.900  -1.768  0.00  0.00    +0.105 C 
ATOM     17  C   UNL     1       4.010   1.611  -2.572  0.00  0.00    +0.023 C 
ATOM     18  C   UNL     1       4.451   3.045  -2.873  0.00  0.00    +0.002 C 
ATOM     19  C   UNL     1       5.748   3.020  -3.684  0.00  0.00    +0.003 C 
ATOM     20  C   UNL     1       6.838   2.309  -2.880  0.00  0.00    +0.033 C 
ATOM     21  C   UNL     1       6.398   0.875  -2.579  0.00  0.00    +0.133 C 
BRANCH  21  22
ATOM     22  O   UNL     1       7.416   0.211  -1.829  0.00  0.00    -0.390 OA
ATOM     23  H   UNL     1       8.268   0.159  -2.283  0.00  0.00    +0.210 HD
ENDBRANCH  21  22
ENDBRANCH  14  16
ENDBRANCH   1  14
TORSDOF 5
