REMARK  Name = ZINC06753022
REMARK  10 active torsions:
REMARK  status: ('A' for Active; 'I' for Inactive)
REMARK    1  A    between atoms: C_1  and  C_2
REMARK    2  A    between atoms: C_2  and  C_3
REMARK    3  A    between atoms: C_2  and  C_4
REMARK    4  A    between atoms: C_2  and  C_5
REMARK    5  A    between atoms: C_8  and  C_11
REMARK    6  A    between atoms: C_14  and  C_25
REMARK    7  A    between atoms: N_21  and  C_22
REMARK    8  A    between atoms: C_22  and  C_23
REMARK    9  A    between atoms: C_23  and  O_24
REMARK   10  A    between atoms: C_30  and  O_31
REMARK                            x       y       z     vdW  Elec       q    Type
REMARK                         _______ _______ _______ _____ _____    ______ ____
ROOT
ATOM      1  C   UNL     1       2.693  -1.469  -4.431  0.00  0.00    +0.141 C 
ATOM      2  C   UNL     1       2.642  -0.647  -5.690  0.00  0.00    +0.035 A 
ATOM      3  C   UNL     1       1.851  -0.032  -6.666  0.00  0.00    +0.102 A 
ATOM      4  N   UNL     1       2.664   0.553  -7.523  0.00  0.00    -0.173 NA
ATOM      5  N   UNL     1       3.891   0.368  -7.185  0.00  0.00    -0.272 N 
ATOM      6  H   UNL     1       4.659   0.708  -7.669  0.00  0.00    +0.189 HD
ATOM      7  C   UNL     1       3.951  -0.378  -6.042  0.00  0.00    +0.126 A 
ATOM      8  C   UNL     1       4.838  -1.000  -5.052  0.00  0.00    +0.266 C 
ATOM      9  O   UNL     1       6.052  -0.947  -5.078  0.00  0.00    -0.268 OA
ATOM     10  N   UNL     1       4.116  -1.637  -4.111  0.00  0.00    -0.283 N 
ENDROOT
BRANCH   1  14
ATOM     11  C   UNL     1       0.703   0.583  -1.257  0.00  0.00    -0.042 A 
ATOM     12  C   UNL     1       1.895   1.073  -1.756  0.00  0.00    +0.004 A 
ATOM     13  C   UNL     1       2.539   0.408  -2.783  0.00  0.00    +0.006 A 
ATOM     14  C   UNL     1       1.991  -0.746  -3.311  0.00  0.00    -0.022 A 
ATOM     15  C   UNL     1       0.799  -1.236  -2.811  0.00  0.00    +0.006 A 
ATOM     16  C   UNL     1       0.157  -0.574  -1.781  0.00  0.00    +0.004 A 
BRANCH  11  18
ATOM     17  C   UNL     1      -0.126   0.377   1.072  0.00  0.00    +0.015 C 
ATOM     18  C   UNL     1       0.001   1.307  -0.137  0.00  0.00    -0.013 C 
ATOM     19  C   UNL     1      -1.394   1.733  -0.600  0.00  0.00    +0.015 C 
ATOM     20  C   UNL     1       0.808   2.546   0.255  0.00  0.00    +0.015 C 
ENDBRANCH  11  18
ENDBRANCH   1  14
BRANCH   3  21
ATOM     21  C   UNL     1       0.368  -0.037  -6.726  0.00  0.00    +0.044 A 
ATOM     22  C   UNL     1      -0.366  -0.799  -5.821  0.00  0.00    +0.014 A 
ATOM     23  C   UNL     1      -1.745  -0.801  -5.880  0.00  0.00    +0.001 A 
ATOM     24  C   UNL     1      -2.402  -0.047  -6.837  0.00  0.00    +0.004 A 
ATOM     25  C   UNL     1      -1.683   0.713  -7.740  0.00  0.00    +0.046 A 
ATOM     26  C   UNL     1      -0.298   0.729  -7.687  0.00  0.00    +0.126 A 
BRANCH  26  27
ATOM     27  O   UNL     1       0.409   1.480  -8.570  0.00  0.00    -0.506 OA
ATOM     28  H   UNL     1       0.639   1.016  -9.386  0.00  0.00    +0.292 HD
ENDBRANCH  26  27
ENDBRANCH   3  21
BRANCH  10  29
ATOM     29  C   UNL     1       4.657  -2.372  -2.964  0.00  0.00    +0.137 C 
BRANCH  29  30
ATOM     30  C   UNL     1       4.879  -3.835  -3.355  0.00  0.00    +0.175 C 
BRANCH  30  31
ATOM     31  O   UNL     1       5.890  -3.910  -4.363  0.00  0.00    -0.393 OA
ATOM     32  H   UNL     1       6.084  -4.810  -4.659  0.00  0.00    +0.209 HD
ENDBRANCH  30  31
ENDBRANCH  29  30
ENDBRANCH  10  29
TORSDOF 7
