REMARK  Name = ZINC59367476
REMARK  7 active torsions:
REMARK  status: ('A' for Active; 'I' for Inactive)
REMARK    1  A    between atoms: C_1  and  C_2
REMARK    2  A    between atoms: C_2  and  C_3
REMARK    3  A    between atoms: C_3  and  C_4
REMARK    4  A    between atoms: C_5  and  C_17
REMARK    5  A    between atoms: C_6  and  N_16
REMARK    6  A    between atoms: C_10  and  N_15
REMARK    7  A    between atoms: C_11  and  C_13
REMARK                            x       y       z     vdW  Elec       q    Type
REMARK                         _______ _______ _______ _____ _____    ______ ____
ROOT
ATOM      1  C   UNL     1       0.225  -2.042  -0.517  0.00  0.00    -0.015 A 
ATOM      2  C   UNL     1       1.109  -2.751   0.287  0.00  0.00    +0.095 A 
ATOM      3  C   UNL     1       1.165  -4.158   0.201  0.00  0.00    +0.135 A 
ATOM      4  N   UNL     1       0.378  -4.802  -0.645  0.00  0.00    -0.224 NA
ATOM      5  C   UNL     1      -0.471  -4.161  -1.422  0.00  0.00    +0.114 A 
ATOM      6  C   UNL     1      -0.610  -2.752  -1.410  0.00  0.00    +0.034 A 
ATOM      7  C   UNL     1      -1.603  -2.223  -2.333  0.00  0.00    +0.059 A 
ATOM      8  C   UNL     1      -2.308  -3.111  -3.115  0.00  0.00    +0.112 A 
ATOM      9  S   UNL     1      -1.646  -4.696  -2.642  0.00  0.00    -0.056 S 
ENDROOT
BRANCH   7  10
ATOM     10  N   UNL     1      -1.835  -0.855  -2.423  0.00  0.00    -0.356 N 
ATOM     11  H   UNL     1      -1.137  -0.228  -2.178  0.00  0.00    +0.142 HD
ATOM     12  H   UNL     1      -2.695  -0.528  -2.730  0.00  0.00    +0.142 HD
ENDBRANCH   7  10
BRANCH   3  13
ATOM     13  N   UNL     1       2.044  -4.864   1.001  0.00  0.00    -0.342 N 
ATOM     14  H   UNL     1       2.622  -4.392   1.621  0.00  0.00    +0.144 HD
ATOM     15  H   UNL     1       2.084  -5.831   0.942  0.00  0.00    +0.144 HD
ENDBRANCH   3  13
BRANCH   8  16
ATOM     16  C   UNL     1      -3.324  -2.827  -4.084  0.00  0.00    +0.108 C 
ATOM     17  N   UNL     1      -4.130  -2.602  -4.853  0.00  0.00    -0.190 NA
ENDBRANCH   8  16
BRANCH   2  18
ATOM     18  C   UNL     1       1.961  -2.054   1.202  0.00  0.00    +0.103 C 
ATOM     19  N   UNL     1       2.638  -1.501   1.928  0.00  0.00    -0.191 NA
ENDBRANCH   2  18
BRANCH   1  20
ATOM     20  C   UNL     1       0.154  -0.539  -0.435  0.00  0.00    +0.037 C 
BRANCH  20  22
ATOM     21  C   UNL     1       0.966   1.599  -1.440  0.00  0.00    +0.004 C 
ATOM     22  C   UNL     1       1.039   0.073  -1.524  0.00  0.00    +0.001 C 
ENDBRANCH  20  22
ENDBRANCH   1  20
TORSDOF 6
