REMARK  Name = ZINC21256857
REMARK  9 active torsions:
REMARK  status: ('A' for Active; 'I' for Inactive)
REMARK    1  A    between atoms: C_1  and  C_2
REMARK    2  A    between atoms: C_2  and  C_3
REMARK    3  A    between atoms: C_2  and  O_4
REMARK    4  A    between atoms: O_4  and  C_5
REMARK    5  A    between atoms: C_8  and  C_13
REMARK    6  A    between atoms: C_10  and  O_11
REMARK    7  A    between atoms: O_11  and  C_12
REMARK    8  A    between atoms: C_18  and  C_28
REMARK    9  A    between atoms: C_32  and  O_34
REMARK                            x       y       z     vdW  Elec       q    Type
REMARK                         _______ _______ _______ _____ _____    ______ ____
ROOT
ATOM      1  C   UNL     1      -2.356   1.327   3.664  0.00  0.00    +0.032 C 
ATOM      2  C   UNL     1      -1.644   2.629   3.298  0.00  0.00    +0.059 C 
ATOM      3  C   UNL     1      -0.647   2.374   2.179  0.00  0.00    +0.017 C 
ATOM      4  C   UNL     1      -0.908   1.455   1.236  0.00  0.00    +0.036 C 
ATOM      5  C   UNL     1      -0.035   1.133   0.046  0.00  0.00    +0.136 C 
ATOM      6  N   UNL     1       1.289   1.715   0.105  0.00  0.00    -0.331 N 
ATOM      7  C   UNL     1       1.469   3.095   0.084  0.00  0.00    +0.049 A 
ATOM      8  C   UNL     1       2.095   3.725  -0.981  0.00  0.00    +0.025 A 
ATOM      9  C   UNL     1       2.212   5.104  -0.984  0.00  0.00    +0.002 A 
ATOM     10  C   UNL     1       1.705   5.853   0.062  0.00  0.00    +0.002 A 
ATOM     11  C   UNL     1       1.094   5.227   1.136  0.00  0.00    +0.025 A 
ATOM     12  C   UNL     1       0.998   3.847   1.151  0.00  0.00    +0.052 A 
ATOM     13  N   UNL     1       0.467   3.149   2.231  0.00  0.00    -0.316 N 
ATOM     14  C   UNL     1      -2.089   0.679   1.303  0.00  0.00    +0.163 C 
ATOM     15  O   UNL     1      -2.303  -0.138   0.429  0.00  0.00    -0.292 OA
ATOM     16  C   UNL     1      -3.086   0.827   2.413  0.00  0.00    +0.088 C 
ATOM     17  H   UNL     1       2.174   1.065   0.168  0.00  0.00    +0.147 HD
ATOM     18  H   UNL     1       1.017   3.258   3.177  0.00  0.00    +0.152 HD
ENDROOT
BRANCH   1  22
ATOM     19  C   UNL     1      -5.180   2.053   6.793  0.00  0.00    +0.162 A 
ATOM     20  C   UNL     1      -5.298   2.716   5.582  0.00  0.00    +0.050 A 
ATOM     21  C   UNL     1      -4.383   2.479   4.572  0.00  0.00    +0.008 A 
ATOM     22  C   UNL     1      -3.350   1.582   4.768  0.00  0.00    -0.040 A 
ATOM     23  C   UNL     1      -3.230   0.913   5.972  0.00  0.00    +0.053 A 
ATOM     24  C   UNL     1      -4.140   1.149   6.990  0.00  0.00    +0.162 A 
BRANCH  24  25
ATOM     25  O   UNL     1      -4.020   0.496   8.177  0.00  0.00    -0.491 OA
ATOM     26  C   UNL     1      -2.928  -0.416   8.308  0.00  0.00    +0.277 C 
ENDBRANCH  24  25
BRANCH  19  27
ATOM     27  O   UNL     1      -6.079   2.284   7.787  0.00  0.00    -0.486 OA
BRANCH  27  29
ATOM     28  C   UNL     1      -8.356   2.804   8.406  0.00  0.00    +0.051 C 
ATOM     29  C   UNL     1      -7.187   3.131   7.475  0.00  0.00    +0.167 C 
ATOM     30  C   UNL     1      -6.780   4.594   7.663  0.00  0.00    +0.051 C 
ENDBRANCH  27  29
ENDBRANCH  19  27
ENDBRANCH   1  22
BRANCH   5  31
ATOM     31  C   UNL     1      -0.722   1.632  -1.199  0.00  0.00    -0.019 A 
ATOM     32  C   UNL     1      -1.163   0.733  -2.152  0.00  0.00    +0.006 A 
ATOM     33  C   UNL     1      -1.795   1.188  -3.295  0.00  0.00    +0.004 A 
ATOM     34  C   UNL     1      -1.986   2.543  -3.487  0.00  0.00    +0.045 A 
ATOM     35  C   UNL     1      -1.544   3.447  -2.532  0.00  0.00    +0.117 A 
ATOM     36  C   UNL     1      -0.916   2.987  -1.383  0.00  0.00    +0.051 A 
BRANCH  35  37
ATOM     37  O   UNL     1      -1.731   4.780  -2.718  0.00  0.00    -0.507 OA
ATOM     38  H   UNL     1      -1.381   5.496  -1.960  0.00  0.00    +0.292 HD
ENDBRANCH  35  37
ENDBRANCH   5  31
TORSDOF 6
