REMARK  Name = ZINC05413977
REMARK  7 active torsions:
REMARK  status: ('A' for Active; 'I' for Inactive)
REMARK    1  A    between atoms: C_4  and  S_7
REMARK    2  A    between atoms: S_7  and  C_10
REMARK    3  A    between atoms: C_10  and  C_11
REMARK    4  A    between atoms: N_16  and  S_31
REMARK    5  A    between atoms: C_17  and  C_20
REMARK    6  A    between atoms: N_22  and  C_23
REMARK    7  A    between atoms: S_31  and  C_34
REMARK                            x       y       z     vdW  Elec       q    Type
REMARK                         _______ _______ _______ _____ _____    ______ ____
ROOT
ATOM      1  C   UNL     1      -5.364   5.859  -4.085  0.00  0.00    +0.237 C 
ATOM      2  O   UNL     1      -6.335   5.258  -4.495  0.00  0.00    -0.274 OA
ATOM      3  N   UNL     1      -4.691   5.400  -3.011  0.00  0.00    -0.297 N 
ATOM      4  C   UNL     1      -3.513   6.118  -2.504  0.00  0.00    +0.125 C 
ATOM      5  C   UNL     1      -2.334   5.146  -2.448  0.00  0.00    +0.129 C 
ATOM      6  N   UNL     1      -2.762   3.917  -1.767  0.00  0.00    -0.162 NA
ATOM      7  C   UNL     1      -3.940   3.199  -2.274  0.00  0.00    +0.183 C 
ATOM      8  C   UNL     1      -5.123   4.173  -2.326  0.00  0.00    +0.138 C 
ENDROOT
BRANCH   7   9
ATOM      9  C   UNL     1      -4.269   2.052  -1.353  0.00  0.00    +0.234 C 
ATOM     10  O   UNL     1      -3.771   0.962  -1.540  0.00  0.00    -0.274 OA
ATOM     11  N   UNL     1      -5.117   2.238  -0.322  0.00  0.00    -0.303 N 
ATOM     12  H   UNL     1      -5.515   3.110  -0.173  0.00  0.00    +0.149 HD
BRANCH  11  13
ATOM     13  C   UNL     1      -5.437   1.124   0.573  0.00  0.00    +0.159 C 
ATOM     14  C   UNL     1      -5.853   1.673   1.940  0.00  0.00    +0.033 C 
ATOM     15  C   UNL     1      -6.442   0.522   2.765  0.00  0.00    +0.021 C 
ATOM     16  C   UNL     1      -7.760   0.086   2.124  0.00  0.00    +0.104 C 
ATOM     17  N   UNL     1      -7.579  -0.157   0.699  0.00  0.00    -0.314 N 
ATOM     18  C   UNL     1      -6.558   0.317  -0.016  0.00  0.00    +0.233 C 
ATOM     19  O   UNL     1      -6.533   0.083  -1.206  0.00  0.00    -0.274 OA
ATOM     20  H   UNL     1      -8.242  -0.697   0.241  0.00  0.00    +0.149 HD
ENDBRANCH  11  13
ENDBRANCH   7   9
BRANCH   6  21
ATOM     21  S   UNL     1      -1.936   3.354  -0.446  0.00  0.00    +0.062 S 
ATOM     22  O   UNL     1      -2.839   2.526   0.275  0.00  0.00    -0.153 OA
ATOM     23  O   UNL     1      -1.298   4.478   0.143  0.00  0.00    -0.153 OA
BRANCH  21  24
ATOM     24  C   UNL     1      -0.655   2.302  -1.043  0.00  0.00    +0.106 A 
ATOM     25  C   UNL     1      -0.895   0.952  -1.219  0.00  0.00    +0.031 A 
ATOM     26  C   UNL     1       0.111   0.125  -1.682  0.00  0.00    +0.040 A 
ATOM     27  C   UNL     1       1.356   0.651  -1.980  0.00  0.00    +0.124 A 
ATOM     28  C   UNL     1       1.594   2.004  -1.808  0.00  0.00    +0.040 A 
ATOM     29  C   UNL     1       0.589   2.828  -1.340  0.00  0.00    +0.031 A 
ATOM     30  F   UNL     1       2.338  -0.155  -2.438  0.00  0.00    -0.205 F 
ENDBRANCH  21  24
ENDBRANCH   6  21
BRANCH   1  31
ATOM     31  C   UNL     1      -4.909   7.118  -4.778  0.00  0.00    +0.267 C 
BRANCH  31  32
ATOM     32  S   UNL     1      -6.010   7.470  -6.176  0.00  0.00    +0.005 S 
ATOM     33  O   UNL     1      -5.851   6.482  -7.185  0.00  0.00    -0.169 OA
ATOM     34  O   UNL     1      -7.304   7.821  -5.704  0.00  0.00    -0.169 OA
BRANCH  32  38
ATOM     35  C   UNL     1      -4.379  11.272  -8.012  0.00  0.00    +0.000 A 
ATOM     36  C   UNL     1      -3.923  10.043  -8.450  0.00  0.00    +0.002 A 
ATOM     37  C   UNL     1      -4.422   8.882  -7.889  0.00  0.00    +0.027 A 
ATOM     38  C   UNL     1      -5.375   8.950  -6.891  0.00  0.00    +0.089 A 
ATOM     39  C   UNL     1      -5.835  10.179  -6.457  0.00  0.00    +0.027 A 
ATOM     40  C   UNL     1      -5.333  11.341  -7.015  0.00  0.00    +0.002 A 
ENDBRANCH  32  38
ENDBRANCH  31  32
ENDBRANCH   1  31
TORSDOF 7
