REMARK  Name = ZINC08416789
REMARK  7 active torsions:
REMARK  status: ('A' for Active; 'I' for Inactive)
REMARK    1  A    between atoms: C_6  and  C_7
REMARK    2  A    between atoms: N_9  and  C_10
REMARK    3  A    between atoms: C_10  and  C_11
REMARK    4  A    between atoms: N_13  and  N_14
REMARK    5  A    between atoms: N_14  and  C_15
REMARK    6  A    between atoms: C_15  and  N_17
REMARK    7  A    between atoms: N_17  and  C_18
REMARK                            x       y       z     vdW  Elec       q    Type
REMARK                         _______ _______ _______ _____ _____    ______ ____
ROOT
ATOM      1  C   UNL     1       3.554   2.181  -0.020  0.00  0.00    +0.246 C 
ATOM      2  O   UNL     1       3.316   3.370  -0.011  0.00  0.00    -0.273 OA
ATOM      3  N   UNL     1       4.831   1.749  -0.035  0.00  0.00    -0.234 N 
ATOM      4  H   UNL     1       5.021   0.798  -0.042  0.00  0.00    +0.173 HD
ENDROOT
BRANCH   3   5
ATOM      5  N   UNL     1       5.883   2.674  -0.040  0.00  0.00    -0.246 N 
ATOM      6  H   UNL     1       5.693   3.625  -0.033  0.00  0.00    +0.172 HD
BRANCH   5   7
ATOM      7  C   UNL     1       7.160   2.242  -0.054  0.00  0.00    +0.147 C 
ATOM      8  S   UNL     1       8.445   3.372  -0.060  0.00  0.00    -0.017 S 
BRANCH   7   9
ATOM      9  N   UNL     1       7.424   0.920  -0.064  0.00  0.00    -0.323 N 
ATOM     10  H   UNL     1       6.695   0.280  -0.060  0.00  0.00    +0.148 HD
BRANCH   9  11
ATOM     11  C   UNL     1       8.811   0.451  -0.080  0.00  0.00    +0.072 C 
ATOM     12  C   UNL     1       9.316   0.341  -1.533  0.00  0.00    +0.022 C 
ATOM     13  C   UNL     1      10.214  -0.921  -1.530  0.00  0.00    +0.002 C 
ATOM     14  C   UNL     1       9.450  -1.882  -0.586  0.00  0.00    +0.002 C 
ATOM     15  C   UNL     1       8.897  -0.963   0.523  0.00  0.00    +0.022 C 
ENDBRANCH   9  11
ENDBRANCH   7   9
ENDBRANCH   5   7
ENDBRANCH   3   5
BRANCH   1  16
ATOM     16  C   UNL     1       2.422   1.186  -0.015  0.00  0.00    +0.202 C 
BRANCH  16  19
ATOM     17  C   UNL     1      -0.014   1.211   0.009  0.00  0.00    +0.245 C 
ATOM     18  O   UNL     1       0.002  -0.004   0.002  0.00  0.00    -0.270 OA
ATOM     19  N   UNL     1       1.143   1.901   0.001  0.00  0.00    -0.303 N 
ATOM     20  H   UNL     1       1.130   2.871   0.007  0.00  0.00    +0.150 HD
BRANCH  17  26
ATOM     21  C   UNL     1      -1.326   3.329   0.032  0.00  0.00    +0.014 A 
ATOM     22  C   UNL     1      -2.533   3.997   0.036  0.00  0.00    +0.022 A 
ATOM     23  C   UNL     1      -3.721   3.287   0.038  0.00  0.00    +0.059 A 
ATOM     24  C   UNL     1      -3.706   1.900   0.030  0.00  0.00    +0.060 A 
ATOM     25  C   UNL     1      -2.505   1.221   0.021  0.00  0.00    +0.034 A 
ATOM     26  C   UNL     1      -1.304   1.933   0.019  0.00  0.00    +0.038 A 
ATOM     27 CL   UNL     1      -5.201   1.018   0.032  0.00  0.00    -0.082 Cl
ATOM     28 CL   UNL     1      -5.236   4.135   0.051  0.00  0.00    -0.082 Cl
ENDBRANCH  17  26
ENDBRANCH  16  19
ENDBRANCH   1  16
TORSDOF 7
