REMARK  Name = ZINC15969144
REMARK  7 active torsions:
REMARK  status: ('A' for Active; 'I' for Inactive)
REMARK    1  A    between atoms: C_1  and  C_2
REMARK    2  A    between atoms: C_16  and  C_19
REMARK    3  A    between atoms: C_19  and  C_20
REMARK    4  A    between atoms: C_23  and  O_26
REMARK    5  A    between atoms: N_29  and  C_32
REMARK    6  A    between atoms: C_32  and  C_33
REMARK    7  A    between atoms: C_33  and  C_34
REMARK                            x       y       z     vdW  Elec       q    Type
REMARK                         _______ _______ _______ _____ _____    ______ ____
ROOT
ATOM      1  C   UNL     1      -0.018   1.503   0.010  0.00  0.00    +0.046 C 
ATOM      2  C   UNL     1       0.002  -0.004   0.002  0.00  0.00    -0.028 A 
ATOM      3  C   UNL     1       0.006  -0.685  -1.198  0.00  0.00    +0.025 A 
ATOM      4  C   UNL     1       0.025  -2.068  -1.216  0.00  0.00    +0.042 A 
ATOM      5  C   UNL     1       0.040  -2.772  -0.023  0.00  0.00    +0.027 A 
ATOM      6  C   UNL     1       0.036  -2.096   1.176  0.00  0.00    +0.005 A 
ATOM      7  C   UNL     1       0.023  -0.704   1.205  0.00  0.00    +0.042 A 
ATOM      8  N   UNL     1       0.029  -0.249   2.526  0.00  0.00    -0.283 N 
ATOM      9  C   UNL     1       0.048  -1.263   3.413  0.00  0.00    +0.243 C 
ATOM     10  O   UNL     1       0.055  -1.167   4.622  0.00  0.00    -0.273 OA
ATOM     11  C   UNL     1       0.045  -2.537   2.612  0.00  0.00    +0.136 C 
ATOM     12  C   UNL     1       1.281  -3.386   2.935  0.00  0.00    +0.122 C 
ATOM     13  C   UNL     1       0.773  -4.439   3.960  0.00  0.00    +0.107 C 
ATOM     14  C   UNL     1      -0.717  -4.100   4.172  0.00  0.00    +0.072 C 
ATOM     15  N   UNL     1      -1.121  -3.383   2.927  0.00  0.00    -0.295 NA
ATOM     16  C   UNL     1       0.903  -5.745   3.212  0.00  0.00    +0.227 C 
ATOM     17  O   UNL     1       0.602  -6.836   3.649  0.00  0.00    -0.275 OA
ATOM     18  N   UNL     1       1.401  -5.512   1.993  0.00  0.00    -0.241 N 
ATOM     19  C   UNL     1       1.662  -4.211   1.727  0.00  0.00    +0.228 C 
ATOM     20  O   UNL     1       2.121  -3.771   0.695  0.00  0.00    -0.275 OA
ATOM     21 CL   UNL     1       0.029  -2.920  -2.729  0.00  0.00    -0.084 Cl
ATOM     22  H   UNL     1       0.021   0.688   2.776  0.00  0.00    +0.155 HD
ATOM     23  H   UNL     1      -1.943  -2.820   3.089  0.00  0.00    +0.124 HD
ENDROOT
BRANCH  14  24
ATOM     24  C   UNL     1      -1.538  -5.383   4.322  0.00  0.00    +0.054 C 
BRANCH  24  25
ATOM     25  C   UNL     1      -2.966  -5.030   4.650  0.00  0.00    -0.046 A 
ATOM     26  C   UNL     1      -3.358  -4.893   5.969  0.00  0.00    +0.007 A 
ATOM     27  C   UNL     1      -4.666  -4.570   6.272  0.00  0.00    +0.045 A 
ATOM     28  C   UNL     1      -5.587  -4.382   5.252  0.00  0.00    +0.117 A 
ATOM     29  C   UNL     1      -5.191  -4.520   3.929  0.00  0.00    +0.045 A 
ATOM     30  C   UNL     1      -3.881  -4.838   3.631  0.00  0.00    +0.007 A 
BRANCH  28  31
ATOM     31  O   UNL     1      -6.875  -4.065   5.547  0.00  0.00    -0.507 OA
ATOM     32  H   UNL     1      -7.043  -3.114   5.605  0.00  0.00    +0.292 HD
ENDBRANCH  28  31
ENDBRANCH  24  25
ENDBRANCH  14  24
BRANCH  18  33
ATOM     33  C   UNL     1       1.654  -6.580   1.022  0.00  0.00    +0.121 C 
BRANCH  33  34
ATOM     34  C   UNL     1       0.404  -6.797   0.166  0.00  0.00    +0.054 C 
BRANCH  34  35
ATOM     35  C   UNL     1       0.663  -7.895  -0.832  0.00  0.00    -0.046 A 
ATOM     36  C   UNL     1       1.186  -7.590  -2.075  0.00  0.00    +0.004 A 
ATOM     37  C   UNL     1       1.424  -8.598  -2.991  0.00  0.00    +0.000 A 
ATOM     38  C   UNL     1       1.139  -9.911  -2.664  0.00  0.00    +0.000 A 
ATOM     39  C   UNL     1       0.618 -10.216  -1.421  0.00  0.00    +0.000 A 
ATOM     40  C   UNL     1       0.384  -9.209  -0.503  0.00  0.00    +0.004 A 
ENDBRANCH  34  35
ENDBRANCH  33  34
ENDBRANCH  18  33
TORSDOF 6
