REMARK  Name = ZINC05672873
REMARK  9 active torsions:
REMARK  status: ('A' for Active; 'I' for Inactive)
REMARK    1  A    between atoms: C_1  and  C_2
REMARK    2  A    between atoms: C_2  and  O_3
REMARK    3  A    between atoms: O_3  and  C_4
REMARK    4  A    between atoms: C_4  and  C_6
REMARK    5  A    between atoms: C_10  and  N_11
REMARK    6  A    between atoms: C_12  and  C_14
REMARK    7  A    between atoms: N_16  and  N_17
REMARK    8  A    between atoms: C_18  and  C_19
REMARK    9  A    between atoms: C_22  and  O_25
REMARK                            x       y       z     vdW  Elec       q    Type
REMARK                         _______ _______ _______ _____ _____    ______ ____
ROOT
ATOM      1  N   UNL     1       1.143   1.900   0.001  0.00  0.00    -0.271 N 
ATOM      2  C   UNL     1      -0.014   1.210   0.009  0.00  0.00    +0.305 C 
ATOM      3  O   UNL     1       0.002  -0.004   0.002  0.00  0.00    -0.265 OA
ATOM      4  H   UNL     1       1.130   2.869   0.007  0.00  0.00    +0.156 HD
ENDROOT
BRANCH   1   9
ATOM      5  C   UNL     1       3.636   1.753  -0.029  0.00  0.00    +0.091 A 
ATOM      6  C   UNL     1       4.746   0.816  -0.040  0.00  0.00    -0.021 A 
ATOM      7  C   UNL     1       4.398  -0.489  -0.044  0.00  0.00    -0.004 A 
ATOM      8  S   UNL     1       2.628  -0.486  -0.026  0.00  0.00    -0.077 S 
ATOM      9  C   UNL     1       2.351   1.224  -0.014  0.00  0.00    +0.087 A 
ATOM     10  C   UNL     1       5.320  -1.670  -0.061  0.00  0.00    +0.043 C 
ATOM     11  C   UNL     1       6.723  -1.182  -0.450  0.00  0.00    +0.005 C 
ATOM     12  C   UNL     1       7.068   0.050   0.390  0.00  0.00    +0.005 C 
ATOM     13  C   UNL     1       6.211   1.238  -0.051  0.00  0.00    +0.037 C 
BRANCH   5  14
ATOM     14  C   UNL     1       3.862   3.200  -0.030  0.00  0.00    +0.342 C 
ATOM     15  O   UNL     1       3.970   3.800   1.022  0.00  0.00    -0.245 OA
BRANCH  14  16
ATOM     16  O   UNL     1       3.952   3.867  -1.199  0.00  0.00    -0.461 OA
BRANCH  16  18
ATOM     17  C   UNL     1       4.250   5.879  -2.539  0.00  0.00    +0.048 C 
ATOM     18  C   UNL     1       4.177   5.300  -1.124  0.00  0.00    +0.229 C 
ENDBRANCH  16  18
ENDBRANCH  14  16
ENDBRANCH   5  14
ENDBRANCH   1   9
BRANCH   2  19
ATOM     19  C   UNL     1      -1.315   1.938   0.019  0.00  0.00    +0.318 C 
ATOM     20  O   UNL     1      -1.331   3.152   0.025  0.00  0.00    -0.263 OA
ATOM     21  N   UNL     1      -2.473   1.248   0.021  0.00  0.00    -0.199 N 
ATOM     22  H   UNL     1      -2.460   0.278   0.015  0.00  0.00    +0.178 HD
BRANCH  21  23
ATOM     23  N   UNL     1      -3.696   1.932   0.030  0.00  0.00    -0.187 NA
ATOM     24  C   UNL     1      -4.812   1.267   0.032  0.00  0.00    +0.138 C 
BRANCH  24  25
ATOM     25  C   UNL     1      -6.098   1.986   0.042  0.00  0.00    -0.005 A 
ATOM     26  C   UNL     1      -6.119   3.384   0.055  0.00  0.00    +0.013 A 
ATOM     27  C   UNL     1      -7.324   4.052   0.061  0.00  0.00    +0.046 A 
ATOM     28  C   UNL     1      -8.516   3.339   0.062  0.00  0.00    +0.117 A 
ATOM     29  C   UNL     1      -8.500   1.950   0.053  0.00  0.00    +0.046 A 
ATOM     30  C   UNL     1      -7.300   1.273   0.044  0.00  0.00    +0.013 A 
BRANCH  28  31
ATOM     31  O   UNL     1      -9.702   4.002   0.072  0.00  0.00    -0.507 OA
ATOM     32  H   UNL     1     -10.040   4.189   0.959  0.00  0.00    +0.292 HD
ENDBRANCH  28  31
ENDBRANCH  24  25
ENDBRANCH  21  23
ENDBRANCH   2  19
TORSDOF 8
