REMARK  Name = ZINC62762318
REMARK  3 active torsions:
REMARK  status: ('A' for Active; 'I' for Inactive)
REMARK    1  A    between atoms: C_6  and  O_7
REMARK    2  A    between atoms: O_7  and  C_8
REMARK    3  A    between atoms: C_14  and  C_16
REMARK                            x       y       z     vdW  Elec       q    Type
REMARK                         _______ _______ _______ _____ _____    ______ ____
ROOT
ATOM      1  C   UNL     1      -1.073  -2.122  -0.110  0.00  0.00    +0.187 C 
ATOM      2  C   UNL     1      -0.994  -2.505  -1.589  0.00  0.00    +0.045 C 
ATOM      3  C   UNL     1      -2.249  -2.012  -2.312  0.00  0.00    +0.004 C 
ATOM      4  C   UNL     1      -3.486  -2.658  -1.683  0.00  0.00    +0.001 C 
ATOM      5  C   UNL     1      -3.565  -2.275  -0.204  0.00  0.00    +0.018 C 
ATOM      6  C   UNL     1      -2.310  -2.767   0.519  0.00  0.00    +0.143 C 
ENDROOT
BRANCH   6   7
ATOM      7  C   UNL     1      -2.388  -2.390   1.976  0.00  0.00    +0.363 C 
ATOM      8  O   UNL     1      -3.473  -2.301   2.525  0.00  0.00    -0.246 OA
ATOM      9  O   UNL     1      -1.367  -2.172   2.605  0.00  0.00    -0.246 OA
ENDBRANCH   6   7
BRANCH   1  10
ATOM     10  O   UNL     1      -1.165  -0.701   0.010  0.00  0.00    -0.488 OA
BRANCH  10  16
ATOM     11  C   UNL     1       1.201  -0.661  -0.234  0.00  0.00    +0.046 A 
ATOM     12  C   UNL     1       2.386   0.050  -0.244  0.00  0.00    +0.018 A 
ATOM     13  C   UNL     1       2.377   1.414  -0.019  0.00  0.00    +0.014 A 
ATOM     14  C   UNL     1       1.183   2.071   0.216  0.00  0.00    +0.018 A 
ATOM     15  C   UNL     1      -0.004   1.365   0.227  0.00  0.00    +0.046 A 
ATOM     16  C   UNL     1       0.002  -0.004   0.001  0.00  0.00    +0.121 A 
ATOM     17  I   UNL     1       4.176   2.488  -0.034  0.00  0.00    -0.044 I 
ENDBRANCH  10  16
ENDBRANCH   1  10
TORSDOF 3
