REMARK  Name = ZINC12503238
REMARK  11 active torsions:
REMARK  status: ('A' for Active; 'I' for Inactive)
REMARK    1  A    between atoms: C_1  and  C_2
REMARK    2  A    between atoms: C_7  and  C_8
REMARK    3  A    between atoms: N_10  and  C_11
REMARK    4  A    between atoms: C_14  and  C_17
REMARK    5  A    between atoms: N_19  and  N_20
REMARK    6  A    between atoms: N_20  and  C_21
REMARK    7  A    between atoms: C_21  and  N_23
REMARK    8  A    between atoms: C_24  and  C_26
REMARK    9  A    between atoms: C_26  and  O_27
REMARK   10  A    between atoms: O_27  and  C_28
REMARK   11  A    between atoms: C_33  and  C_34
REMARK                            x       y       z     vdW  Elec       q    Type
REMARK                         _______ _______ _______ _____ _____    ______ ____
ROOT
ATOM      1  C   UNL     1       5.390   6.973   0.292  0.00  0.00    +0.260 C 
ATOM      2  O   UNL     1       5.236   8.179   0.325  0.00  0.00    -0.269 OA
ATOM      3  N   UNL     1       4.319   6.156   0.314  0.00  0.00    -0.231 N 
ATOM      4  H   UNL     1       4.442   5.194   0.288  0.00  0.00    +0.173 HD
ENDROOT
BRANCH   1   8
ATOM      5  C   UNL     1       9.305   5.337   0.105  0.00  0.00    +0.034 A 
ATOM      6  C   UNL     1       9.130   6.717   0.143  0.00  0.00    +0.024 A 
ATOM      7  C   UNL     1       7.863   7.251   0.203  0.00  0.00    +0.015 A 
ATOM      8  C   UNL     1       6.751   6.405   0.227  0.00  0.00    +0.038 A 
ATOM      9  C   UNL     1       6.930   5.019   0.195  0.00  0.00    +0.015 A 
ATOM     10  C   UNL     1       8.200   4.492   0.128  0.00  0.00    +0.024 A 
BRANCH   5  13
ATOM     11  C   UNL     1      11.552   5.433  -0.657  0.00  0.00    +0.249 C 
ATOM     12  O   UNL     1      11.324   6.516  -1.160  0.00  0.00    -0.270 OA
ATOM     13  N   UNL     1      10.589   4.800   0.044  0.00  0.00    -0.281 N 
ATOM     14  H   UNL     1      10.791   3.971   0.505  0.00  0.00    +0.155 HD
BRANCH  11  21
ATOM     15  C   UNL     1      13.662   6.886  -2.001  0.00  0.00    +0.044 C 
ATOM     16  C   UNL     1      13.909   5.501  -1.460  0.00  0.00    -0.038 A 
ATOM     17  C   UNL     1      15.149   4.914  -1.602  0.00  0.00    +0.004 A 
ATOM     18  C   UNL     1      15.377   3.643  -1.105  0.00  0.00    +0.000 A 
ATOM     19  C   UNL     1      14.365   2.953  -0.462  0.00  0.00    +0.001 A 
ATOM     20  C   UNL     1      13.122   3.530  -0.308  0.00  0.00    +0.013 A 
ATOM     21  C   UNL     1      12.883   4.810  -0.813  0.00  0.00    +0.040 A 
ENDBRANCH  11  21
ENDBRANCH   5  13
ENDBRANCH   1   8
BRANCH   3  22
ATOM     22  N   UNL     1       3.027   6.696   0.376  0.00  0.00    -0.245 N 
ATOM     23  H   UNL     1       2.904   7.658   0.403  0.00  0.00    +0.172 HD
BRANCH  22  24
ATOM     24  C   UNL     1       1.956   5.879   0.399  0.00  0.00    +0.153 C 
ATOM     25  S   UNL     1       0.378   6.538   0.474  0.00  0.00    -0.017 S 
BRANCH  24  26
ATOM     26  N   UNL     1       2.127   4.542   0.362  0.00  0.00    -0.264 N 
ATOM     27  C   UNL     1       1.055   3.725   0.385  0.00  0.00    +0.256 C 
ATOM     28  O   UNL     1      -0.062   4.192   0.438  0.00  0.00    -0.272 OA
ATOM     29  H   UNL     1       3.021   4.169   0.320  0.00  0.00    +0.157 HD
BRANCH  27  30
ATOM     30  C   UNL     1       1.246   2.231   0.344  0.00  0.00    +0.325 C 
BRANCH  30  31
ATOM     31  O   UNL     1      -0.029   1.587   0.378  0.00  0.00    -0.483 OA
BRANCH  31  32
ATOM     32  C   UNL     1      -0.035   0.228   0.348  0.00  0.00    +0.124 A 
ATOM     33  C   UNL     1       1.162  -0.471   0.281  0.00  0.00    +0.046 A 
ATOM     34  C   UNL     1       1.154  -1.852   0.255  0.00  0.00    +0.004 A 
ATOM     35  C   UNL     1      -0.046  -2.538   0.286  0.00  0.00    +0.000 A 
ATOM     36  C   UNL     1      -1.241  -1.844   0.348  0.00  0.00    +0.007 A 
ATOM     37  C   UNL     1      -1.237  -0.463   0.379  0.00  0.00    -0.009 A 
ATOM     38  C   UNL     1      -2.539   0.293   0.445  0.00  0.00    +0.047 C 
ENDBRANCH  31  32
ENDBRANCH  30  31
ENDBRANCH  27  30
ENDBRANCH  24  26
ENDBRANCH  22  24
ENDBRANCH   3  22
TORSDOF 9
