REMARK  Name = ZINC36577683
REMARK  18 active torsions:
REMARK  status: ('A' for Active; 'I' for Inactive)
REMARK    1  A    between atoms: C_1  and  C_2
REMARK    2  A    between atoms: C_2  and  C_3
REMARK    3  A    between atoms: C_3  and  N_4
REMARK    4  A    between atoms: N_4  and  C_5
REMARK    5  A    between atoms: C_5  and  C_7
REMARK    6  A    between atoms: C_5  and  C_16
REMARK    7  A    between atoms: C_8  and  O_15
REMARK    8  A    between atoms: C_10  and  O_14
REMARK    9  A    between atoms: C_12  and  O_13
REMARK   10  A    between atoms: N_18  and  C_19
REMARK   11  A    between atoms: C_19  and  C_20
REMARK   12  A    between atoms: C_19  and  C_21
REMARK   13  A    between atoms: C_19  and  C_22
REMARK   14  A    between atoms: C_22  and  C_23
REMARK   15  A    between atoms: C_23  and  C_24
REMARK   16  A    between atoms: C_23  and  C_25
REMARK   17  A    between atoms: C_23  and  C_26
REMARK   18  A    between atoms: C_27  and  C_29
REMARK                            x       y       z     vdW  Elec       q    Type
REMARK                         _______ _______ _______ _____ _____    ______ ____
ROOT
ATOM      1  C   UNL     1      -0.955  -1.973  -3.286  0.00  0.00    +0.199 C 
ENDROOT
BRANCH   1   2
ATOM      2  C   UNL     1      -2.427  -2.300  -3.299  0.00  0.00    +0.065 A 
ATOM      3  C   UNL     1      -3.359  -1.310  -3.028  0.00  0.00    +0.129 A 
ATOM      4  C   UNL     1      -4.713  -1.611  -3.040  0.00  0.00    +0.091 A 
ATOM      5  C   UNL     1      -5.134  -2.901  -3.323  0.00  0.00    +0.124 A 
ATOM      6  C   UNL     1      -4.202  -3.891  -3.595  0.00  0.00    +0.091 A 
ATOM      7  C   UNL     1      -2.848  -3.589  -3.587  0.00  0.00    +0.129 A 
BRANCH   7   8
ATOM      8  O   UNL     1      -1.935  -4.558  -3.858  0.00  0.00    -0.506 OA
ATOM      9  H   UNL     1      -1.632  -5.043  -3.078  0.00  0.00    +0.292 HD
ENDBRANCH   7   8
BRANCH   5  10
ATOM     10  O   UNL     1      -6.461  -3.196  -3.334  0.00  0.00    -0.507 OA
ATOM     11  H   UNL     1      -6.882  -3.080  -4.197  0.00  0.00    +0.292 HD
ENDBRANCH   5  10
BRANCH   3  12
ATOM     12  O   UNL     1      -2.946  -0.045  -2.750  0.00  0.00    -0.506 OA
ATOM     13  H   UNL     1      -2.937   0.543  -3.518  0.00  0.00    +0.292 HD
ENDBRANCH   3  12
ENDBRANCH   1   2
BRANCH   1  14
ATOM     14  C   UNL     1      -0.685  -0.835  -4.235  0.00  0.00    +0.239 C 
ATOM     15  O   UNL     1      -0.204   0.199  -3.821  0.00  0.00    -0.273 OA
ATOM     16  N   UNL     1      -0.978  -0.965  -5.544  0.00  0.00    -0.308 N 
ATOM     17  H   UNL     1      -1.363  -1.792  -5.875  0.00  0.00    +0.149 HD
BRANCH  16  18
ATOM     18  C   UNL     1      -0.716   0.142  -6.467  0.00  0.00    +0.030 C 
ATOM     19  C   UNL     1      -1.352   1.422  -5.922  0.00  0.00    +0.031 C 
ATOM     20  C   UNL     1       0.795   0.343  -6.606  0.00  0.00    +0.031 C 
BRANCH  18  21
ATOM     21  C   UNL     1      -1.315  -0.183  -7.837  0.00  0.00    +0.031 C 
BRANCH  21  22
ATOM     22  C   UNL     1      -1.019  -1.641  -8.191  0.00  0.00    -0.036 C 
ATOM     23  C   UNL     1      -1.996  -2.555  -7.448  0.00  0.00    +0.010 C 
ATOM     24  C   UNL     1      -1.178  -1.843  -9.699  0.00  0.00    +0.010 C 
ATOM     25  C   UNL     1       0.414  -1.985  -7.779  0.00  0.00    +0.010 C 
ENDBRANCH  21  22
ENDBRANCH  18  21
ENDBRANCH  16  18
ENDBRANCH   1  14
BRANCH   1  26
ATOM     26  N   UNL     1      -0.553  -1.586  -1.931  0.00  0.00    -0.282 N 
ATOM     27  C   UNL     1       0.541  -0.821  -1.746  0.00  0.00    +0.247 C 
ATOM     28  O   UNL     1       0.720  -0.265  -0.680  0.00  0.00    -0.270 OA
BRANCH  27  29
ATOM     29  C   UNL     1       1.522  -0.659  -2.838  0.00  0.00    +0.037 A 
ATOM     30  C   UNL     1       1.401  -1.414  -4.007  0.00  0.00    +0.016 A 
ATOM     31  C   UNL     1       2.319  -1.259  -5.023  0.00  0.00    +0.039 A 
ATOM     32  C   UNL     1       3.363  -0.356  -4.886  0.00  0.00    +0.123 A 
ATOM     33  C   UNL     1       3.489   0.395  -3.727  0.00  0.00    +0.039 A 
ATOM     34  C   UNL     1       2.572   0.253  -2.708  0.00  0.00    +0.016 A 
ATOM     35  F   UNL     1       4.261  -0.209  -5.884  0.00  0.00    -0.205 F 
ENDBRANCH  27  29
BRANCH  26  36
ATOM     36  C   UNL     1      -1.341  -2.030  -0.778  0.00  0.00    +0.109 C 
BRANCH  36  38
ATOM     37  C   UNL     1      -1.251  -3.253   1.398  0.00  0.00    +0.005 C 
ATOM     38  C   UNL     1      -0.464  -2.886   0.138  0.00  0.00    +0.016 C 
ENDBRANCH  36  38
ENDBRANCH  26  36
ENDBRANCH   1  26
TORSDOF 12
