REMARK  Name = ZINC39267169
REMARK  6 active torsions:
REMARK  status: ('A' for Active; 'I' for Inactive)
REMARK    1  A    between atoms: CG_4  and  CB_7
REMARK    2  A    between atoms: CB_7  and  CA_8
REMARK    3  A    between atoms: C_13  and  C_18
REMARK    4  A    between atoms: C_18  and  C_19
REMARK    5  A    between atoms: N_21  and  N_22
REMARK    6  A    between atoms: N_22  and  C_23
REMARK                            x       y       z     vdW  Elec       q    Type
REMARK                         _______ _______ _______ _____ _____    ______ ____
ROOT
ATOM      1  CA  PHE A   2       4.171  -0.963   1.399  0.00  0.00    +0.163 C 
ATOM      2  C   PHE A   2       5.403  -1.818   1.375  0.00  0.00    +0.234 C 
ATOM      3  O   PHE A   2       5.278  -3.012   1.204  0.00  0.00    -0.274 OA
ATOM      4  N   UNK A   1       6.632  -1.318   1.533  0.00  0.00    -0.302 N 
ATOM      5  C   UNK A   1       6.887   0.101   1.742  0.00  0.00    +0.168 C 
ATOM      6  C   UNK A   1       5.656   0.811   2.216  0.00  0.00    +0.234 C 
ATOM      7  O   UNK A   1       5.780   1.883   2.771  0.00  0.00    -0.274 OA
ATOM      8  N   PHE A   2       4.427   0.313   2.053  0.00  0.00    -0.302 N 
ATOM      9  H   UNK A   1       7.387  -1.927   1.508  0.00  0.00    +0.150 HD
ATOM     10  H   PHE A   2       3.672   0.825   2.383  0.00  0.00    +0.150 HD
ENDROOT
BRANCH   1  11
ATOM     11  CB  PHE A   2       3.711  -0.707  -0.038  0.00  0.00    +0.067 C 
BRANCH  11  15
ATOM     12  CZ  PHE A   2      -0.017   1.378   0.010  0.00  0.00    +0.000 A 
ATOM     13  CE1 PHE A   2       1.171   2.086   0.002  0.00  0.00    +0.000 A 
ATOM     14  CD1 PHE A   2       2.377   1.411  -0.013  0.00  0.00    +0.004 A 
ATOM     15  CG  PHE A   2       2.396   0.029  -0.020  0.00  0.00    -0.045 A 
ATOM     16  CD2 PHE A   2       1.208  -0.679  -0.012  0.00  0.00    +0.004 A 
ATOM     17  CE2 PHE A   2       0.002  -0.004   0.002  0.00  0.00    +0.000 A 
ENDBRANCH  11  15
ENDBRANCH   1  11
BRANCH   5  18
ATOM     18  C   UNK A   1       7.349   0.726   0.424  0.00  0.00    +0.129 C 
BRANCH  18  19
ATOM     19  C   UNK A   1       8.675   0.133   0.024  0.00  0.00    +0.231 C 
ATOM     20  O   UNK A   1       9.200  -0.708   0.724  0.00  0.00    -0.274 OA
ATOM     21  N   UNK A   1       9.278   0.536  -1.112  0.00  0.00    -0.236 N 
ATOM     22  H   UNK A   1       8.859   1.208  -1.672  0.00  0.00    +0.173 HD
BRANCH  21  23
ATOM     23  N   UNK A   1      10.511  -0.016  -1.484  0.00  0.00    -0.264 N 
ATOM     24  H   UNK A   1      10.931  -0.688  -0.924  0.00  0.00    +0.170 HD
BRANCH  23  25
ATOM     25  C   UNK A   1      11.137   0.402  -2.661  0.00  0.00    +0.045 A 
ATOM     26  C   UNK A   1      10.540   1.369  -3.461  0.00  0.00    +0.024 A 
ATOM     27  C   UNK A   1      11.160   1.780  -4.624  0.00  0.00    +0.003 A 
ATOM     28  C   UNK A   1      12.375   1.231  -4.993  0.00  0.00    +0.015 A 
ATOM     29  C   UNK A   1      12.972   0.269  -4.199  0.00  0.00    +0.020 A 
ATOM     30  C   UNK A   1      12.359  -0.143  -3.031  0.00  0.00    +0.039 A 
ATOM     31 BR   UNK A   1      14.632  -0.480  -4.709  0.00  0.00    -0.050 Br
ENDBRANCH  23  25
ENDBRANCH  21  23
ENDBRANCH  18  19
ENDBRANCH   5  18
TORSDOF 6
