REMARK  Name = ZINC67398567
REMARK  7 active torsions:
REMARK  status: ('A' for Active; 'I' for Inactive)
REMARK    1  A    between atoms: C_1  and  C_2
REMARK    2  A    between atoms: C_2  and  C_3
REMARK    3  A    between atoms: C_3  and  C_4
REMARK    4  A    between atoms: C_7  and  N_10
REMARK    5  A    between atoms: C_11  and  C_13
REMARK    6  A    between atoms: C_22  and  C_28
REMARK    7  A    between atoms: C_25  and  C_27
REMARK                            x       y       z     vdW  Elec       q    Type
REMARK                         _______ _______ _______ _____ _____    ______ ____
ROOT
ATOM      1  C   UNL     1       5.529  -4.604  -2.503  0.00  0.00    +0.306 C 
ATOM      2  O   UNL     1       5.718  -3.675  -1.746  0.00  0.00    -0.265 OA
ATOM      3  N   UNL     1       6.567  -5.167  -3.151  0.00  0.00    -0.261 N 
ATOM      4  C   UNL     1       7.866  -4.676  -2.976  0.00  0.00    +0.041 A 
ATOM      5  C   UNL     1       8.046  -3.442  -2.361  0.00  0.00    +0.024 A 
ATOM      6  C   UNL     1       9.319  -2.941  -2.175  0.00  0.00    +0.002 A 
ATOM      7  C   UNL     1      10.415  -3.669  -2.602  0.00  0.00    +0.000 A 
ATOM      8  C   UNL     1      10.239  -4.895  -3.214  0.00  0.00    +0.006 A 
ATOM      9  C   UNL     1       8.965  -5.403  -3.406  0.00  0.00    -0.014 A 
ATOM     10  C   UNL     1       8.808  -6.738  -4.086  0.00  0.00    +0.108 C 
ATOM     11  C   UNL     1       7.444  -7.347  -3.761  0.00  0.00    +0.040 C 
ATOM     12  C   UNL     1       6.356  -6.311  -4.049  0.00  0.00    +0.080 C 
ATOM     13  C   UNL     1       6.456  -5.852  -5.505  0.00  0.00    +0.028 C 
ENDROOT
BRANCH  10  14
ATOM     14  C   UNL     1       9.892  -7.670  -3.609  0.00  0.00    +0.218 C 
ATOM     15  O   UNL     1       9.747  -8.291  -2.577  0.00  0.00    -0.275 OA
ATOM     16  N   UNL     1      11.022  -7.814  -4.329  0.00  0.00    -0.329 N 
ATOM     17  H   UNL     1      11.110  -7.372  -5.188  0.00  0.00    +0.145 HD
ATOM     18  H   UNL     1      11.748  -8.360  -3.989  0.00  0.00    +0.145 HD
ENDBRANCH  10  14
BRANCH   1  20
ATOM     19  N   UNL     1       3.125  -4.650  -1.973  0.00  0.00    -0.305 N 
ATOM     20  C   UNL     1       4.145  -5.124  -2.716  0.00  0.00    +0.300 C 
ATOM     21  O   UNL     1       3.938  -5.973  -3.559  0.00  0.00    -0.265 OA
ATOM     22  H   UNL     1       3.290  -3.972  -1.300  0.00  0.00    +0.149 HD
BRANCH  19  26
ATOM     23  C   UNL     1       0.224  -2.721  -1.681  0.00  0.00    -0.011 C 
ATOM     24  C   UNL     1       0.889  -3.494  -0.540  0.00  0.00    +0.005 C 
ATOM     25  C   UNL     1       0.952  -4.980  -0.900  0.00  0.00    +0.022 C 
ATOM     26  C   UNL     1       1.768  -5.160  -2.182  0.00  0.00    +0.073 C 
ATOM     27  C   UNL     1       1.103  -4.386  -3.322  0.00  0.00    +0.022 C 
ATOM     28  C   UNL     1       1.040  -2.901  -2.962  0.00  0.00    +0.005 C 
BRANCH  23  29
ATOM     29  C   UNL     1       0.161  -1.235  -1.321  0.00  0.00    +0.003 C 
BRANCH  29  31
ATOM     30  C   UNL     1      -0.819   0.444   0.248  0.00  0.00    +0.004 C 
ATOM     31  C   UNL     1      -0.756  -1.042  -0.111  0.00  0.00    -0.003 C 
ENDBRANCH  29  31
ENDBRANCH  23  29
ENDBRANCH  19  26
ENDBRANCH   1  20
TORSDOF 5
