REMARK  Name = ZINC16032795
REMARK  10 active torsions:
REMARK  status: ('A' for Active; 'I' for Inactive)
REMARK    1  A    between atoms: C_1  and  C_2
REMARK    2  A    between atoms: N_6  and  O_7
REMARK    3  A    between atoms: O_7  and  C_8
REMARK    4  A    between atoms: C_8  and  C_9
REMARK    5  A    between atoms: N_11  and  C_12
REMARK    6  A    between atoms: C_12  and  C_13
REMARK    7  A    between atoms: C_13  and  C_14
REMARK    8  A    between atoms: C_34  and  C_43
REMARK    9  A    between atoms: C_39  and  C_40
REMARK   10  A    between atoms: C_39  and  O_42
REMARK                            x       y       z     vdW  Elec       q    Type
REMARK                         _______ _______ _______ _____ _____    ______ ____
ROOT
ATOM      1  C   UNL     1       1.460   2.304  -0.876  0.00  0.00    +0.016 C 
ATOM      2  C   UNL     1       2.211   1.458   0.154  0.00  0.00    -0.007 C 
ATOM      3  C   UNL     1       1.874   2.019   1.524  0.00  0.00    +0.017 C 
ATOM      4  C   UNL     1       0.502   1.547   2.004  0.00  0.00    +0.059 C 
ATOM      5  C   UNL     1       0.527   0.031   2.027  0.00  0.00    +0.080 C 
ATOM      6  N   UNL     1       0.124  -0.642   3.058  0.00  0.00    -0.089 NA
ATOM      7  C   UNL     1       1.033  -0.636   0.815  0.00  0.00    +0.026 C 
ATOM      8  C   UNL     1       1.800   0.030  -0.039  0.00  0.00    -0.062 C 
ATOM      9  C   UNL     1       2.261  -0.694  -1.291  0.00  0.00    +0.031 C 
ATOM     10  C   UNL     1       3.771  -0.495  -1.442  0.00  0.00    +0.008 C 
ATOM     11  C   UNL     1       4.087   1.004  -1.458  0.00  0.00    -0.003 C 
ATOM     12  C   UNL     1       3.706   1.619  -0.113  0.00  0.00    +0.002 C 
ATOM     13  C   UNL     1       4.518   0.917   0.980  0.00  0.00    +0.005 C 
ATOM     14  C   UNL     1       5.995   1.230   0.753  0.00  0.00    +0.011 C 
ATOM     15  C   UNL     1       6.469   0.707  -0.604  0.00  0.00    +0.011 C 
ATOM     16  C   UNL     1       5.560   1.208  -1.740  0.00  0.00    +0.002 C 
ATOM     17  C   UNL     1       5.934   2.696  -1.868  0.00  0.00    +0.008 C 
ATOM     18  C   UNL     1       7.470   2.697  -1.683  0.00  0.00    +0.049 C 
ATOM     19  C   UNL     1       7.818   1.414  -0.904  0.00  0.00    +0.132 C 
ATOM     20  C   UNL     1       6.589  -0.819  -0.609  0.00  0.00    +0.015 C 
ENDROOT
BRANCH  19  21
ATOM     21  C   UNL     1       8.501   1.756   0.354  0.00  0.00    -0.070 C 
ATOM     22  C   UNL     1       9.045   2.029   1.358  0.00  0.00    +0.007 C 
ENDBRANCH  19  21
BRANCH  19  23
ATOM     23  O   UNL     1       8.650   0.568  -1.700  0.00  0.00    -0.376 OA
ATOM     24  H   UNL     1       9.509   0.955  -1.921  0.00  0.00    +0.211 HD
ENDBRANCH  19  23
BRANCH   6  25
ATOM     25  O   UNL     1       0.163  -2.057   3.040  0.00  0.00    -0.384 OA
BRANCH  25  26
ATOM     26  C   UNL     1      -0.311  -2.667   4.242  0.00  0.00    +0.358 C 
BRANCH  26  27
ATOM     27  C   UNL     1      -0.225  -4.166   4.112  0.00  0.00    +0.253 C 
ATOM     28  O   UNL     1       0.200  -4.663   3.090  0.00  0.00    -0.272 OA
ATOM     29  N   UNL     1      -0.620  -4.955   5.131  0.00  0.00    -0.312 N 
ATOM     30  H   UNL     1      -0.960  -4.558   5.948  0.00  0.00    +0.149 HD
BRANCH  29  31
ATOM     31  C   UNL     1      -0.536  -6.412   5.004  0.00  0.00    +0.109 C 
BRANCH  31  32
ATOM     32  C   UNL     1      -1.043  -7.066   6.291  0.00  0.00    +0.056 C 
BRANCH  32  33
ATOM     33  C   UNL     1      -0.957  -8.565   6.161  0.00  0.00    -0.021 A 
ATOM     34  C   UNL     1      -1.944  -9.391   5.781  0.00  0.00    +0.087 A 
ATOM     35  N   UNL     1      -1.496 -10.684   5.778  0.00  0.00    -0.360 N 
ATOM     36  H   UNL     1      -2.028 -11.458   5.537  0.00  0.00    +0.165 HD
ATOM     37  C   UNL     1      -0.177 -10.722   6.174  0.00  0.00    +0.047 A 
ATOM     38  C   UNL     1       0.218  -9.397   6.432  0.00  0.00    +0.003 A 
ATOM     39  C   UNL     1       1.520  -9.128   6.854  0.00  0.00    +0.010 A 
ATOM     40  C   UNL     1       2.407 -10.155   7.016  0.00  0.00    +0.001 A 
ATOM     41  C   UNL     1       2.022 -11.465   6.764  0.00  0.00    +0.002 A 
ATOM     42  C   UNL     1       0.741 -11.752   6.346  0.00  0.00    +0.026 A 
ENDBRANCH  32  33
ENDBRANCH  31  32
ENDBRANCH  29  31
ENDBRANCH  26  27
ENDBRANCH  25  26
ENDBRANCH   6  25
TORSDOF 8
