REMARK  Name = ZINC00107800
REMARK  5 active torsions:
REMARK  status: ('A' for Active; 'I' for Inactive)
REMARK    1  A    between atoms: C_7  and  C_11
REMARK    2  A    between atoms: C_7  and  O_21
REMARK    3  A    between atoms: C_11  and  C_12
REMARK    4  A    between atoms: C_12  and  C_14
REMARK    5  A    between atoms: C_18  and  N_20
REMARK                            x       y       z     vdW  Elec       q    Type
REMARK                         _______ _______ _______ _____ _____    ______ ____
ROOT
ATOM      1  C   UNL     1       2.399   0.017  -0.021  0.00  0.00    +0.000 A 
ATOM      2  C   UNL     1       1.204  -0.680  -0.013  0.00  0.00    +0.002 A 
ATOM      3  C   UNL     1       0.002  -0.004   0.002  0.00  0.00    +0.024 A 
ATOM      4  C   UNL     1      -0.017   1.389   0.010  0.00  0.00    +0.040 A 
ATOM      5  C   UNL     1       1.189   2.078   0.002  0.00  0.00    +0.014 A 
ATOM      6  C   UNL     1       2.388   1.401  -0.013  0.00  0.00    +0.009 A 
ATOM      7  C   UNL     1       0.840   3.549   0.013  0.00  0.00    +0.175 C 
ATOM      8  C   UNL     1      -0.674   3.567   0.027  0.00  0.00    +0.254 C 
ATOM      9  O   UNL     1      -1.383   4.551   0.038  0.00  0.00    -0.272 OA
ATOM     10  N   UNL     1      -1.085   2.287   0.019  0.00  0.00    -0.282 N 
ATOM     11  H   UNL     1      -2.017   2.019   0.022  0.00  0.00    +0.155 HD
ENDROOT
BRANCH   7  12
ATOM     12  O   UNL     1       1.340   4.191  -1.162  0.00  0.00    -0.374 OA
ATOM     13  H   UNL     1       1.143   5.136  -1.207  0.00  0.00    +0.211 HD
ENDBRANCH   7  12
BRANCH   7  14
ATOM     14  C   UNL     1       1.396   4.223   1.268  0.00  0.00    +0.129 C 
BRANCH  14  15
ATOM     15  C   UNL     1       0.931   5.655   1.317  0.00  0.00    +0.167 C 
ATOM     16  O   UNL     1       0.225   6.094   0.434  0.00  0.00    -0.292 OA
BRANCH  15  17
ATOM     17  C   UNL     1       1.334   6.522   2.436  0.00  0.00    +0.019 A 
ATOM     18  C   UNL     1       2.144   6.018   3.459  0.00  0.00    +0.011 A 
ATOM     19  C   UNL     1       2.524   6.834   4.503  0.00  0.00    +0.002 A 
ATOM     20  C   UNL     1       2.099   8.149   4.550  0.00  0.00    +0.023 A 
ATOM     21  C   UNL     1       1.289   8.660   3.542  0.00  0.00    +0.025 A 
ATOM     22  C   UNL     1       0.905   7.851   2.484  0.00  0.00    +0.034 A 
BRANCH  21  23
ATOM     23  N   UNL     1       0.863   9.990   3.595  0.00  0.00    -0.358 N 
ATOM     24  H   UNL     1       0.298  10.346   2.892  0.00  0.00    +0.142 HD
ATOM     25  H   UNL     1       1.132  10.556   4.335  0.00  0.00    +0.142 HD
ENDBRANCH  21  23
ENDBRANCH  15  17
ENDBRANCH  14  15
ENDBRANCH   7  14
TORSDOF 5
