REMARK  Name = ZINC00236592
REMARK  6 active torsions:
REMARK  status: ('A' for Active; 'I' for Inactive)
REMARK    1  A    between atoms: C_1  and  C_2
REMARK    2  A    between atoms: C_4  and  O_23
REMARK    3  A    between atoms: C_6  and  O_22
REMARK    4  A    between atoms: C_8  and  O_21
REMARK    5  A    between atoms: C_10  and  N_13
REMARK    6  A    between atoms: N_13  and  C_14
REMARK                            x       y       z     vdW  Elec       q    Type
REMARK                         _______ _______ _______ _____ _____    ______ ____
ROOT
ATOM      1  C   UNL     1      -0.753   1.593  -1.231  0.00  0.00    +0.041 C 
ATOM      2  C   UNL     1      -0.013   1.086   0.008  0.00  0.00    +0.149 C 
ATOM      3  C   UNL     1       1.423   1.616  -0.003  0.00  0.00    +0.174 C 
ATOM      4  C   UNL     1       1.395   3.146   0.066  0.00  0.00    +0.178 C 
ATOM      5  C   UNL     1       0.627   3.575   1.320  0.00  0.00    +0.192 C 
ATOM      6  C   UNL     1      -0.779   2.969   1.280  0.00  0.00    +0.235 C 
ATOM      7  O   UNL     1      -0.680   1.547   1.184  0.00  0.00    -0.351 OA
ENDROOT
BRANCH   6   8
ATOM      8  N   UNL     1      -1.501   3.328   2.503  0.00  0.00    -0.317 N 
ATOM      9  H   UNL     1      -1.024   3.397   3.345  0.00  0.00    +0.149 HD
BRANCH   8  10
ATOM     10  C   UNL     1      -2.876   3.571   2.457  0.00  0.00    +0.029 A 
ATOM     11  C   UNL     1      -3.559   3.478   1.251  0.00  0.00    +0.024 A 
ATOM     12  C   UNL     1      -4.919   3.713   1.209  0.00  0.00    +0.022 A 
ATOM     13  C   UNL     1      -5.600   4.053   2.365  0.00  0.00    +0.041 A 
ATOM     14  C   UNL     1      -4.921   4.151   3.567  0.00  0.00    +0.022 A 
ATOM     15  C   UNL     1      -3.562   3.912   3.616  0.00  0.00    +0.024 A 
ATOM     16 CL   UNL     1      -7.308   4.354   2.308  0.00  0.00    -0.084 Cl
ENDBRANCH   8  10
ENDBRANCH   6   8
BRANCH   5  17
ATOM     17  O   UNL     1       1.314   3.111   2.484  0.00  0.00    -0.385 OA
ATOM     18  H   UNL     1       0.882   3.348   3.316  0.00  0.00    +0.210 HD
ENDBRANCH   5  17
BRANCH   4  19
ATOM     19  O   UNL     1       2.732   3.646   0.131  0.00  0.00    -0.386 OA
ATOM     20  H   UNL     1       2.789   4.611   0.177  0.00  0.00    +0.210 HD
ENDBRANCH   4  19
BRANCH   3  21
ATOM     21  O   UNL     1       2.076   1.203  -1.205  0.00  0.00    -0.387 OA
ATOM     22  H   UNL     1       2.125   0.244  -1.317  0.00  0.00    +0.210 HD
ENDBRANCH   3  21
TORSDOF 5
