REMARK  Name = ZINC01839687
REMARK  7 active torsions:
REMARK  status: ('A' for Active; 'I' for Inactive)
REMARK    1  A    between atoms: C_1  and  C_2
REMARK    2  A    between atoms: C_9  and  N_14
REMARK    3  A    between atoms: C_10  and  C_11
REMARK    4  A    between atoms: N_14  and  C_15
REMARK    5  A    between atoms: C_15  and  N_17
REMARK    6  A    between atoms: C_18  and  C_20
REMARK    7  A    between atoms: C_23  and  C_25
REMARK                            x       y       z     vdW  Elec       q    Type
REMARK                         _______ _______ _______ _____ _____    ______ ____
ROOT
ATOM      1  C   UNL     1      -2.193   4.337   0.036  0.00  0.00    +0.142 C 
ATOM      2  S   UNL     1      -3.747   3.618   0.040  0.00  0.00    -0.018 S 
ENDROOT
BRANCH   1   3
ATOM      3  N   UNL     1      -1.091   3.560   0.027  0.00  0.00    -0.261 N 
ATOM      4  C   UNL     1      -1.213   2.218   0.020  0.00  0.00    +0.285 C 
ATOM      5  O   UNL     1      -2.318   1.707   0.023  0.00  0.00    -0.266 OA
ATOM      6  H   UNL     1      -0.211   3.967   0.025  0.00  0.00    +0.157 HD
BRANCH   4   7
ATOM      7  C   UNL     1      -0.017   1.374   0.010  0.00  0.00    +0.190 A 
ATOM      8  C   UNL     1       0.002  -0.004   0.002  0.00  0.00    +0.055 A 
ATOM      9  C   UNL     1       1.346  -0.389  -0.013  0.00  0.00    +0.050 A 
ATOM     10  C   UNL     1       2.092   0.755  -0.014  0.00  0.00    +0.136 A 
ATOM     11  O   UNL     1       1.261   1.811  -0.000  0.00  0.00    -0.450 OA
BRANCH  10  12
ATOM     12  C   UNL     1       3.567   0.821  -0.027  0.00  0.00    +0.017 A 
ATOM     13  C   UNL     1       4.321  -0.354  -0.034  0.00  0.00    +0.013 A 
ATOM     14  C   UNL     1       5.699  -0.286  -0.052  0.00  0.00    +0.021 A 
ATOM     15  C   UNL     1       6.334   0.945  -0.052  0.00  0.00    +0.041 A 
ATOM     16  C   UNL     1       5.591   2.114  -0.039  0.00  0.00    +0.021 A 
ATOM     17  C   UNL     1       4.214   2.059  -0.027  0.00  0.00    +0.013 A 
ATOM     18 CL   UNL     1       8.068   1.022  -0.067  0.00  0.00    -0.084 Cl
ENDBRANCH  10  12
ENDBRANCH   4   7
ENDBRANCH   1   3
BRANCH   1  19
ATOM     19  N   UNL     1      -2.071   5.679   0.043  0.00  0.00    -0.291 N 
ATOM     20  H   UNL     1      -1.190   6.086   0.041  0.00  0.00    +0.154 HD
BRANCH  19  28
ATOM     21  C   UNL     1      -8.703   9.823   0.195  0.00  0.00    +0.008 C 
ATOM     22  C   UNL     1      -7.264   9.381   0.468  0.00  0.00    -0.009 C 
ATOM     23  C   UNL     1      -6.297  10.224  -0.369  0.00  0.00    +0.008 C 
ATOM     24  C   UNL     1      -4.858   9.963   0.080  0.00  0.00    +0.037 C 
ATOM     25  C   UNL     1      -4.606   8.461   0.071  0.00  0.00    -0.023 A 
ATOM     26  C   UNL     1      -5.633   7.583   0.072  0.00  0.00    -0.004 A 
ATOM     27  S   UNL     1      -4.865   5.988   0.051  0.00  0.00    -0.077 S 
ATOM     28  C   UNL     1      -3.203   6.477   0.053  0.00  0.00    +0.084 A 
ATOM     29  C   UNL     1      -3.282   7.863   0.061  0.00  0.00    +0.068 A 
ATOM     30  C   UNL     1      -7.096   7.905   0.081  0.00  0.00    +0.046 C 
BRANCH  29  31
ATOM     31  C   UNL     1      -2.073   8.693   0.059  0.00  0.00    +0.244 C 
ATOM     32  O   UNL     1      -1.577   9.043  -0.996  0.00  0.00    -0.270 OA
ATOM     33  N   UNL     1      -1.512   9.068   1.225  0.00  0.00    -0.325 N 
ATOM     34  H   UNL     1      -1.907   8.790   2.066  0.00  0.00    +0.145 HD
ATOM     35  H   UNL     1      -0.712   9.617   1.224  0.00  0.00    +0.145 HD
ENDBRANCH  29  31
ENDBRANCH  19  28
ENDBRANCH   1  19
TORSDOF 6
