REMARK  Name = ZINC31638415
REMARK  9 active torsions:
REMARK  status: ('A' for Active; 'I' for Inactive)
REMARK    1  A    between atoms: C_1  and  C_2
REMARK    2  A    between atoms: C_2  and  O_3
REMARK    3  A    between atoms: O_3  and  C_4
REMARK    4  A    between atoms: C_4  and  C_6
REMARK    5  A    between atoms: C_7  and  C_21
REMARK    6  A    between atoms: C_12  and  C_14
REMARK    7  A    between atoms: C_21  and  O_22
REMARK    8  A    between atoms: O_22  and  C_23
REMARK    9  A    between atoms: C_28  and  C_29
REMARK                            x       y       z     vdW  Elec       q    Type
REMARK                         _______ _______ _______ _____ _____    ______ ____
ROOT
ATOM      1  C   UNL     1      -2.795  -2.410   0.126  0.00  0.00    +0.081 C 
ATOM      2  C   UNL     1      -2.985  -3.731  -0.085  0.00  0.00    +0.061 C 
ATOM      3  N   UNL     1      -4.241  -4.255  -0.186  0.00  0.00    -0.269 N 
ATOM      4  C   UNL     1      -5.360  -3.526  -0.089  0.00  0.00    +0.304 C 
ATOM      5  O   UNL     1      -6.436  -4.083  -0.192  0.00  0.00    -0.252 OA
ATOM      6  N   UNL     1      -5.333  -2.195   0.121  0.00  0.00    -0.288 N 
ATOM      7  C   UNL     1      -4.024  -1.533   0.251  0.00  0.00    +0.144 C 
ATOM      8  H   UNL     1      -4.328  -5.210  -0.337  0.00  0.00    +0.156 HD
ATOM      9  H   UNL     1      -6.156  -1.686   0.188  0.00  0.00    +0.151 HD
ENDROOT
BRANCH   7  10
ATOM     10  C   UNL     1      -3.942  -0.465  -0.809  0.00  0.00    -0.022 A 
ATOM     11  C   UNL     1      -4.306  -0.753  -2.111  0.00  0.00    +0.007 A 
ATOM     12  C   UNL     1      -4.232   0.226  -3.083  0.00  0.00    +0.020 A 
ATOM     13  C   UNL     1      -3.792   1.496  -2.753  0.00  0.00    +0.041 A 
ATOM     14  C   UNL     1      -3.428   1.784  -1.450  0.00  0.00    +0.020 A 
ATOM     15  C   UNL     1      -3.508   0.805  -0.478  0.00  0.00    +0.007 A 
ATOM     16 CL   UNL     1      -3.697   2.726  -3.974  0.00  0.00    -0.084 Cl
ENDBRANCH   7  10
BRANCH   1  17
ATOM     17  C   UNL     1      -1.494  -1.866   0.231  0.00  0.00    +0.339 C 
ATOM     18  O   UNL     1      -1.030  -1.608   1.326  0.00  0.00    -0.245 OA
BRANCH  17  19
ATOM     19  O   UNL     1      -0.768  -1.632  -0.882  0.00  0.00    -0.462 OA
BRANCH  19  21
ATOM     20  C   UNL     1       1.204  -0.888  -2.065  0.00  0.00    +0.048 C 
ATOM     21  C   UNL     1       0.538  -1.081  -0.701  0.00  0.00    +0.229 C 
ENDBRANCH  19  21
ENDBRANCH  17  19
ENDBRANCH   1  17
BRANCH   2  22
ATOM     22  C   UNL     1      -1.789  -4.640  -0.210  0.00  0.00    +0.280 C 
BRANCH  22  23
ATOM     23  O   UNL     1      -1.771  -5.556   0.886  0.00  0.00    -0.485 OA
BRANCH  23  24
ATOM     24  C   UNL     1      -0.752  -6.451   0.925  0.00  0.00    +0.133 A 
ATOM     25  C   UNL     1       0.216  -6.446  -0.069  0.00  0.00    +0.046 A 
ATOM     26  C   UNL     1       1.253  -7.358  -0.029  0.00  0.00    +0.004 A 
ATOM     27  C   UNL     1       1.334  -8.282   1.000  0.00  0.00    +0.001 A 
ATOM     28  C   UNL     1       0.381  -8.300   1.995  0.00  0.00    +0.017 A 
ATOM     29  C   UNL     1      -0.669  -7.380   1.970  0.00  0.00    +0.078 A 
BRANCH  29  30
ATOM     30  C   UNL     1      -1.690  -7.391   3.036  0.00  0.00    +0.245 C 
ATOM     31  O   UNL     1      -2.606  -6.592   3.008  0.00  0.00    -0.270 OA
ATOM     32  N   UNL     1      -1.607  -8.286   4.040  0.00  0.00    -0.325 N 
ATOM     33  H   UNL     1      -0.876  -8.923   4.062  0.00  0.00    +0.145 HD
ATOM     34  H   UNL     1      -2.278  -8.293   4.740  0.00  0.00    +0.145 HD
ENDBRANCH  29  30
ENDBRANCH  23  24
ENDBRANCH  22  23
ENDBRANCH   2  22
TORSDOF 8
