REMARK  Name = ZINC09373994
REMARK  18 active torsions:
REMARK  status: ('A' for Active; 'I' for Inactive)
REMARK    1  A    between atoms: C_1  and  C_2
REMARK    2  A    between atoms: C_2  and  N_72
REMARK    3  A    between atoms: C_3  and  C_4
REMARK    4  A    between atoms: C_3  and  N_72
REMARK    5  A    between atoms: C_5  and  C_6
REMARK    6  A    between atoms: C_5  and  N_72
REMARK    7  A    between atoms: C_6  and  N_7
REMARK    8  A    between atoms: C_8  and  C_29
REMARK    9  A    between atoms: C_10  and  C_15
REMARK   10  A    between atoms: C_11  and  O_14
REMARK   11  A    between atoms: C_15  and  C_17
REMARK   12  A    between atoms: C_20  and  O_24
REMARK   13  A    between atoms: C_21  and  C_23
REMARK   14  A    between atoms: O_24  and  C_25
REMARK   15  A    between atoms: C_25  and  C_26
REMARK   16  A    between atoms: C_26  and  C_27
REMARK   17  A    between atoms: C_26  and  C_28
REMARK   18  A    between atoms: C_32  and  N_35
REMARK                            x       y       z     vdW  Elec       q    Type
REMARK                         _______ _______ _______ _____ _____    ______ ____
ROOT
ATOM      1  N   UNL     1      -3.707   3.469  -2.035  0.00  0.00    -0.285 N 
ATOM      2  C   UNL     1      -3.002   2.850  -0.906  0.00  0.00    +0.144 C 
ATOM      3  C   UNL     1      -4.041   2.629   0.169  0.00  0.00    +0.071 C 
ATOM      4  C   UNL     1      -5.216   3.085  -0.324  0.00  0.00    +0.188 C 
ATOM      5  C   UNL     1      -5.000   3.604  -1.691  0.00  0.00    +0.282 C 
ATOM      6  O   UNL     1      -5.864   4.083  -2.399  0.00  0.00    -0.267 OA
ENDROOT
BRANCH   2   7
ATOM      7  C   UNL     1      -1.923   3.772  -0.401  0.00  0.00    -0.022 A 
ATOM      8  C   UNL     1      -0.701   3.257  -0.011  0.00  0.00    +0.008 A 
ATOM      9  C   UNL     1       0.292   4.104   0.447  0.00  0.00    +0.033 A 
ATOM     10  C   UNL     1       0.060   5.465   0.520  0.00  0.00    +0.126 A 
ATOM     11  C   UNL     1      -1.164   5.979   0.134  0.00  0.00    +0.033 A 
ATOM     12  C   UNL     1      -2.156   5.133  -0.324  0.00  0.00    +0.008 A 
BRANCH  10  13
ATOM     13  N   UNL     1       1.122   6.371   1.011  0.00  0.00    +0.056 N 
ATOM     14  O   UNL     1       2.201   5.918   1.351  0.00  0.00    -0.126 OA
ATOM     15  O   UNL     1       0.918   7.570   1.075  0.00  0.00    -0.126 OA
ENDBRANCH  10  13
ENDBRANCH   2   7
BRANCH   4  16
ATOM     16  O   UNL     1      -6.400   3.069   0.331  0.00  0.00    -0.502 OA
ATOM     17  H   UNL     1      -7.109   3.463  -0.254  0.00  0.00    +0.292 HD
ENDBRANCH   4  16
BRANCH   3  18
ATOM     18  C   UNL     1      -3.819   2.034   1.490  0.00  0.00    +0.195 C 
ATOM     19  O   UNL     1      -3.992   2.701   2.494  0.00  0.00    -0.287 OA
BRANCH  18  20
ATOM     20  C   UNL     1      -3.386   0.628   1.604  0.00  0.00    +0.023 A 
ATOM     21  C   UNL     1      -3.311  -0.177   0.462  0.00  0.00    +0.015 A 
ATOM     22  C   UNL     1      -2.901  -1.486   0.572  0.00  0.00    +0.046 A 
ATOM     23  C   UNL     1      -2.574  -2.013   1.816  0.00  0.00    +0.123 A 
ATOM     24  C   UNL     1      -2.652  -1.218   2.954  0.00  0.00    -0.008 A 
ATOM     25  C   UNL     1      -3.056   0.095   2.853  0.00  0.00    +0.018 A 
ATOM     26  C   UNL     1      -2.296  -1.794   4.301  0.00  0.00    +0.047 C 
BRANCH  23  27
ATOM     27  O   UNL     1      -2.176  -3.306   1.921  0.00  0.00    -0.491 OA
BRANCH  27  28
ATOM     28  C   UNL     1      -2.117  -4.066   0.712  0.00  0.00    +0.232 C 
BRANCH  28  29
ATOM     29  C   UNL     1      -1.652  -5.489   1.026  0.00  0.00    +0.020 C 
ATOM     30  C   UNL     1      -2.701  -6.189   1.894  0.00  0.00    +0.010 C 
ATOM     31  C   UNL     1      -1.469  -6.266  -0.279  0.00  0.00    +0.010 C 
ENDBRANCH  28  29
ENDBRANCH  27  28
ENDBRANCH  23  27
ENDBRANCH  18  20
ENDBRANCH   3  18
BRANCH   1  32
ATOM     32  C   UNL     1      -3.108   3.868  -3.311  0.00  0.00    +0.090 C 
BRANCH  32  33
ATOM     33  C   UNL     1      -3.180   2.700  -4.296  0.00  0.00    -0.060 C 
BRANCH  33  34
ATOM     34  N   UNL     1      -2.591   3.125  -5.584  0.00  0.00    +0.380 N 
ATOM     35  H   UNL     1      -3.031   4.005  -5.877  0.00  0.00    -0.082 HD
BRANCH  34  37
ATOM     36  C   UNL     1      -0.445   2.053  -4.986  0.00  0.00    -0.017 C 
ATOM     37  C   UNL     1      -1.138   3.344  -5.427  0.00  0.00    -0.082 C 
ENDBRANCH  34  37
BRANCH  34  38
ATOM     38  C   UNL     1      -2.839   2.097  -6.616  0.00  0.00    -0.082 C 
ATOM     39  C   UNL     1      -2.494   2.682  -7.987  0.00  0.00    -0.017 C 
ENDBRANCH  34  38
ENDBRANCH  33  34
ENDBRANCH  32  33
ENDBRANCH   1  32
TORSDOF 13
