REMARK  Name = ZINC11338533
REMARK  13 active torsions:
REMARK  status: ('A' for Active; 'I' for Inactive)
REMARK    1  A    between atoms: C_1  and  C_2
REMARK    2  A    between atoms: C_2  and  C_3
REMARK    3  A    between atoms: C_2  and  C_4
REMARK    4  A    between atoms: C_4  and  N_5
REMARK    5  A    between atoms: C_6  and  C_8
REMARK    6  A    between atoms: C_8  and  N_9
REMARK    7  A    between atoms: N_9  and  C_10
REMARK    8  A    between atoms: N_9  and  C_18
REMARK    9  A    between atoms: C_10  and  C_11
REMARK   10  A    between atoms: C_11  and  C_12
REMARK   11  A    between atoms: C_19  and  N_34
REMARK   12  A    between atoms: N_20  and  C_27
REMARK   13  A    between atoms: C_27  and  C_28
REMARK                            x       y       z     vdW  Elec       q    Type
REMARK                         _______ _______ _______ _____ _____    ______ ____
ROOT
ATOM      1  C   UNL     1       0.500   5.600  -4.947  0.00  0.00    +0.134 A 
ATOM      2  C   UNL     1       0.546   6.960  -5.094  0.00  0.00    +0.127 A 
ATOM      3  N   UNL     1       1.599   7.530  -5.772  0.00  0.00    -0.276 N 
ATOM      4  C   UNL     1       2.570   6.758  -6.295  0.00  0.00    +0.331 A 
ATOM      5  O   UNL     1       3.490   7.279  -6.895  0.00  0.00    -0.246 OA
ATOM      6  N   UNL     1       2.538   5.420  -6.164  0.00  0.00    -0.273 N 
ATOM      7  H   UNL     1       3.270   4.866  -6.560  0.00  0.00    +0.173 HD
ATOM      8  C   UNL     1       1.528   4.819  -5.504  0.00  0.00    +0.277 A 
ATOM      9  O   UNL     1       1.507   3.605  -5.390  0.00  0.00    -0.266 OA
ENDROOT
BRANCH   2  10
ATOM     10  N   UNL     1      -0.449   7.750  -4.565  0.00  0.00    -0.343 N 
ATOM     11  H   UNL     1      -1.187   7.343  -4.085  0.00  0.00    +0.144 HD
ATOM     12  H   UNL     1      -0.412   8.713  -4.672  0.00  0.00    +0.144 HD
ENDBRANCH   2  10
BRANCH   1  13
ATOM     13  N   UNL     1      -0.568   4.989  -4.250  0.00  0.00    -0.314 N 
BRANCH  13  14
ATOM     14  C   UNL     1      -1.359   4.133  -5.145  0.00  0.00    +0.201 C 
BRANCH  14  16
ATOM     15  N   UNL     1      -3.657   3.222  -5.237  0.00  0.00    -0.314 N 
ATOM     16  C   UNL     1      -2.722   3.904  -4.545  0.00  0.00    +0.230 C 
ATOM     17  O   UNL     1      -2.979   4.333  -3.440  0.00  0.00    -0.274 OA
ATOM     18  H   UNL     1      -3.452   2.879  -6.120  0.00  0.00    +0.149 HD
BRANCH  15  19
ATOM     19  C   UNL     1      -4.982   3.000  -4.654  0.00  0.00    +0.107 C 
BRANCH  19  21
ATOM     20  C   UNL     1      -5.247   0.810  -5.829  0.00  0.00    +0.009 C 
ATOM     21  C   UNL     1      -5.845   2.206  -5.637  0.00  0.00    -0.000 C 
ATOM     22  C   UNL     1      -7.266   2.081  -5.083  0.00  0.00    +0.009 C 
ENDBRANCH  19  21
ENDBRANCH  15  19
ENDBRANCH  14  16
ENDBRANCH  13  14
BRANCH  13  23
ATOM     23  C   UNL     1      -0.076   4.229  -3.093  0.00  0.00    +0.110 C 
BRANCH  23  24
ATOM     24  C   UNL     1       0.309   5.198  -1.974  0.00  0.00    +0.049 C 
BRANCH  24  25
ATOM     25  C   UNL     1       0.697   4.416  -0.745  0.00  0.00    -0.072 C 
ATOM     26  C   UNL     1       1.953   4.166  -0.556  0.00  0.00    -0.028 C 
ATOM     27  C   UNL     1       2.490   3.392   0.613  0.00  0.00    +0.027 C 
ATOM     28  C   UNL     1       1.443   3.316   1.725  0.00  0.00    +0.004 C 
ATOM     29  C   UNL     1       0.111   2.868   1.109  0.00  0.00    +0.005 C 
ATOM     30  C   UNL     1      -0.397   3.977   0.184  0.00  0.00    +0.030 C 
ENDBRANCH  24  25
ENDBRANCH  23  24
ENDBRANCH  13  23
ENDBRANCH   1  13
BRANCH   3  31
ATOM     31  C   UNL     1       1.661   8.985  -5.931  0.00  0.00    +0.163 C 
BRANCH  31  32
ATOM     32  C   UNL     1       0.948   9.383  -7.198  0.00  0.00    -0.028 A 
ATOM     33  C   UNL     1       1.646   9.461  -8.388  0.00  0.00    +0.005 A 
ATOM     34  C   UNL     1       0.992   9.821  -9.551  0.00  0.00    +0.000 A 
ATOM     35  C   UNL     1      -0.359  10.113  -9.522  0.00  0.00    +0.000 A 
ATOM     36  C   UNL     1      -1.056  10.040  -8.330  0.00  0.00    +0.000 A 
ATOM     37  C   UNL     1      -0.403   9.675  -7.168  0.00  0.00    +0.005 A 
ENDBRANCH  31  32
ENDBRANCH   3  31
TORSDOF 11
