REMARK  Name = ZINC39882254
REMARK  10 active torsions:
REMARK  status: ('A' for Active; 'I' for Inactive)
REMARK    1  A    between atoms: C_1  and  C_2
REMARK    2  A    between atoms: C_2  and  C_3
REMARK    3  A    between atoms: C_2  and  C_4
REMARK    4  A    between atoms: C_2  and  C_5
REMARK    5  A    between atoms: N_7  and  C_8
REMARK    6  A    between atoms: C_8  and  C_18
REMARK    7  A    between atoms: C_9  and  C_10
REMARK    8  A    between atoms: N_20  and  C_21
REMARK    9  A    between atoms: C_24  and  S_27
REMARK   10  A    between atoms: S_27  and  N_30
REMARK                            x       y       z     vdW  Elec       q    Type
REMARK                         _______ _______ _______ _____ _____    ______ ____
ROOT
ATOM      1  C   UNL     1       1.808  -2.601  -2.858  0.00  0.00    +0.097 C 
ATOM      2  C   UNL     1       1.550  -3.910  -3.084  0.00  0.00    +0.039 C 
ENDROOT
BRANCH   2   3
ATOM      3  C   UNL     1       2.386  -4.672  -4.023  0.00  0.00    +0.014 A 
ATOM      4  C   UNL     1       2.385  -4.353  -5.386  0.00  0.00    +0.050 A 
ATOM      5  C   UNL     1       3.172  -5.074  -6.260  0.00  0.00    +0.020 A 
ATOM      6  C   UNL     1       3.962  -6.109  -5.793  0.00  0.00    +0.003 A 
ATOM      7  C   UNL     1       3.969  -6.433  -4.448  0.00  0.00    +0.020 A 
ATOM      8  C   UNL     1       3.192  -5.718  -3.558  0.00  0.00    +0.050 A 
ATOM      9 CL   UNL     1       3.209  -6.120  -1.870  0.00  0.00    -0.083 Cl
ATOM     10 CL   UNL     1       1.395  -3.054  -5.975  0.00  0.00    -0.083 Cl
ENDBRANCH   2   3
BRANCH   1  13
ATOM     11  C   UNL     1       1.264  -0.578  -1.729  0.00  0.00    +0.223 C 
ATOM     12  O   UNL     1       2.342  -0.122  -2.050  0.00  0.00    -0.275 OA
ATOM     13  N   UNL     1       0.945  -1.846  -2.056  0.00  0.00    -0.281 N 
ATOM     14  H   UNL     1       0.116  -2.235  -1.735  0.00  0.00    +0.155 HD
BRANCH  11  16
ATOM     15  C   UNL     1       0.889   1.658  -0.724  0.00  0.00    +0.020 C 
ATOM     16  C   UNL     1       0.283   0.273  -0.964  0.00  0.00    +0.039 C 
ATOM     17  C   UNL     1      -0.026  -0.388   0.380  0.00  0.00    +0.020 C 
ATOM     18  C   UNL     1      -1.008   0.414  -1.773  0.00  0.00    +0.020 C 
ENDBRANCH  11  16
ENDBRANCH   1  13
BRANCH   1  19
ATOM     19  C   UNL     1       2.994  -1.972  -3.454  0.00  0.00    +0.262 C 
ATOM     20  O   UNL     1       2.870  -1.206  -4.391  0.00  0.00    -0.268 OA
ATOM     21  N   UNL     1       4.220  -2.244  -2.963  0.00  0.00    -0.280 N 
ATOM     22  H   UNL     1       4.327  -2.917  -2.273  0.00  0.00    +0.155 HD
BRANCH  21  23
ATOM     23  C   UNL     1       5.335  -1.556  -3.449  0.00  0.00    +0.034 A 
ATOM     24  C   UNL     1       5.208  -0.245  -3.889  0.00  0.00    +0.025 A 
ATOM     25  C   UNL     1       6.312   0.432  -4.368  0.00  0.00    +0.030 A 
ATOM     26  C   UNL     1       7.544  -0.194  -4.410  0.00  0.00    +0.105 A 
ATOM     27  C   UNL     1       7.675  -1.500  -3.972  0.00  0.00    +0.030 A 
ATOM     28  C   UNL     1       6.576  -2.180  -3.487  0.00  0.00    +0.025 A 
BRANCH  26  29
ATOM     29  S   UNL     1       8.951   0.673  -5.022  0.00  0.00    +0.056 S 
ATOM     30  O   UNL     1       9.873  -0.313  -5.466  0.00  0.00    -0.153 OA
ATOM     31  O   UNL     1       8.457   1.694  -5.877  0.00  0.00    -0.153 OA
BRANCH  29  32
ATOM     32  N   UNL     1       9.656   1.435  -3.732  0.00  0.00    -0.204 NA
ATOM     33  H   UNL     1      10.614   1.591  -3.725  0.00  0.00    +0.144 HD
ATOM     34  H   UNL     1       9.112   1.725  -2.983  0.00  0.00    +0.144 HD
ENDBRANCH  29  32
ENDBRANCH  26  29
ENDBRANCH  21  23
ENDBRANCH   1  19
TORSDOF 7
