REMARK  Name = ZINC39722418
REMARK  7 active torsions:
REMARK  status: ('A' for Active; 'I' for Inactive)
REMARK    1  A    between atoms: C_1  and  C_2
REMARK    2  A    between atoms: C_2  and  N_3
REMARK    3  A    between atoms: C_4  and  C_27
REMARK    4  A    between atoms: C_8  and  S_10
REMARK    5  A    between atoms: S_10  and  C_11
REMARK    6  A    between atoms: C_11  and  C_12
REMARK    7  A    between atoms: C_20  and  C_24
REMARK                            x       y       z     vdW  Elec       q    Type
REMARK                         _______ _______ _______ _____ _____    ______ ____
ROOT
ATOM      1  N   UNL     1       0.685  -0.493   1.141  0.00  0.00    +0.410 N 
ATOM      2  C   UNL     1       0.622  -1.972   1.284  0.00  0.00    +0.049 C 
ATOM      3  N   UNL     1       1.810  -2.273   2.125  0.00  0.00    -0.267 NA
ATOM      4  N   UNL     1       2.839  -1.343   1.653  0.00  0.00    -0.262 NA
ATOM      5  C   UNL     1       2.134  -0.205   1.029  0.00  0.00    +0.077 C 
ATOM      6  H   UNL     1       1.608  -2.124   3.102  0.00  0.00    +0.139 HD
ATOM      7  H   UNL     1       3.457  -1.791   0.994  0.00  0.00    +0.140 HD
ATOM      8  H   UNL     1       0.296  -0.041   1.954  0.00  0.00    -0.075 HD
ENDROOT
BRANCH   2   9
ATOM      9  C   UNL     1      -0.649  -2.387   1.979  0.00  0.00    -0.046 A 
ATOM     10  C   UNL     1      -1.519  -3.267   1.362  0.00  0.00    +0.005 A 
ATOM     11  C   UNL     1      -2.685  -3.647   2.000  0.00  0.00    +0.020 A 
ATOM     12  C   UNL     1      -2.981  -3.148   3.256  0.00  0.00    +0.041 A 
ATOM     13  C   UNL     1      -2.110  -2.268   3.873  0.00  0.00    +0.020 A 
ATOM     14  C   UNL     1      -0.942  -1.892   3.237  0.00  0.00    +0.005 A 
ATOM     15 CL   UNL     1      -4.445  -3.626   4.057  0.00  0.00    -0.084 Cl
ENDBRANCH   2   9
BRANCH   1  17
ATOM     16  C   UNL     1       0.051   1.461  -0.192  0.00  0.00    -0.017 C 
ATOM     17  C   UNL     1      -0.020  -0.063  -0.074  0.00  0.00    -0.076 C 
ENDBRANCH   1  17
BRANCH   5  18
ATOM     18  S   UNL     1       2.532   1.331   1.908  0.00  0.00    -0.152 S 
BRANCH  18  19
ATOM     19  C   UNL     1       2.039   0.996   3.622  0.00  0.00    +0.143 C 
BRANCH  19  20
ATOM     20  C   UNL     1       2.320   2.208   4.471  0.00  0.00    +0.120 A 
ATOM     21  N   UNL     1       2.022   2.150   5.796  0.00  0.00    -0.310 N 
ATOM     22  H   UNL     1       1.638   1.340   6.167  0.00  0.00    +0.170 HD
ATOM     23  C   UNL     1       2.255   3.212   6.602  0.00  0.00    +0.259 A 
ATOM     24  O   UNL     1       1.993   3.173   7.790  0.00  0.00    -0.267 OA
ATOM     25  C   UNL     1       2.839   4.416   5.986  0.00  0.00    +0.065 A 
ATOM     26  C   UNL     1       3.118   5.560   6.730  0.00  0.00    +0.016 A 
ATOM     27  C   UNL     1       3.660   6.654   6.119  0.00  0.00    +0.016 A 
ATOM     28  C   UNL     1       3.940   6.638   4.746  0.00  0.00    +0.065 A 
ATOM     29  C   UNL     1       3.669   5.506   3.985  0.00  0.00    +0.043 A 
ATOM     30  C   UNL     1       3.115   4.382   4.601  0.00  0.00    +0.079 A 
ATOM     31  N   UNL     1       2.839   3.252   3.902  0.00  0.00    -0.233 NA
BRANCH  28  32
ATOM     32  C   UNL     1       4.526   7.832   4.102  0.00  0.00    +0.387 C 
ATOM     33  O   UNL     1       4.766   8.830   4.767  0.00  0.00    -0.241 OA
ATOM     34  O   UNL     1       4.772   7.822   2.905  0.00  0.00    -0.241 OA
ENDBRANCH  28  32
ENDBRANCH  19  20
ENDBRANCH  18  19
ENDBRANCH   5  18
TORSDOF 6
