REMARK  Name = ZINC01676016
REMARK  4 active torsions:
REMARK  status: ('A' for Active; 'I' for Inactive)
REMARK    1  A    between atoms: C_1  and  C_2
REMARK    2  A    between atoms: C_3  and  N_12
REMARK    3  A    between atoms: C_5  and  S_9
REMARK    4  A    between atoms: C_7  and  N_8
REMARK                            x       y       z     vdW  Elec       q    Type
REMARK                         _______ _______ _______ _____ _____    ______ ____
ROOT
ATOM      1  C   UNL     1       2.455   3.947  -0.000  0.00  0.00    +0.047 C 
ATOM      2  C   UNL     1       1.162   3.174   0.007  0.00  0.00    -0.009 A 
ATOM      3  C   UNL     1       1.182   1.786   0.000  0.00  0.00    +0.031 A 
ATOM      4  C   UNL     1      -0.013   1.076   0.008  0.00  0.00    +0.052 A 
ATOM      5  C   UNL     1      -1.219   1.750   0.017  0.00  0.00    +0.123 A 
ATOM      6  C   UNL     1      -1.242   3.131   0.030  0.00  0.00    +0.052 A 
ATOM      7  C   UNL     1      -0.051   3.847   0.022  0.00  0.00    +0.031 A 
ENDROOT
BRANCH   5   8
ATOM      8  S   UNL     1      -2.731   0.845   0.020  0.00  0.00    +0.140 S 
ATOM      9  O   UNL     1      -3.721   1.708  -0.522  0.00  0.00    -0.140 OA
ATOM     10  O   UNL     1      -2.443  -0.429  -0.540  0.00  0.00    -0.140 OA
ATOM     11  O   UNL     1      -3.110   0.606   1.474  0.00  0.00    -0.043 OA
ENDBRANCH   5   8
BRANCH   7  12
ATOM     12  N   UNL     1      -0.075   5.244   0.029  0.00  0.00    -0.358 N 
ATOM     13  H   UNL     1       0.756   5.743   0.024  0.00  0.00    +0.142 HD
ATOM     14  H   UNL     1      -0.924   5.714   0.039  0.00  0.00    +0.142 HD
ENDBRANCH   7  12
BRANCH   3  15
ATOM     15  N   UNL     1       2.401   1.104  -0.015  0.00  0.00    -0.358 N 
ATOM     16  H   UNL     1       2.414   0.135  -0.020  0.00  0.00    +0.142 HD
ATOM     17  H   UNL     1       3.234   1.601  -0.020  0.00  0.00    +0.142 HD
ENDBRANCH   3  15
TORSDOF 3
