REMARK  Name = ZINC39280369
REMARK  4 active torsions:
REMARK  status: ('A' for Active; 'I' for Inactive)
REMARK    1  A    between atoms: C_6  and  C_7
REMARK    2  A    between atoms: C_9  and  C_13
REMARK    3  A    between atoms: C_17  and  S_21
REMARK    4  A    between atoms: N_19  and  N_20
REMARK                            x       y       z     vdW  Elec       q    Type
REMARK                         _______ _______ _______ _____ _____    ______ ____
ROOT
ATOM      1  C   UNL     1      -1.271  -0.765   0.011  0.00  0.00    +0.091 C 
ATOM      2  C   UNL     1      -1.363  -2.109   0.010  0.00  0.00    +0.034 C 
ATOM      3  C   UNL     1      -2.859  -2.372   0.020  0.00  0.00    +0.187 C 
ATOM      4  N   UNL     1      -3.437  -1.018   0.026  0.00  0.00    -0.176 NA
ATOM      5  N   UNL     1      -2.509  -0.205   0.026  0.00  0.00    -0.154 NA
ENDROOT
BRANCH   1  11
ATOM      6  C   UNL     1      -0.017   1.389   0.010  0.00  0.00    +0.013 A 
ATOM      7  C   UNL     1       1.170   2.094   0.002  0.00  0.00    +0.039 A 
ATOM      8  C   UNL     1       2.379   1.417  -0.013  0.00  0.00    +0.123 A 
ATOM      9  C   UNL     1       2.402   0.032  -0.022  0.00  0.00    +0.039 A 
ATOM     10  C   UNL     1       1.221  -0.680  -0.014  0.00  0.00    +0.013 A 
ATOM     11  C   UNL     1       0.002  -0.004   0.002  0.00  0.00    +0.002 A 
ATOM     12  F   UNL     1       3.538   2.110  -0.021  0.00  0.00    -0.205 F 
ENDBRANCH   1  11
BRANCH   3  13
ATOM     13  C   UNL     1      -3.263  -3.141   1.279  0.00  0.00    +0.185 C 
ATOM     14  N   UNL     1      -3.100  -2.288   2.486  0.00  0.00    -0.234 NA
ATOM     15  N   UNL     1      -4.028  -2.897   3.451  0.00  0.00    -0.228 NA
ATOM     16  C   UNL     1      -5.197  -3.301   2.637  0.00  0.00    +0.211 C 
ATOM     17  N   UNL     1      -4.709  -3.461   1.249  0.00  0.00    -0.197 NA
ATOM     18  H   UNL     1      -2.151  -2.321   2.826  0.00  0.00    +0.143 HD
ATOM     19  H   UNL     1      -3.608  -3.696   3.902  0.00  0.00    +0.143 HD
BRANCH  17  20
ATOM     20  N   UNL     1      -5.420  -2.575   0.342  0.00  0.00    -0.264 NA
ATOM     21  H   UNL     1      -6.405  -2.793   0.321  0.00  0.00    +0.137 HD
ATOM     22  H   UNL     1      -5.269  -1.608   0.588  0.00  0.00    +0.137 HD
ENDBRANCH  17  20
BRANCH  16  23
ATOM     23  S   UNL     1      -5.865  -4.874   3.245  0.00  0.00    -0.142 S 
ATOM     24  H   UNL     1      -6.238  -4.602   4.509  0.00  0.00    +0.105 HD
ENDBRANCH  16  23
ENDBRANCH   3  13
TORSDOF 4
