REMARK  Name = ZINC08017588
REMARK  10 active torsions:
REMARK  status: ('A' for Active; 'I' for Inactive)
REMARK    1  A    between atoms: C_1  and  C_2
REMARK    2  A    between atoms: C_7  and  N_12
REMARK    3  A    between atoms: C_9  and  C_11
REMARK    4  A    between atoms: N_12  and  C_13
REMARK    5  A    between atoms: C_13  and  N_15
REMARK    6  A    between atoms: N_15  and  N_16
REMARK    7  A    between atoms: C_17  and  C_19
REMARK    8  A    between atoms: C_19  and  N_27
REMARK    9  A    between atoms: C_20  and  C_21
REMARK   10  A    between atoms: C_28  and  C_30
REMARK                            x       y       z     vdW  Elec       q    Type
REMARK                         _______ _______ _______ _____ _____    ______ ____
ROOT
ATOM      1  N   UNL     1       3.789   2.779   0.415  0.00  0.00    -0.230 N 
ATOM      2  C   UNL     1       4.981   3.266   0.017  0.00  0.00    +0.274 C 
ATOM      3  O   UNL     1       5.669   2.631  -0.759  0.00  0.00    -0.267 OA
ATOM      4  H   UNL     1       3.271   3.253   1.084  0.00  0.00    +0.173 HD
ENDROOT
BRANCH   1   5
ATOM      5  N   UNL     1       3.299   1.589  -0.138  0.00  0.00    -0.246 N 
ATOM      6  H   UNL     1       3.849   1.076  -0.751  0.00  0.00    +0.172 HD
BRANCH   5   7
ATOM      7  C   UNL     1       2.063   1.156   0.182  0.00  0.00    +0.147 C 
ATOM      8  S   UNL     1       1.513  -0.361  -0.390  0.00  0.00    -0.017 S 
BRANCH   7   9
ATOM      9  N   UNL     1       1.261   1.917   0.952  0.00  0.00    -0.322 N 
ATOM     10  H   UNL     1       1.597   2.742   1.336  0.00  0.00    +0.148 HD
BRANCH   9  16
ATOM     11  C   UNL     1      -2.528   2.296   4.106  0.00  0.00    +0.008 C 
ATOM     12  C   UNL     1      -2.044   1.679   2.792  0.00  0.00    -0.009 C 
ATOM     13  C   UNL     1      -2.942   2.151   1.646  0.00  0.00    +0.003 C 
ATOM     14  C   UNL     1      -2.458   1.534   0.332  0.00  0.00    +0.002 C 
ATOM     15  C   UNL     1      -1.017   1.970   0.064  0.00  0.00    +0.022 C 
ATOM     16  C   UNL     1      -0.119   1.499   1.209  0.00  0.00    +0.075 C 
ATOM     17  C   UNL     1      -0.603   2.116   2.523  0.00  0.00    +0.009 C 
ATOM     18  C   UNL     1       0.295   1.644   3.669  0.00  0.00    +0.009 C 
ENDBRANCH   9  16
ENDBRANCH   7   9
ENDBRANCH   5   7
ENDBRANCH   1   5
BRANCH   2  19
ATOM     19  C   UNL     1       5.451   4.564   0.523  0.00  0.00    +0.098 C 
ATOM     20  C   UNL     1       6.649   5.051   0.127  0.00  0.00    +0.036 C 
BRANCH  20  21
ATOM     21  C   UNL     1       7.130   6.338   0.653  0.00  0.00    -0.023 A 
ATOM     22  C   UNL     1       6.218   7.305   1.087  0.00  0.00    +0.008 A 
ATOM     23  C   UNL     1       6.677   8.507   1.582  0.00  0.00    +0.001 A 
ATOM     24  C   UNL     1       8.036   8.763   1.640  0.00  0.00    +0.000 A 
ATOM     25  C   UNL     1       8.945   7.813   1.207  0.00  0.00    +0.001 A 
ATOM     26  C   UNL     1       8.502   6.604   0.714  0.00  0.00    +0.008 A 
ENDBRANCH  20  21
BRANCH  19  27
ATOM     27  N   UNL     1       4.657   5.297   1.412  0.00  0.00    -0.282 N 
ATOM     28  C   UNL     1       3.418   5.681   1.050  0.00  0.00    +0.214 C 
ATOM     29  O   UNL     1       2.952   5.310  -0.007  0.00  0.00    -0.276 OA
ATOM     30  C   UNL     1       2.609   6.572   1.957  0.00  0.00    +0.109 C 
ATOM     31  H   UNL     1       5.000   5.528   2.290  0.00  0.00    +0.155 HD
ENDBRANCH  19  27
ENDBRANCH   2  19
TORSDOF 7
