REMARK  Name = ZINC63145082
REMARK  5 active torsions:
REMARK  status: ('A' for Active; 'I' for Inactive)
REMARK    1  A    between atoms: C_1  and  C_2
REMARK    2  A    between atoms: C_5  and  C_8
REMARK    3  A    between atoms: C_8  and  N_9
REMARK    4  A    between atoms: N_9  and  C_10
REMARK    5  A    between atoms: C_15  and  N_16
REMARK                            x       y       z     vdW  Elec       q    Type
REMARK                         _______ _______ _______ _____ _____    ______ ____
ROOT
ATOM      1  C   UNL     1      -1.974  -0.328   6.234  0.00  0.00    +0.050 A 
ATOM      2  C   UNL     1      -3.060   0.522   6.378  0.00  0.00    +0.051 A 
ATOM      3  C   UNL     1      -3.536   0.824   7.644  0.00  0.00    +0.078 A 
ATOM      4  C   UNL     1      -2.927   0.275   8.770  0.00  0.00    +0.144 A 
ATOM      5  C   UNL     1      -1.843  -0.574   8.627  0.00  0.00    +0.072 A 
ATOM      6  C   UNL     1      -1.368  -0.882   7.360  0.00  0.00    +0.049 A 
ATOM      7  O   UNL     1      -3.406   0.583  10.007  0.00  0.00    -0.481 OA
ATOM      8  C   UNL     1      -3.954   1.893  10.176  0.00  0.00    +0.325 C 
ATOM      9  C   UNL     1      -4.880   2.206   9.029  0.00  0.00    +0.255 C 
ATOM     10  O   UNL     1      -5.841   2.926   9.202  0.00  0.00    -0.272 OA
ATOM     11  N   UNL     1      -4.636   1.682   7.808  0.00  0.00    -0.280 N 
ATOM     12  H   UNL     1      -5.211   1.896   7.057  0.00  0.00    +0.155 HD
ENDROOT
BRANCH   6  13
ATOM     13  N   UNL     1      -0.274  -1.746   7.214  0.00  0.00    -0.356 N 
ATOM     14  H   UNL     1       0.061  -1.959   6.328  0.00  0.00    +0.142 HD
ATOM     15  H   UNL     1       0.148  -2.132   7.997  0.00  0.00    +0.142 HD
ENDBRANCH   6  13
BRANCH   1  16
ATOM     16  N   UNL     1      -1.489  -0.636   4.954  0.00  0.00    -0.342 N 
ATOM     17  H   UNL     1      -0.732  -1.234   4.853  0.00  0.00    +0.146 HD
BRANCH  16  18
ATOM     18  C   UNL     1      -2.126  -0.054   3.770  0.00  0.00    +0.105 C 
BRANCH  18  23
ATOM     19  C   UNL     1      -0.019   1.526   0.010  0.00  0.00    +0.007 C 
ATOM     20  C   UNL     1       0.002  -0.004   0.002  0.00  0.00    -0.014 C 
ATOM     21  C   UNL     1      -1.433  -0.534   0.013  0.00  0.00    +0.003 C 
ATOM     22  C   UNL     1      -2.149  -0.040   1.272  0.00  0.00    +0.005 C 
ATOM     23  C   UNL     1      -1.409  -0.547   2.511  0.00  0.00    +0.006 C 
ATOM     24  C   UNL     1       0.026  -0.018   2.500  0.00  0.00    +0.005 C 
ATOM     25  C   UNL     1       0.742  -0.511   1.242  0.00  0.00    +0.003 C 
ENDBRANCH  18  23
ENDBRANCH  16  18
ENDBRANCH   1  16
TORSDOF 4
