REMARK  Name = ZINC13145665
REMARK  7 active torsions:
REMARK  status: ('A' for Active; 'I' for Inactive)
REMARK    1  A    between atoms: C_6  and  C_7
REMARK    2  A    between atoms: N_9  and  C_10
REMARK    3  A    between atoms: C_10  and  C_12
REMARK    4  A    between atoms: C_10  and  C_16
REMARK    5  A    between atoms: C_12  and  C_13
REMARK    6  A    between atoms: N_18  and  C_19
REMARK    7  A    between atoms: C_22  and  C_25
REMARK                            x       y       z     vdW  Elec       q    Type
REMARK                         _______ _______ _______ _____ _____    ______ ____
ROOT
ATOM      1  C   UNL     1      -4.857   5.876  -0.632  0.00  0.00    +0.238 C 
ATOM      2  O   UNL     1      -5.841   6.405  -1.106  0.00  0.00    -0.273 OA
ATOM      3  N   UNL     1      -3.721   6.583  -0.477  0.00  0.00    -0.284 N 
ATOM      4  H   UNL     1      -2.914   6.143  -0.165  0.00  0.00    +0.155 HD
ENDROOT
BRANCH   3   5
ATOM      5  C   UNL     1      -3.703   7.952  -0.765  0.00  0.00    +0.033 A 
ATOM      6  C   UNL     1      -2.555   8.541  -1.278  0.00  0.00    +0.023 A 
ATOM      7  C   UNL     1      -2.543   9.892  -1.567  0.00  0.00    +0.006 A 
ATOM      8  C   UNL     1      -3.669  10.660  -1.335  0.00  0.00    -0.041 A 
ATOM      9  C   UNL     1      -4.812  10.078  -0.819  0.00  0.00    +0.006 A 
ATOM     10  C   UNL     1      -4.832   8.726  -0.533  0.00  0.00    +0.023 A 
BRANCH   8  11
ATOM     11  C   UNL     1      -3.650  12.134  -1.645  0.00  0.00    -0.003 C 
ATOM     12  C   UNL     1      -3.925  12.928  -0.366  0.00  0.00    +0.015 C 
ATOM     13  C   UNL     1      -3.906  14.425  -0.680  0.00  0.00    -0.010 C 
ATOM     14  C   UNL     1      -2.534  14.812  -1.236  0.00  0.00    +0.007 C 
ATOM     15  C   UNL     1      -2.259  14.018  -2.515  0.00  0.00    -0.010 C 
ATOM     16  C   UNL     1      -2.278  12.521  -2.200  0.00  0.00    +0.015 C 
ATOM     17  C   UNL     1      -3.337  14.335  -3.553  0.00  0.00    +0.007 C 
ATOM     18  C   UNL     1      -4.709  13.948  -2.998  0.00  0.00    -0.010 C 
ATOM     19  C   UNL     1      -4.984  14.742  -1.719  0.00  0.00    +0.007 C 
ATOM     20  C   UNL     1      -4.728  12.451  -2.683  0.00  0.00    +0.015 C 
ENDBRANCH   8  11
ENDBRANCH   3   5
BRANCH   1  21
ATOM     21  C   UNL     1      -4.907   4.428  -0.218  0.00  0.00    +0.168 C 
BRANCH  21  24
ATOM     22  C   UNL     1      -7.244   4.102   0.388  0.00  0.00    +0.245 C 
ATOM     23  O   UNL     1      -7.021   4.667   1.441  0.00  0.00    -0.270 OA
ATOM     24  N   UNL     1      -6.242   3.888  -0.487  0.00  0.00    -0.300 N 
ATOM     25  H   UNL     1      -6.405   3.377  -1.295  0.00  0.00    +0.150 HD
BRANCH  22  31
ATOM     26  C   UNL     1      -8.874   3.006  -1.143  0.00  0.00    +0.014 A 
ATOM     27  C   UNL     1     -10.156   2.591  -1.439  0.00  0.00    +0.021 A 
ATOM     28  C   UNL     1     -11.184   2.812  -0.538  0.00  0.00    +0.041 A 
ATOM     29  C   UNL     1     -10.932   3.451   0.665  0.00  0.00    +0.021 A 
ATOM     30  C   UNL     1      -9.654   3.870   0.972  0.00  0.00    +0.014 A 
ATOM     31  C   UNL     1      -8.614   3.650   0.068  0.00  0.00    +0.037 A 
ATOM     32 CL   UNL     1     -12.794   2.287  -0.917  0.00  0.00    -0.084 Cl
ENDBRANCH  22  31
ENDBRANCH  21  24
BRANCH  21  33
ATOM     33  C   UNL     1      -3.867   3.635  -1.012  0.00  0.00    +0.127 C 
BRANCH  33  34
ATOM     34  C   UNL     1      -3.834   2.212  -0.516  0.00  0.00    +0.213 C 
ATOM     35  O   UNL     1      -4.496   1.891   0.448  0.00  0.00    -0.276 OA
ATOM     36  N   UNL     1      -3.070   1.297  -1.145  0.00  0.00    -0.329 N 
ATOM     37  H   UNL     1      -2.541   1.554  -1.916  0.00  0.00    +0.145 HD
ATOM     38  H   UNL     1      -3.049   0.381  -0.825  0.00  0.00    +0.145 HD
ENDBRANCH  33  34
ENDBRANCH  21  33
ENDBRANCH   1  21
TORSDOF 7
