REMARK  Name = ZINC61693056
REMARK  3 active torsions:
REMARK  status: ('A' for Active; 'I' for Inactive)
REMARK    1  A    between atoms: C_3  and  S_6
REMARK    2  A    between atoms: S_6  and  N_9
REMARK    3  A    between atoms: N_9  and  C_10
REMARK                            x       y       z     vdW  Elec       q    Type
REMARK                         _______ _______ _______ _____ _____    ______ ____
ROOT
ATOM      1  N   UNL     1       4.477   2.089   1.552  0.00  0.00    -0.096 NA
ENDROOT
BRANCH   1   2
ATOM      2  C   UNL     1       5.762   2.549   1.851  0.00  0.00    +0.094 A 
ATOM      3  C   UNL     1       6.640   2.879   0.827  0.00  0.00    +0.043 A 
ATOM      4  C   UNL     1       7.910   3.333   1.126  0.00  0.00    +0.020 A 
ATOM      5  C   UNL     1       8.308   3.459   2.446  0.00  0.00    +0.017 A 
ATOM      6  C   UNL     1       7.437   3.131   3.468  0.00  0.00    +0.023 A 
ATOM      7  C   UNL     1       6.164   2.681   3.176  0.00  0.00    +0.065 A 
ATOM      8 CL   UNL     1       5.068   2.277   4.460  0.00  0.00    -0.082 Cl
ATOM      9 BR   UNL     1       9.105   3.783  -0.268  0.00  0.00    -0.050 Br
ENDBRANCH   1   2
BRANCH   1  10
ATOM     10  S   UNL     1       4.001   1.932  -0.026  0.00  0.00    +0.098 S 
ATOM     11  O   UNL     1       4.799   0.900  -0.590  0.00  0.00    -0.148 OA
ATOM     12  O   UNL     1       3.957   3.244  -0.570  0.00  0.00    -0.148 OA
BRANCH  10  15
ATOM     13  C   UNL     1      -0.016   1.351   0.009  0.00  0.00    +0.010 A 
ATOM     14  C   UNL     1       1.183   2.038   0.002  0.00  0.00    +0.037 A 
ATOM     15  C   UNL     1       2.343   1.336  -0.013  0.00  0.00    +0.148 A 
ATOM     16  S   UNL     1       1.754  -0.349  -0.017  0.00  0.00    -0.077 S 
ATOM     17  C   UNL     1       0.002  -0.004   0.002  0.00  0.00    +0.047 A 
ENDBRANCH  10  15
ENDBRANCH   1  10
TORSDOF 3
