REMARK  Name = ZINC22689238
REMARK  8 active torsions:
REMARK  status: ('A' for Active; 'I' for Inactive)
REMARK    1  A    between atoms: C_1  and  C_2
REMARK    2  A    between atoms: C_2  and  C_3
REMARK    3  A    between atoms: C_2  and  C_4
REMARK    4  A    between atoms: C_7  and  N_10
REMARK    5  A    between atoms: C_11  and  C_13
REMARK    6  A    between atoms: C_18  and  N_19
REMARK    7  A    between atoms: N_19  and  S_20
REMARK    8  A    between atoms: S_20  and  C_23
REMARK                            x       y       z     vdW  Elec       q    Type
REMARK                         _______ _______ _______ _____ _____    ______ ____
ROOT
ATOM      1  C   UNL     1      -2.349   1.085   0.658  0.00  0.00    +0.059 A 
ATOM      2  C   UNL     1      -3.495   1.874   0.792  0.00  0.00    +0.015 A 
ATOM      3  C   UNL     1      -3.644   3.006   0.022  0.00  0.00    +0.001 A 
ATOM      4  C   UNL     1      -2.660   3.372  -0.883  0.00  0.00    +0.002 A 
ATOM      5  C   UNL     1      -1.520   2.607  -1.023  0.00  0.00    +0.025 A 
ATOM      6  C   UNL     1      -1.352   1.462  -0.255  0.00  0.00    +0.060 A 
ENDROOT
BRANCH   1   8
ATOM      7  N   UNL     1      -3.145  -0.488   2.351  0.00  0.00    -0.281 N 
ATOM      8  C   UNL     1      -2.185  -0.131   1.475  0.00  0.00    +0.250 C 
ATOM      9  O   UNL     1      -1.185  -0.811   1.359  0.00  0.00    -0.270 OA
ATOM     10  H   UNL     1      -4.088   0.077   2.394  0.00  0.00    +0.155 HD
BRANCH   7  14
ATOM     11  C   UNL     1      -2.543  -3.732   4.893  0.00  0.00    -0.045 A 
ATOM     12  C   UNL     1      -1.473  -2.938   4.523  0.00  0.00    +0.006 A 
ATOM     13  C   UNL     1      -1.669  -1.861   3.680  0.00  0.00    +0.023 A 
ATOM     14  C   UNL     1      -2.943  -1.577   3.204  0.00  0.00    +0.034 A 
ATOM     15  C   UNL     1      -4.016  -2.374   3.582  0.00  0.00    +0.023 A 
ATOM     16  C   UNL     1      -3.812  -3.452   4.421  0.00  0.00    +0.006 A 
BRANCH  11  18
ATOM     17  C   UNL     1      -3.159  -4.723   7.081  0.00  0.00    +0.012 C 
ATOM     18  C   UNL     1      -2.325  -4.907   5.812  0.00  0.00    +0.013 C 
ATOM     19  C   UNL     1      -2.749  -6.194   5.104  0.00  0.00    +0.012 C 
ENDBRANCH  11  18
ENDBRANCH   7  14
ENDBRANCH   1   8
BRANCH   6  20
ATOM     20  N   UNL     1      -0.205   0.690  -0.395  0.00  0.00    -0.216 N 
ATOM     21  H   UNL     1      -0.265  -0.405  -0.304  0.00  0.00    +0.174 HD
BRANCH  20  22
ATOM     22  S   UNL     1       1.251   1.418  -0.696  0.00  0.00    +0.072 S 
ATOM     23  O   UNL     1       2.234   0.393  -0.652  0.00  0.00    -0.150 OA
ATOM     24  O   UNL     1       1.063   2.245  -1.837  0.00  0.00    -0.150 OA
BRANCH  22  25
ATOM     25  C   UNL     1       1.586   2.495   0.657  0.00  0.00    +0.111 A 
ATOM     26  C   UNL     1       1.157   3.811   0.614  0.00  0.00    +0.031 A 
ATOM     27  C   UNL     1       1.410   4.661   1.672  0.00  0.00    +0.030 A 
ATOM     28  C   UNL     1       2.106   4.198   2.778  0.00  0.00    +0.067 A 
ATOM     29  C   UNL     1       2.543   2.873   2.820  0.00  0.00    +0.069 A 
ATOM     30  C   UNL     1       2.280   2.025   1.755  0.00  0.00    +0.056 A 
ATOM     31  N   UNL     1       3.201   2.704   4.036  0.00  0.00    -0.306 N 
ATOM     32  H   UNL     1       3.636   1.728   4.295  0.00  0.00    +0.170 HD
ATOM     33  C   UNL     1       3.166   3.873   4.703  0.00  0.00    +0.325 A 
ATOM     34  O   UNL     1       3.651   4.068   5.802  0.00  0.00    -0.247 OA
ATOM     35  N   UNL     1       2.512   4.794   3.970  0.00  0.00    -0.306 N 
ATOM     36  H   UNL     1       2.277   5.851   4.165  0.00  0.00    +0.170 HD
ENDBRANCH  22  25
ENDBRANCH  20  22
ENDBRANCH   6  20
TORSDOF 6
