REMARK  Name = ZINC35828127
REMARK  6 active torsions:
REMARK  status: ('A' for Active; 'I' for Inactive)
REMARK    1  A    between atoms: C_3  and  C_8
REMARK    2  A    between atoms: C_5  and  O_7
REMARK    3  A    between atoms: C_10  and  C_22
REMARK    4  A    between atoms: C_12  and  C_17
REMARK    5  A    between atoms: C_12  and  O_21
REMARK    6  A    between atoms: C_22  and  C_24
REMARK                            x       y       z     vdW  Elec       q    Type
REMARK                         _______ _______ _______ _____ _____    ______ ____
ROOT
ATOM      1  C   UNL     1       3.753   1.930   0.341  0.00  0.00    +0.120 C 
ATOM      2  C   UNL     1       4.271   2.712   1.553  0.00  0.00    +0.144 C 
ATOM      3  C   UNL     1       5.309   3.730   1.068  0.00  0.00    +0.243 C 
ATOM      4  N   UNL     1       4.707   4.574   0.034  0.00  0.00    -0.264 N 
ATOM      5  C   UNL     1       3.729   4.114  -0.759  0.00  0.00    +0.302 C 
ATOM      6  O   UNL     1       3.271   4.853  -1.609  0.00  0.00    -0.253 OA
ATOM      7  N   UNL     1       3.236   2.870  -0.654  0.00  0.00    -0.292 N 
ATOM      8  H   UNL     1       5.023   5.484  -0.079  0.00  0.00    +0.153 HD
ATOM      9  H   UNL     1       2.523   2.589  -1.248  0.00  0.00    +0.151 HD
ENDROOT
BRANCH   1  12
ATOM     10  C   UNL     1       0.333   0.611   1.251  0.00  0.00    +0.004 A 
ATOM     11  C   UNL     1       1.348   1.461   0.852  0.00  0.00    +0.006 A 
ATOM     12  C   UNL     1       2.649   1.000   0.777  0.00  0.00    -0.023 A 
ATOM     13  C   UNL     1       2.939  -0.311   1.100  0.00  0.00    +0.051 A 
ATOM     14  C   UNL     1       1.923  -1.166   1.500  0.00  0.00    +0.117 A 
ATOM     15  C   UNL     1       0.617  -0.701   1.575  0.00  0.00    +0.045 A 
BRANCH  14  16
ATOM     16  O   UNL     1       2.205  -2.457   1.819  0.00  0.00    -0.507 OA
ATOM     17  H   UNL     1       2.419  -2.594   2.752  0.00  0.00    +0.292 HD
ENDBRANCH  14  16
ENDBRANCH   1  12
BRANCH   3  18
ATOM     18  C   UNL     1       5.757   4.602   2.243  0.00  0.00    +0.436 C 
ATOM     19  F   UNL     1       6.202   3.784   3.287  0.00  0.00    -0.166 F 
ATOM     20  F   UNL     1       6.798   5.441   1.831  0.00  0.00    -0.166 F 
ATOM     21  F   UNL     1       4.681   5.378   2.685  0.00  0.00    -0.166 F 
ENDBRANCH   3  18
BRANCH   3  22
ATOM     22  O   UNL     1       6.437   3.041   0.525  0.00  0.00    -0.364 OA
ATOM     23  H   UNL     1       7.135   3.625   0.199  0.00  0.00    +0.212 HD
ENDBRANCH   3  22
BRANCH   2  24
ATOM     24  C   UNL     1       3.126   3.429   2.220  0.00  0.00    +0.173 C 
ATOM     25  O   UNL     1       2.508   4.279   1.615  0.00  0.00    -0.292 OA
BRANCH  24  26
ATOM     26  C   UNL     1       2.758   3.099   3.605  0.00  0.00    +0.018 A 
ATOM     27  C   UNL     1       3.392   2.042   4.267  0.00  0.00    +0.013 A 
ATOM     28  C   UNL     1       3.042   1.738   5.565  0.00  0.00    +0.020 A 
ATOM     29  C   UNL     1       2.065   2.476   6.214  0.00  0.00    +0.041 A 
ATOM     30  C   UNL     1       1.433   3.524   5.564  0.00  0.00    +0.020 A 
ATOM     31  C   UNL     1       1.776   3.843   4.268  0.00  0.00    +0.013 A 
ATOM     32 CL   UNL     1       1.630   2.085   7.849  0.00  0.00    -0.084 Cl
ENDBRANCH  24  26
ENDBRANCH   2  24
TORSDOF 6
