REMARK  Name = ZINC21734848
REMARK  6 active torsions:
REMARK  status: ('A' for Active; 'I' for Inactive)
REMARK    1  A    between atoms: C_1  and  C_2
REMARK    2  A    between atoms: C_2  and  C_4
REMARK    3  A    between atoms: C_2  and  S_19
REMARK    4  A    between atoms: N_6  and  C_7
REMARK    5  A    between atoms: S_19  and  C_20
REMARK    6  A    between atoms: N_25  and  C_26
REMARK                            x       y       z     vdW  Elec       q    Type
REMARK                         _______ _______ _______ _____ _____    ______ ____
ROOT
ATOM      1  C   UNL     1      -0.571   1.310   1.758  0.00  0.00    +0.029 C 
ATOM      2  C   UNL     1       0.050   0.997   0.395  0.00  0.00    +0.136 C 
ENDROOT
BRANCH   2   3
ATOM      3  C   UNL     1       1.452   1.546   0.343  0.00  0.00    +0.230 C 
ATOM      4  O   UNL     1       1.658   2.640  -0.139  0.00  0.00    -0.274 OA
ATOM      5  N   UNL     1       2.478   0.821   0.833  0.00  0.00    -0.285 N 
ATOM      6  H   UNL     1       2.283  -0.132   1.345  0.00  0.00    +0.155 HD
BRANCH   5   7
ATOM      7  C   UNL     1       3.793   1.283   0.688  0.00  0.00    +0.035 A 
ATOM      8  C   UNL     1       4.736   1.011   1.673  0.00  0.00    +0.025 A 
ATOM      9  C   UNL     1       6.033   1.462   1.536  0.00  0.00    +0.029 A 
ATOM     10  C   UNL     1       6.398   2.190   0.413  0.00  0.00    +0.067 A 
ATOM     11  C   UNL     1       5.454   2.464  -0.578  0.00  0.00    +0.069 A 
ATOM     12  C   UNL     1       4.153   2.005  -0.440  0.00  0.00    +0.051 A 
ATOM     13  N   UNL     1       6.107   3.199  -1.564  0.00  0.00    -0.306 N 
ATOM     14  H   UNL     1       5.556   3.533  -2.456  0.00  0.00    +0.170 HD
ATOM     15  C   UNL     1       7.390   3.365  -1.191  0.00  0.00    +0.325 A 
ATOM     16  O   UNL     1       8.234   3.964  -1.832  0.00  0.00    -0.247 OA
ATOM     17  N   UNL     1       7.597   2.768  -0.003  0.00  0.00    -0.306 N 
ATOM     18  H   UNL     1       8.496   2.681   0.625  0.00  0.00    +0.170 HD
ENDBRANCH   5   7
ENDBRANCH   2   3
BRANCH   2  19
ATOM     19  S   UNL     1      -0.947   1.760  -0.913  0.00  0.00    -0.084 S 
BRANCH  19  20
ATOM     20  C   UNL     1      -2.492   0.919  -0.818  0.00  0.00    +0.161 A 
ATOM     21  N   UNL     1      -2.871  -0.045   0.000  0.00  0.00    -0.133 NA
ATOM     22  N   UNL     1      -4.139  -0.567  -0.099  0.00  0.00    -0.125 NA
ATOM     23  C   UNL     1      -4.972  -0.103  -1.010  0.00  0.00    +0.187 A 
ATOM     24  S   UNL     1      -3.968   1.147  -1.798  0.00  0.00    -0.024 S 
ATOM     25  N   UNL     1      -6.282  -0.481  -1.281  0.00  0.00    -0.292 N 
ATOM     26  H   UNL     1      -6.810  -0.054  -2.146  0.00  0.00    +0.154 HD
BRANCH  25  27
ATOM     27  C   UNL     1      -6.928  -1.403  -0.454  0.00  0.00    +0.034 A 
ATOM     28  C   UNL     1      -6.522  -1.559   0.866  0.00  0.00    +0.023 A 
ATOM     29  C   UNL     1      -7.163  -2.471   1.681  0.00  0.00    +0.003 A 
ATOM     30  C   UNL     1      -8.207  -3.230   1.185  0.00  0.00    +0.015 A 
ATOM     31  C   UNL     1      -8.615  -3.078  -0.129  0.00  0.00    +0.020 A 
ATOM     32  C   UNL     1      -7.981  -2.162  -0.948  0.00  0.00    +0.038 A 
ATOM     33 BR   UNL     1     -10.044  -4.117  -0.801  0.00  0.00    -0.050 Br
ENDBRANCH  25  27
ENDBRANCH  19  20
ENDBRANCH   2  19
TORSDOF 5
