REMARK  Name = ZINC05677113
REMARK  3 active torsions:
REMARK  status: ('A' for Active; 'I' for Inactive)
REMARK    1  A    between atoms: C_1  and  C_2
REMARK    2  A    between atoms: C_2  and  N_9
REMARK    3  A    between atoms: N_12  and  C_13
REMARK                            x       y       z     vdW  Elec       q    Type
REMARK                         _______ _______ _______ _____ _____    ______ ____
ROOT
ATOM      1  N   UNL     1       0.625  -0.457  -1.244  0.00  0.00    -0.316 N 
ATOM      2  C   UNL     1       1.946  -0.181  -1.491  0.00  0.00    +0.169 C 
ATOM      3  S   UNL     1       2.928   0.601  -0.255  0.00  0.00    -0.014 SA
ATOM      4  N   UNL     1       2.479  -0.500  -2.651  0.00  0.00    -0.189 NA
ATOM      5  H   UNL     1       0.104  -0.956  -1.893  0.00  0.00    +0.149 HD
ENDROOT
BRANCH   1   7
ATOM      6  C   UNL     1       0.054   1.532   0.036  0.00  0.00    +0.033 C 
ATOM      7  C   UNL     1      -0.000   0.003  -0.002  0.00  0.00    +0.052 C 
ATOM      8  C   UNL     1      -1.464  -0.435  -0.002  0.00  0.00    +0.049 C 
ATOM      9  C   UNL     1      -1.607  -1.838   0.651  0.00  0.00    +0.168 C 
ATOM     10  S   UNL     1      -0.398  -1.657   2.035  0.00  0.00    -0.029 S 
ATOM     11  O   UNL     1      -1.013  -0.951   3.104  0.00  0.00    -0.174 OA
ATOM     12  O   UNL     1       0.217  -2.914   2.285  0.00  0.00    -0.174 OA
ATOM     13  C   UNL     1       0.806  -0.550   1.190  0.00  0.00    +0.191 C 
ENDBRANCH   1   7
BRANCH   4  14
ATOM     14  C   UNL     1       3.790  -0.227  -2.896  0.00  0.00    +0.249 A 
ATOM     15  N   UNL     1       4.467  -0.503  -4.067  0.00  0.00    -0.302 N 
ATOM     16  C   UNL     1       5.741  -0.086  -3.928  0.00  0.00    +0.174 A 
ATOM     17  N   UNL     1       5.867   0.444  -2.694  0.00  0.00    -0.253 N 
ATOM     18  H   UNL     1       6.674   0.825  -2.314  0.00  0.00    +0.191 HD
ATOM     19  N   UNL     1       4.619   0.348  -2.064  0.00  0.00    -0.133 NA
ATOM     20  S   UNL     1       6.978  -0.208  -5.106  0.00  0.00    -0.012 S 
ATOM     21  H   UNL     1       4.090  -0.926  -4.855  0.00  0.00    +0.171 HD
ENDBRANCH   4  14
TORSDOF 2
