REMARK  Name = ZINC09886064
REMARK  7 active torsions:
REMARK  status: ('A' for Active; 'I' for Inactive)
REMARK    1  A    between atoms: C_1  and  C_2
REMARK    2  A    between atoms: C_10  and  O_29
REMARK    3  A    between atoms: N_14  and  O_15
REMARK    4  A    between atoms: O_15  and  C_16
REMARK    5  A    between atoms: C_16  and  C_17
REMARK    6  A    between atoms: C_26  and  O_27
REMARK    7  A    between atoms: C_26  and  O_28
REMARK                            x       y       z     vdW  Elec       q    Type
REMARK                         _______ _______ _______ _____ _____    ______ ____
ROOT
ATOM      1  C   UNL     1       8.067   4.909  -3.582  0.00  0.00    +0.017 C 
ATOM      2  C   UNL     1       8.461   4.913  -2.103  0.00  0.00    +0.025 C 
ATOM      3  C   UNL     1       8.803   6.323  -1.616  0.00  0.00    +0.013 C 
ATOM      4  C   UNL     1       7.548   7.186  -1.509  0.00  0.00    +0.009 C 
ATOM      5  C   UNL     1       6.611   6.549  -0.479  0.00  0.00    +0.023 C 
ATOM      6  C   UNL     1       5.423   7.436  -0.236  0.00  0.00    -0.035 A 
ATOM      7  C   UNL     1       5.592   8.809  -0.237  0.00  0.00    +0.008 A 
ATOM      8  C   UNL     1       4.519   9.646  -0.001  0.00  0.00    +0.046 A 
ATOM      9  C   UNL     1       3.257   9.119   0.240  0.00  0.00    +0.117 A 
ATOM     10  C   UNL     1       3.073   7.747   0.241  0.00  0.00    +0.055 A 
ATOM     11  C   UNL     1       4.156   6.902  -0.001  0.00  0.00    +0.006 A 
ATOM     12  C   UNL     1       3.954   5.435  -0.006  0.00  0.00    +0.088 C 
ATOM     13  N   UNL     1       2.766   4.924   0.002  0.00  0.00    -0.088 NA
ATOM     14  C   UNL     1       5.186   4.551  -0.017  0.00  0.00    +0.063 C 
ATOM     15  C   UNL     1       6.185   5.181  -0.998  0.00  0.00    +0.006 C 
ATOM     16  C   UNL     1       7.370   4.276  -1.223  0.00  0.00    +0.004 C 
ATOM     17  C   UNL     1       8.115   3.938   0.082  0.00  0.00    +0.010 C 
ATOM     18  C   UNL     1       9.491   3.432  -0.410  0.00  0.00    +0.065 C 
ATOM     19  C   UNL     1       9.703   4.029  -1.813  0.00  0.00    +0.170 C 
ENDROOT
BRANCH  19  20
ATOM     20  O   UNL     1      10.889   4.825  -1.833  0.00  0.00    -0.364 OA
ATOM     21  H   UNL     1      11.700   4.328  -1.659  0.00  0.00    +0.213 HD
ENDBRANCH  19  20
BRANCH  19  22
ATOM     22  O   UNL     1       9.797   2.982  -2.782  0.00  0.00    -0.364 OA
ATOM     23  H   UNL     1      10.554   2.395  -2.654  0.00  0.00    +0.213 HD
ENDBRANCH  19  22
BRANCH   9  24
ATOM     24  O   UNL     1       2.206   9.948   0.476  0.00  0.00    -0.507 OA
ATOM     25  H   UNL     1       2.078  10.164   1.410  0.00  0.00    +0.292 HD
ENDBRANCH   9  24
BRANCH  13  26
ATOM     26  O   UNL     1       2.600   3.518  -0.004  0.00  0.00    -0.382 OA
BRANCH  26  27
ATOM     27  C   UNL     1       1.235   3.094   0.007  0.00  0.00    +0.387 C 
BRANCH  27  28
ATOM     28  C   UNL     1       1.177   1.588  -0.001  0.00  0.00    +0.395 C 
ATOM     29  O   UNL     1       2.199   0.944  -0.014  0.00  0.00    -0.242 OA
ATOM     30  O   UNL     1      -0.011   0.963   0.007  0.00  0.00    -0.242 OA
ENDBRANCH  27  28
ENDBRANCH  26  27
ENDBRANCH  13  26
TORSDOF 6
