REMARK  Name = ZINC34380647
REMARK  7 active torsions:
REMARK  status: ('A' for Active; 'I' for Inactive)
REMARK    1  A    between atoms: C_1  and  C_2
REMARK    2  A    between atoms: C_2  and  C_4
REMARK    3  A    between atoms: C_2  and  O_33
REMARK    4  A    between atoms: C_4  and  C_30
REMARK    5  A    between atoms: C_9  and  C_12
REMARK    6  A    between atoms: C_17  and  O_18
REMARK    7  A    between atoms: N_21  and  C_24
REMARK                            x       y       z     vdW  Elec       q    Type
REMARK                         _______ _______ _______ _____ _____    ______ ____
ROOT
ATOM      1  C   UNL     1       0.641  -0.259   1.308  0.00  0.00    +0.074 C 
ATOM      2  C   UNL     1       0.531  -1.778   1.214  0.00  0.00    +0.088 C 
ATOM      3  C   UNL     1       0.985  -2.098   2.689  0.00  0.00    +0.077 C 
ATOM      4  C   UNL     1       0.174  -1.185   3.503  0.00  0.00    -0.023 C 
ATOM      5  N   UNL     1       0.023   0.044   2.641  0.00  0.00    +0.397 N 
ATOM      6  C   UNL     1       1.323  -3.498   2.601  0.00  0.00    +0.225 C 
ATOM      7  O   UNL     1       1.192  -4.345   3.459  0.00  0.00    -0.275 OA
ATOM      8  N   UNL     1       1.823  -3.663   1.333  0.00  0.00    -0.239 N 
ATOM      9  C   UNL     1       1.575  -2.585   0.509  0.00  0.00    +0.225 C 
ATOM     10  O   UNL     1       2.092  -2.334  -0.558  0.00  0.00    -0.275 OA
ATOM     11  H   UNL     1       0.493   0.829   3.066  0.00  0.00    -0.083 HD
ATOM     12  H   UNL     1      -0.957   0.253   2.524  0.00  0.00    -0.083 HD
ENDROOT
BRANCH   4  13
ATOM     13  C   UNL     1      -1.164  -1.806   3.815  0.00  0.00    -0.019 A 
ATOM     14  C   UNL     1      -2.245  -1.570   2.987  0.00  0.00    +0.005 A 
ATOM     15  C   UNL     1      -3.472  -2.139   3.273  0.00  0.00    +0.000 A 
ATOM     16  C   UNL     1      -3.621  -2.945   4.386  0.00  0.00    +0.004 A 
ATOM     17  C   UNL     1      -2.543  -3.185   5.216  0.00  0.00    +0.045 A 
ATOM     18  C   UNL     1      -1.308  -2.619   4.929  0.00  0.00    +0.118 A 
BRANCH  18  19
ATOM     19  O   UNL     1      -0.245  -2.857   5.740  0.00  0.00    -0.507 OA
ATOM     20  H   UNL     1      -0.151  -2.221   6.462  0.00  0.00    +0.292 HD
ENDBRANCH  18  19
ENDBRANCH   4  13
BRANCH   8  21
ATOM     21  C   UNL     1       2.537  -4.864   0.893  0.00  0.00    +0.084 C 
ATOM     22  C   UNL     1       1.622  -6.082   1.034  0.00  0.00    +0.023 C 
ATOM     23  C   UNL     1       2.368  -7.337   0.574  0.00  0.00    +0.002 C 
ATOM     24  C   UNL     1       3.615  -7.534   1.438  0.00  0.00    +0.000 C 
ATOM     25  C   UNL     1       4.530  -6.316   1.297  0.00  0.00    +0.002 C 
ATOM     26  C   UNL     1       3.785  -5.061   1.757  0.00  0.00    +0.023 C 
ENDBRANCH   8  21
BRANCH   1  27
ATOM     27  C   UNL     1       2.083   0.178   1.278  0.00  0.00    +0.349 C 
ATOM     28  O   UNL     1       2.563   0.760   2.236  0.00  0.00    -0.248 OA
ATOM     29  O   UNL     1       2.769  -0.051   0.297  0.00  0.00    -0.248 OA
ENDBRANCH   1  27
BRANCH   1  31
ATOM     30  C   UNL     1      -0.121   1.929   0.372  0.00  0.00    +0.037 C 
ATOM     31  C   UNL     1      -0.149   0.411   0.182  0.00  0.00    +0.112 C 
BRANCH  31  32
ATOM     32  O   UNL     1       0.442   0.078  -1.076  0.00  0.00    -0.393 OA
ATOM     33  H   UNL     1       1.362   0.360  -1.166  0.00  0.00    +0.210 HD
ENDBRANCH  31  32
ENDBRANCH   1  31
TORSDOF 6
