REMARK  Name = ZINC67181460
REMARK  4 active torsions:
REMARK  status: ('A' for Active; 'I' for Inactive)
REMARK    1  A    between atoms: C_1  and  C_2
REMARK    2  A    between atoms: C_6  and  C_7
REMARK    3  A    between atoms: N_9  and  N_10
REMARK    4  A    between atoms: C_11  and  C_13
REMARK                            x       y       z     vdW  Elec       q    Type
REMARK                         _______ _______ _______ _____ _____    ______ ____
ROOT
ATOM      1  N   UNL     1       0.059  -0.732   4.900  0.00  0.00    -0.230 N 
ATOM      2  C   UNL     1       0.081  -1.625   5.909  0.00  0.00    +0.260 C 
ATOM      3  O   UNL     1       0.094  -2.815   5.667  0.00  0.00    -0.269 OA
ATOM      4  H   UNL     1       0.048   0.219   5.094  0.00  0.00    +0.173 HD
ENDROOT
BRANCH   2   5
ATOM      5  C   UNL     1       0.088  -1.155   7.314  0.00  0.00    +0.040 A 
ATOM      6  C   UNL     1       0.067   0.222   7.587  0.00  0.00    +0.014 A 
ATOM      7  C   UNL     1       0.073   0.678   8.870  0.00  0.00    +0.016 A 
ATOM      8  C   UNL     1       0.102  -0.233   9.935  0.00  0.00    +0.065 A 
ATOM      9  C   UNL     1       0.123  -1.628   9.674  0.00  0.00    +0.080 A 
ATOM     10  C   UNL     1       0.110  -2.079   8.346  0.00  0.00    +0.041 A 
ATOM     11  N   UNL     1       0.149  -2.485  10.704  0.00  0.00    -0.223 NA
ATOM     12  C   UNL     1       0.155  -2.043  11.953  0.00  0.00    +0.180 A 
ATOM     13  N   UNL     1       0.135  -0.734  12.253  0.00  0.00    -0.301 N 
ATOM     14  H   UNL     1       0.141  -0.456  13.182  0.00  0.00    +0.171 HD
ATOM     15  C   UNL     1       0.109   0.201  11.278  0.00  0.00    +0.260 A 
ATOM     16  O   UNL     1       0.089   1.511  11.580  0.00  0.00    -0.267 OA
ATOM     17  S   UNL     1       0.189  -3.182  13.230  0.00  0.00    -0.011 S 
ENDBRANCH   2   5
BRANCH   1  20
ATOM     18  C   UNL     1       0.031  -0.283   2.562  0.00  0.00    +0.267 C 
ATOM     19  O   UNL     1       0.017   0.910   2.805  0.00  0.00    -0.268 OA
ATOM     20  N   UNL     1       0.052  -1.176   3.571  0.00  0.00    -0.230 N 
ATOM     21  H   UNL     1       0.063  -2.126   3.378  0.00  0.00    +0.173 HD
BRANCH  18  27
ATOM     22  C   UNL     1      -0.018   1.503   0.010  0.00  0.00    +0.045 C 
ATOM     23  C   UNL     1       0.002  -0.004   0.002  0.00  0.00    -0.031 A 
ATOM     24  C   UNL     1       0.007  -0.729  -1.166  0.00  0.00    +0.011 A 
ATOM     25  C   UNL     1       0.025  -2.083  -1.101  0.00  0.00    +0.046 A 
ATOM     26  S   UNL     1       0.037  -2.416   0.545  0.00  0.00    -0.092 S 
ATOM     27  C   UNL     1       0.023  -0.748   1.172  0.00  0.00    +0.078 A 
ENDBRANCH  18  27
ENDBRANCH   1  20
TORSDOF 3
