REMARK  Name = ZINC39353086
REMARK  10 active torsions:
REMARK  status: ('A' for Active; 'I' for Inactive)
REMARK    1  A    between atoms: C_1  and  C_2
REMARK    2  A    between atoms: C_2  and  C_3
REMARK    3  A    between atoms: C_2  and  C_4
REMARK    4  A    between atoms: C_2  and  C_5
REMARK    5  A    between atoms: C_7  and  C_11
REMARK    6  A    between atoms: N_13  and  N_14
REMARK    7  A    between atoms: C_15  and  C_16
REMARK    8  A    between atoms: C_18  and  O_24
REMARK    9  A    between atoms: C_19  and  O_23
REMARK   10  A    between atoms: O_24  and  C_25
REMARK                            x       y       z     vdW  Elec       q    Type
REMARK                         _______ _______ _______ _____ _____    ______ ____
ROOT
ATOM      1  C   UNL     1       3.305  -0.473  -3.310  0.00  0.00    +0.262 C 
ATOM      2  O   UNL     1       4.059  -1.230  -2.735  0.00  0.00    -0.271 OA
ATOM      3  N   UNL     1       3.800   0.534  -4.056  0.00  0.00    -0.205 N 
ATOM      4  H   UNL     1       3.197   1.139  -4.515  0.00  0.00    +0.177 HD
ENDROOT
BRANCH   1   7
ATOM      5  C   UNL     1       0.707  -0.490  -1.238  0.00  0.00    +0.067 C 
ATOM      6  C   UNL     1       1.233   0.306  -2.172  0.00  0.00    +0.036 C 
ATOM      7  C   UNL     1       1.815  -0.660  -3.189  0.00  0.00    +0.240 C 
ATOM      8  N   UNL     1       1.496  -1.978  -2.615  0.00  0.00    -0.170 NA
ATOM      9  N   UNL     1       0.899  -1.790  -1.552  0.00  0.00    -0.158 NA
BRANCH   5  11
ATOM     10  C   UNL     1      -0.019   1.526   0.010  0.00  0.00    +0.017 C 
ATOM     11  C   UNL     1       0.002  -0.004   0.002  0.00  0.00    +0.006 C 
ATOM     12  C   UNL     1       0.742  -0.511   1.242  0.00  0.00    +0.017 C 
ATOM     13  C   UNL     1      -1.433  -0.534   0.013  0.00  0.00    +0.017 C 
ENDBRANCH   5  11
ENDBRANCH   1   7
BRANCH   3  14
ATOM     14  N   UNL     1       5.186   0.708  -4.168  0.00  0.00    -0.188 NA
ATOM     15  C   UNL     1       5.662   1.678  -4.886  0.00  0.00    +0.138 C 
BRANCH  15  16
ATOM     16  C   UNL     1       7.120   1.861  -5.003  0.00  0.00    -0.000 A 
ATOM     17  C   UNL     1       7.635   2.909  -5.772  0.00  0.00    +0.059 A 
ATOM     18  C   UNL     1       9.003   3.076  -5.879  0.00  0.00    +0.163 A 
ATOM     19  C   UNL     1       9.866   2.202  -5.222  0.00  0.00    +0.177 A 
ATOM     20  C   UNL     1       9.355   1.161  -4.458  0.00  0.00    +0.087 A 
ATOM     21  C   UNL     1       7.991   0.991  -4.343  0.00  0.00    +0.033 A 
ATOM     22 CL   UNL     1      10.436   0.074  -3.642  0.00  0.00    -0.080 Cl
BRANCH  19  23
ATOM     23  O   UNL     1      11.211   2.368  -5.329  0.00  0.00    -0.502 OA
ATOM     24  H   UNL     1      11.592   2.941  -4.649  0.00  0.00    +0.292 HD
ENDBRANCH  19  23
BRANCH  18  25
ATOM     25  O   UNL     1       9.507   4.094  -6.626  0.00  0.00    -0.491 OA
ATOM     26  C   UNL     1       8.565   4.952  -7.273  0.00  0.00    +0.277 C 
ENDBRANCH  18  25
ENDBRANCH  15  16
ENDBRANCH   3  14
TORSDOF 6
