REMARK  Name = ZINC40687849
REMARK  6 active torsions:
REMARK  status: ('A' for Active; 'I' for Inactive)
REMARK    1  A    between atoms: C_6  and  O_11
REMARK    2  A    between atoms: O_11  and  C_12
REMARK    3  A    between atoms: C_13  and  N_29
REMARK    4  A    between atoms: C_14  and  N_18
REMARK    5  A    between atoms: N_18  and  N_19
REMARK    6  A    between atoms: C_20  and  C_22
REMARK                            x       y       z     vdW  Elec       q    Type
REMARK                         _______ _______ _______ _____ _____    ______ ____
ROOT
ATOM      1  C   UNL     1       4.862  -3.987   0.040  0.00  0.00    +0.246 A 
ATOM      2  C   UNL     1       6.055  -4.702   0.140  0.00  0.00    +0.129 A 
ATOM      3  C   UNL     1       5.983  -6.094   0.239  0.00  0.00    +0.163 A 
ATOM      4  N   UNL     1       4.788  -6.679   0.233  0.00  0.00    -0.217 NA
ATOM      5  C   UNL     1       3.685  -5.964   0.136  0.00  0.00    +0.227 A 
ATOM      6  N   UNL     1       3.710  -4.650   0.047  0.00  0.00    -0.199 NA
ENDROOT
BRANCH   2   7
ATOM      7  N   UNL     1       7.294  -4.042   0.142  0.00  0.00    -0.351 N 
ATOM      8  H   UNL     1       7.328  -3.075   0.072  0.00  0.00    +0.143 HD
ATOM      9  H   UNL     1       8.115  -4.553   0.212  0.00  0.00    +0.143 HD
ENDBRANCH   2   7
BRANCH   3  10
ATOM     10  N   UNL     1       7.141  -6.855   0.341  0.00  0.00    -0.246 N 
ATOM     11  H   UNL     1       8.008  -6.421   0.344  0.00  0.00    +0.172 HD
BRANCH  10  12
ATOM     12  N   UNL     1       7.056  -8.250   0.440  0.00  0.00    -0.231 N 
ATOM     13  C   UNL     1       8.179  -8.988   0.538  0.00  0.00    +0.260 C 
ATOM     14  O   UNL     1       9.266  -8.444   0.542  0.00  0.00    -0.269 OA
ATOM     15  H   UNL     1       6.188  -8.684   0.436  0.00  0.00    +0.173 HD
BRANCH  13  16
ATOM     16  C   UNL     1       8.089 -10.460   0.642  0.00  0.00    +0.038 A 
ATOM     17  C   UNL     1       6.843 -11.088   0.632  0.00  0.00    +0.014 A 
ATOM     18  C   UNL     1       6.766 -12.462   0.730  0.00  0.00    +0.016 A 
ATOM     19  C   UNL     1       7.921 -13.217   0.837  0.00  0.00    +0.018 A 
ATOM     20  C   UNL     1       9.161 -12.600   0.848  0.00  0.00    +0.016 A 
ATOM     21  C   UNL     1       9.251 -11.227   0.745  0.00  0.00    +0.014 A 
ATOM     22 BR   UNL     1       7.807 -15.100   0.970  0.00  0.00    -0.050 Br
ENDBRANCH  13  16
ENDBRANCH  10  12
ENDBRANCH   3  10
BRANCH   1  23
ATOM     23  O   UNL     1       4.878  -2.634  -0.058  0.00  0.00    -0.436 OA
BRANCH  23  29
ATOM     24  C   UNL     1      -0.495   0.507  -1.131  0.00  0.00    +0.001 A 
ATOM     25  C   UNL     1       0.182   0.339  -2.337  0.00  0.00    +0.001 A 
ATOM     26  C   UNL     1       1.376  -0.312  -2.386  0.00  0.00    +0.008 A 
ATOM     27  C   UNL     1       1.939  -0.822  -1.203  0.00  0.00    -0.014 A 
ATOM     28  C   UNL     1       3.170  -1.498  -1.215  0.00  0.00    +0.054 A 
ATOM     29  C   UNL     1       3.687  -1.980  -0.046  0.00  0.00    +0.131 A 
ATOM     30  C   UNL     1       3.005  -1.810   1.164  0.00  0.00    +0.047 A 
ATOM     31  C   UNL     1       1.812  -1.160   1.208  0.00  0.00    +0.012 A 
ATOM     32  C   UNL     1       1.251  -0.650   0.024  0.00  0.00    -0.018 A 
ATOM     33  C   UNL     1       0.019   0.027   0.034  0.00  0.00    +0.008 A 
ENDBRANCH  23  29
ENDBRANCH   1  23
TORSDOF 6
