REMARK  Name = ZINC04689460
REMARK  8 active torsions:
REMARK  status: ('A' for Active; 'I' for Inactive)
REMARK    1  A    between atoms: C_1  and  C_2
REMARK    2  A    between atoms: C_2  and  O_3
REMARK    3  A    between atoms: O_3  and  C_4
REMARK    4  A    between atoms: C_4  and  C_6
REMARK    5  A    between atoms: C_7  and  C_21
REMARK    6  A    between atoms: C_12  and  C_14
REMARK    7  A    between atoms: C_21  and  N_52
REMARK    8  A    between atoms: C_22  and  N_52
REMARK                            x       y       z     vdW  Elec       q    Type
REMARK                         _______ _______ _______ _____ _____    ______ ____
ROOT
ATOM      1  C   UNL     1      -1.497   2.565   1.456  0.00  0.00    +0.076 C 
ATOM      2  C   UNL     1      -1.751   3.872   1.678  0.00  0.00    +0.007 C 
ATOM      3  N   UNL     1      -1.790   4.767   0.647  0.00  0.00    -0.274 N 
ATOM      4  C   UNL     1      -1.585   4.434  -0.634  0.00  0.00    +0.304 C 
ATOM      5  O   UNL     1      -1.640   5.302  -1.483  0.00  0.00    -0.252 OA
ATOM      6  N   UNL     1      -1.320   3.168  -1.012  0.00  0.00    -0.288 N 
ATOM      7  C   UNL     1      -1.256   2.125   0.026  0.00  0.00    +0.143 C 
ATOM      8  H   UNL     1      -1.976   5.696   0.854  0.00  0.00    +0.156 HD
ATOM      9  H   UNL     1      -1.175   2.949  -1.945  0.00  0.00    +0.151 HD
ENDROOT
BRANCH   7  10
ATOM     10  C   UNL     1       0.107   1.487  -0.040  0.00  0.00    -0.022 A 
ATOM     11  C   UNL     1       1.238   2.278  -0.115  0.00  0.00    +0.007 A 
ATOM     12  C   UNL     1       2.489   1.693  -0.181  0.00  0.00    +0.020 A 
ATOM     13  C   UNL     1       2.608   0.314  -0.173  0.00  0.00    +0.041 A 
ATOM     14  C   UNL     1       1.476  -0.477  -0.099  0.00  0.00    +0.020 A 
ATOM     15  C   UNL     1       0.226   0.109  -0.032  0.00  0.00    +0.007 A 
ATOM     16 CL   UNL     1       4.178  -0.422  -0.258  0.00  0.00    -0.084 Cl
ENDBRANCH   7  10
BRANCH   1  17
ATOM     17  C   UNL     1      -1.456   1.637   2.523  0.00  0.00    +0.339 C 
ATOM     18  O   UNL     1      -2.407   0.907   2.731  0.00  0.00    -0.245 OA
BRANCH  17  19
ATOM     19  O   UNL     1      -0.362   1.561   3.310  0.00  0.00    -0.462 OA
BRANCH  19  21
ATOM     20  C   UNL     1       0.927   0.662   5.146  0.00  0.00    +0.048 C 
ATOM     21  C   UNL     1      -0.390   0.601   4.369  0.00  0.00    +0.229 C 
ENDBRANCH  19  21
ENDBRANCH  17  19
ENDBRANCH   1  17
BRANCH   2  22
ATOM     22  C   UNL     1      -1.997   4.352   3.085  0.00  0.00    -0.030 C 
BRANCH  22  23
ATOM     23  N   UNL     1      -0.905   5.260   3.484  0.00  0.00    +0.384 N 
ATOM     24  H   UNL     1      -0.880   6.061   2.842  0.00  0.00    -0.085 HD
ATOM     25  H   UNL     1      -0.012   4.756   3.438  0.00  0.00    -0.085 HD
BRANCH  23  26
ATOM     26  C   UNL     1      -1.121   5.746   4.860  0.00  0.00    -0.071 C 
ATOM     27  C   UNL     1      -2.042   6.967   4.833  0.00  0.00    -0.016 C 
ATOM     28  C   UNL     1      -2.257   7.475   6.260  0.00  0.00    -0.002 C 
ATOM     29  C   UNL     1      -0.910   7.867   6.870  0.00  0.00    -0.000 C 
ATOM     30  C   UNL     1       0.011   6.646   6.897  0.00  0.00    -0.002 C 
ATOM     31  C   UNL     1       0.227   6.137   5.471  0.00  0.00    -0.016 C 
ENDBRANCH  23  26
ENDBRANCH  22  23
ENDBRANCH   2  22
TORSDOF 7
