REMARK  Name = ZINC20805614
REMARK  7 active torsions:
REMARK  status: ('A' for Active; 'I' for Inactive)
REMARK    1  A    between atoms: C_10  and  C_11
REMARK    2  A    between atoms: N_12  and  N_13
REMARK    3  A    between atoms: C_17  and  S_20
REMARK    4  A    between atoms: N_18  and  N_19
REMARK    5  A    between atoms: S_20  and  C_21
REMARK    6  A    between atoms: C_21  and  C_22
REMARK    7  A    between atoms: N_24  and  C_25
REMARK                            x       y       z     vdW  Elec       q    Type
REMARK                         _______ _______ _______ _____ _____    ______ ____
ROOT
ATOM      1  N   UNL     1       1.257   0.086  -0.112  0.00  0.00    -0.204 N 
ATOM      2  C   UNL     1      -0.014  -0.468  -0.116  0.00  0.00    +0.254 A 
ATOM      3  N   UNL     1      -1.145   0.197  -0.128  0.00  0.00    -0.109 NA
ATOM      4  N   UNL     1      -2.193  -0.732  -0.131  0.00  0.00    -0.119 NA
ATOM      5  C   UNL     1      -1.669  -1.935  -0.113  0.00  0.00    +0.210 A 
ATOM      6  N   UNL     1      -0.310  -1.803  -0.103  0.00  0.00    -0.211 N 
ATOM      7  H   UNL     1       2.142  -0.568  -0.097  0.00  0.00    +0.177 HD
ENDROOT
BRANCH   6   8
ATOM      8  N   UNL     1       0.596  -2.825  -0.085  0.00  0.00    -0.294 N 
ATOM      9  H   UNL     1       0.248  -3.869  -0.075  0.00  0.00    +0.163 HD
ATOM     10  H   UNL     1       1.674  -2.605  -0.079  0.00  0.00    +0.163 HD
ENDBRANCH   6   8
BRANCH   1  12
ATOM     11  C   UNL     1       2.607   1.998  -0.123  0.00  0.00    +0.139 C 
ATOM     12  N   UNL     1       1.415   1.478  -0.127  0.00  0.00    -0.187 NA
BRANCH  11  22
ATOM     13  C   UNL     1      -0.542   6.072   0.160  0.00  0.00    +0.001 A 
ATOM     14  C   UNL     1      -0.740   4.694   0.179  0.00  0.00    +0.001 A 
ATOM     15  C   UNL     1       0.314   3.834   0.084  0.00  0.00    +0.009 A 
ATOM     16  C   UNL     1       1.613   4.342  -0.034  0.00  0.00    -0.009 A 
ATOM     17  C   UNL     1       1.818   5.744  -0.053  0.00  0.00    -0.017 A 
ATOM     18  C   UNL     1       0.708   6.601   0.047  0.00  0.00    +0.008 A 
ATOM     19  C   UNL     1       3.123   6.250  -0.172  0.00  0.00    +0.008 A 
ATOM     20  C   UNL     1       4.188   5.408  -0.269  0.00  0.00    +0.001 A 
ATOM     21  C   UNL     1       4.036   4.029  -0.247  0.00  0.00    +0.010 A 
ATOM     22  C   UNL     1       2.773   3.458  -0.138  0.00  0.00    +0.002 A 
ENDBRANCH  11  22
ENDBRANCH   1  12
BRANCH   5  23
ATOM     23  S   UNL     1      -2.562  -3.454  -0.102  0.00  0.00    -0.075 S 
BRANCH  23  24
ATOM     24  C   UNL     1      -4.258  -2.821  -0.124  0.00  0.00    +0.173 C 
BRANCH  24  25
ATOM     25  C   UNL     1      -5.225  -3.977  -0.118  0.00  0.00    +0.228 C 
ATOM     26  O   UNL     1      -4.809  -5.116  -0.102  0.00  0.00    -0.275 OA
ATOM     27  N   UNL     1      -6.553  -3.745  -0.132  0.00  0.00    -0.284 N 
ATOM     28  H   UNL     1      -6.931  -2.714  -0.071  0.00  0.00    +0.155 HD
BRANCH  27  29
ATOM     29  C   UNL     1      -7.447  -4.813  -0.223  0.00  0.00    +0.041 A 
ATOM     30  C   UNL     1      -7.158  -6.016   0.384  0.00  0.00    +0.024 A 
ATOM     31  C   UNL     1      -8.043  -7.087   0.299  0.00  0.00    +0.002 A 
ATOM     32  C   UNL     1      -9.216  -6.977  -0.383  0.00  0.00    +0.008 A 
ATOM     33  C   UNL     1      -9.549  -5.767  -1.015  0.00  0.00    -0.016 A 
ATOM     34  C   UNL     1      -8.659  -4.668  -0.932  0.00  0.00    +0.003 A 
ATOM     35  C   UNL     1      -8.991  -3.461  -1.567  0.00  0.00    +0.010 A 
ATOM     36  C   UNL     1     -10.166  -3.359  -2.247  0.00  0.00    +0.001 A 
ATOM     37  C   UNL     1     -11.045  -4.438  -2.326  0.00  0.00    +0.001 A 
ATOM     38  C   UNL     1     -10.754  -5.624  -1.726  0.00  0.00    +0.008 A 
ENDBRANCH  27  29
ENDBRANCH  24  25
ENDBRANCH  23  24
ENDBRANCH   5  23
TORSDOF 7
