REMARK  Name = ZINC17206157
REMARK  4 active torsions:
REMARK  status: ('A' for Active; 'I' for Inactive)
REMARK    1  A    between atoms: C_4  and  C_7
REMARK    2  A    between atoms: C_7  and  C_8
REMARK    3  A    between atoms: C_8  and  N_9
REMARK    4  A    between atoms: C_12  and  C_18
REMARK                            x       y       z     vdW  Elec       q    Type
REMARK                         _______ _______ _______ _____ _____    ______ ____
ROOT
ATOM      1  N   UNL     1      -0.111   7.329  -1.403  0.00  0.00    -0.288 N 
ATOM      2  C   UNL     1      -1.290   7.982  -1.394  0.00  0.00    +0.260 A 
ATOM      3  O   UNL     1      -2.337   7.358  -1.392  0.00  0.00    -0.267 OA
ATOM      4  C   UNL     1      -1.304   9.388  -1.383  0.00  0.00    +0.073 A 
ATOM      5  C   UNL     1      -0.119  10.062  -1.391  0.00  0.00    +0.258 A 
ATOM      6  N   UNL     1       1.058   9.358  -1.405  0.00  0.00    -0.302 N 
ATOM      7  C   UNL     1       1.048   8.012  -1.411  0.00  0.00    +0.163 A 
ATOM      8  S   UNL     1       2.531   7.157  -1.428  0.00  0.00    -0.013 S 
ATOM      9  O   UNL     1      -0.104  11.412  -1.385  0.00  0.00    -0.267 OA
ATOM     10  H   UNL     1       2.019   9.893  -1.412  0.00  0.00    +0.171 HD
ENDROOT
BRANCH   4  11
ATOM     11  C   UNL     1      -2.610  10.139  -1.367  0.00  0.00    +0.018 C 
ATOM     12  C   UNL     1      -3.342   9.858  -0.077  0.00  0.00    +0.011 A 
ATOM     13  C   UNL     1      -4.671   9.596  -0.028  0.00  0.00    -0.022 A 
ATOM     14  C   UNL     1      -5.011   9.371   1.359  0.00  0.00    +0.003 A 
ATOM     15  C   UNL     1      -6.211   9.066   2.007  0.00  0.00    +0.010 A 
ATOM     16  C   UNL     1      -6.161   8.918   3.371  0.00  0.00    +0.001 A 
ATOM     17  C   UNL     1      -4.982   9.060   4.084  0.00  0.00    +0.002 A 
ATOM     18  C   UNL     1      -3.779   9.361   3.469  0.00  0.00    +0.026 A 
ATOM     19  C   UNL     1      -3.800   9.518   2.085  0.00  0.00    +0.047 A 
ATOM     20  N   UNL     1      -2.817   9.811   1.183  0.00  0.00    -0.359 N 
ATOM     21  H   UNL     1      -1.744   9.997   1.338  0.00  0.00    +0.166 HD
ATOM     22  C   UNL     1      -5.560   9.569  -1.247  0.00  0.00    +0.018 C 
ATOM     23  C   UNL     1      -4.808  10.249  -2.398  0.00  0.00    -0.076 C 
ATOM     24  N   UNL     1      -3.450   9.695  -2.491  0.00  0.00    +0.388 N 
ATOM     25  H   UNL     1      -3.001  10.028  -3.439  0.00  0.00    -0.084 HD
ATOM     26  H   UNL     1      -3.520   8.597  -2.485  0.00  0.00    -0.084 HD
ENDBRANCH   4  11
BRANCH   1  27
ATOM     27  C   UNL     1      -0.091   5.864  -1.410  0.00  0.00    +0.132 C 
BRANCH  27  28
ATOM     28  C   UNL     1      -0.070   5.347   0.030  0.00  0.00    +0.057 C 
BRANCH  28  32
ATOM     29  C   UNL     1      -0.013   1.076   0.008  0.00  0.00    +0.000 A 
ATOM     30  C   UNL     1      -1.219   1.751   0.017  0.00  0.00    +0.000 A 
ATOM     31  C   UNL     1      -1.238   3.133   0.030  0.00  0.00    +0.004 A 
ATOM     32  C   UNL     1      -0.050   3.840   0.022  0.00  0.00    -0.046 A 
ATOM     33  C   UNL     1       1.156   3.165   0.008  0.00  0.00    +0.004 A 
ATOM     34  C   UNL     1       1.175   1.783   0.000  0.00  0.00    +0.000 A 
ENDBRANCH  28  32
ENDBRANCH  27  28
ENDBRANCH   1  27
TORSDOF 4
