REMARK  Name = ZINC05225841
REMARK  8 active torsions:
REMARK  status: ('A' for Active; 'I' for Inactive)
REMARK    1  A    between atoms: C_1  and  C_2
REMARK    2  A    between atoms: C_5  and  C_9
REMARK    3  A    between atoms: C_6  and  O_8
REMARK    4  A    between atoms: C_9  and  O_11
REMARK    5  A    between atoms: O_11  and  C_12
REMARK    6  A    between atoms: C_12  and  C_13
REMARK    7  A    between atoms: N_15  and  C_16
REMARK    8  A    between atoms: C_17  and  C_25
REMARK                            x       y       z     vdW  Elec       q    Type
REMARK                         _______ _______ _______ _____ _____    ______ ____
ROOT
ATOM      1  C   UNL     1       1.141   2.072   0.002  0.00  0.00    +0.255 C 
ATOM      2  O   UNL     1       2.200   1.480  -0.011  0.00  0.00    -0.272 OA
ATOM      3  N   UNL     1      -0.017   1.382   0.010  0.00  0.00    -0.277 N 
ATOM      4  H   UNL     1      -0.863   1.856   0.016  0.00  0.00    +0.155 HD
ENDROOT
BRANCH   3   5
ATOM      5  C   UNL     1       0.002  -0.004   0.002  0.00  0.00    +0.084 A 
ATOM      6  C   UNL     1      -1.073  -0.881   0.013  0.00  0.00    +0.068 A 
ATOM      7  C   UNL     1      -0.780  -2.304  -0.003  0.00  0.00    -0.023 A 
ATOM      8  C   UNL     1       0.533  -2.620  -0.016  0.00  0.00    -0.004 A 
ATOM      9  S   UNL     1       1.374  -1.062  -0.016  0.00  0.00    -0.077 S 
ATOM     10  C   UNL     1       1.132  -3.993  -0.028  0.00  0.00    +0.043 C 
ATOM     11  C   UNL     1       0.038  -5.000   0.356  0.00  0.00    +0.005 C 
ATOM     12  C   UNL     1      -1.218  -4.703  -0.467  0.00  0.00    +0.005 C 
ATOM     13  C   UNL     1      -1.848  -3.390   0.002  0.00  0.00    +0.037 C 
BRANCH   6  14
ATOM     14  C   UNL     1      -2.455  -0.390   0.036  0.00  0.00    +0.244 C 
ATOM     15  O   UNL     1      -3.044  -0.181  -1.008  0.00  0.00    -0.270 OA
ATOM     16  N   UNL     1      -3.072  -0.170   1.214  0.00  0.00    -0.325 N 
ATOM     17  H   UNL     1      -2.603  -0.337   2.046  0.00  0.00    +0.145 HD
ATOM     18  H   UNL     1      -3.986   0.155   1.229  0.00  0.00    +0.145 HD
ENDBRANCH   6  14
ENDBRANCH   3   5
BRANCH   1  19
ATOM     19  C   UNL     1       1.121   3.579   0.011  0.00  0.00    +0.328 C 
BRANCH  19  20
ATOM     20  O   UNL     1       2.483   4.082   0.000  0.00  0.00    -0.452 OA
BRANCH  20  21
ATOM     21  C   UNL     1       2.641   5.420   0.006  0.00  0.00    +0.343 C 
ATOM     22  O   UNL     1       1.668   6.147   0.019  0.00  0.00    -0.245 OA
BRANCH  21  27
ATOM     23  C   UNL     1       7.931   7.685  -0.034  0.00  0.00    +0.044 C 
ATOM     24  C   UNL     1       6.544   7.096  -0.023  0.00  0.00    -0.047 A 
ATOM     25  C   UNL     1       6.381   5.720  -0.029  0.00  0.00    +0.004 A 
ATOM     26  C   UNL     1       5.118   5.169  -0.019  0.00  0.00    +0.019 A 
ATOM     27  C   UNL     1       3.996   6.002  -0.004  0.00  0.00    +0.100 A 
ATOM     28  C   UNL     1       4.165   7.393  -0.004  0.00  0.00    +0.131 A 
ATOM     29  C   UNL     1       5.444   7.929  -0.009  0.00  0.00    +0.049 A 
BRANCH  28  30
ATOM     30  O   UNL     1       3.083   8.211   0.005  0.00  0.00    -0.506 OA
ATOM     31  H   UNL     1       2.776   8.448   0.891  0.00  0.00    +0.292 HD
ENDBRANCH  28  30
ENDBRANCH  21  27
ENDBRANCH  20  21
ENDBRANCH  19  20
ENDBRANCH   1  19
TORSDOF 7
