REMARK  Name = ZINC00103456
REMARK  3 active torsions:
REMARK  status: ('A' for Active; 'I' for Inactive)
REMARK    1  A    between atoms: C_10  and  N_20
REMARK    2  A    between atoms: C_15  and  N_19
REMARK    3  A    between atoms: C_16  and  C_17
REMARK                            x       y       z     vdW  Elec       q    Type
REMARK                         _______ _______ _______ _____ _____    ______ ____
ROOT
ATOM      1  C   UNL     1      -0.013   1.076   0.008  0.00  0.00    +0.000 A 
ATOM      2  C   UNL     1       1.181   1.768   0.000  0.00  0.00    +0.002 A 
ATOM      3  C   UNL     1       1.227   3.153   0.007  0.00  0.00    +0.023 A 
ATOM      4  C   UNL     1       0.008   3.832   0.023  0.00  0.00    +0.038 A 
ATOM      5  C   UNL     1      -1.196   3.118   0.031  0.00  0.00    -0.002 A 
ATOM      6  C   UNL     1      -1.234   1.740   0.017  0.00  0.00    +0.007 A 
ATOM      7  C   UNL     1      -2.291   4.139   0.048  0.00  0.00    +0.141 C 
ATOM      8  C   UNL     1      -3.122   4.011   1.294  0.00  0.00    +0.021 A 
ATOM      9  C   UNL     1      -2.599   4.413   2.509  0.00  0.00    +0.031 A 
ATOM     10  C   UNL     1      -3.357   4.297   3.667  0.00  0.00    +0.025 A 
ATOM     11  C   UNL     1      -4.643   3.777   3.603  0.00  0.00    +0.026 A 
ATOM     12  C   UNL     1      -5.164   3.377   2.389  0.00  0.00    +0.048 A 
ATOM     13  C   UNL     1      -4.406   3.491   1.230  0.00  0.00    +0.135 A 
ATOM     14  O   UNL     1      -4.935   3.091   0.047  0.00  0.00    -0.441 OA
ATOM     15  C   UNL     1      -4.404   3.519  -1.110  0.00  0.00    +0.199 C 
ATOM     16  C   UNL     1      -3.150   4.028  -1.178  0.00  0.00    +0.110 C 
ATOM     17  C   UNL     1      -1.561   5.467   0.050  0.00  0.00    +0.238 C 
ATOM     18  O   UNL     1      -2.069   6.568   0.065  0.00  0.00    -0.274 OA
ATOM     19  N   UNL     1      -0.240   5.193   0.035  0.00  0.00    -0.284 N 
ATOM     20  H   UNL     1       0.454   5.870   0.031  0.00  0.00    +0.155 HD
ENDROOT
BRANCH  15  21
ATOM     21  N   UNL     1      -5.154   3.439  -2.257  0.00  0.00    -0.328 N 
ATOM     22  H   UNL     1      -6.053   3.077  -2.224  0.00  0.00    +0.145 HD
ATOM     23  H   UNL     1      -4.784   3.744  -3.100  0.00  0.00    +0.145 HD
ENDBRANCH  15  21
BRANCH  10  24
ATOM     24  N   UNL     1      -2.826   4.705   4.895  0.00  0.00    -0.358 N 
ATOM     25  H   UNL     1      -3.356   4.624   5.703  0.00  0.00    +0.142 HD
ATOM     26  H   UNL     1      -1.927   5.068   4.939  0.00  0.00    +0.142 HD
ENDBRANCH  10  24
BRANCH  16  27
ATOM     27  C   UNL     1      -2.636   4.467  -2.440  0.00  0.00    +0.102 C 
ATOM     28  N   UNL     1      -2.228   4.815  -3.441  0.00  0.00    -0.191 NA
ENDBRANCH  16  27
TORSDOF 3
