REMARK  Name = ZINC11335755
REMARK  5 active torsions:
REMARK  status: ('A' for Active; 'I' for Inactive)
REMARK    1  A    between atoms: C_1  and  N_2
REMARK    2  A    between atoms: N_2  and  C_3
REMARK    3  A    between atoms: C_6  and  C_11
REMARK    4  A    between atoms: C_11  and  C_21
REMARK    5  A    between atoms: C_12  and  C_13
REMARK                            x       y       z     vdW  Elec       q    Type
REMARK                         _______ _______ _______ _____ _____    ______ ____
ROOT
ATOM      1  C   UNL     1      -0.112  -2.777   0.423  0.00  0.00    +0.132 C 
ATOM      2  N   UNL     1       1.129  -2.024   0.623  0.00  0.00    -0.306 N 
ATOM      3  C   UNL     1       2.386  -2.736   0.868  0.00  0.00    +0.132 C 
ATOM      4  C   UNL     1       1.113  -0.644   0.582  0.00  0.00    +0.222 A 
ATOM      5  N   UNL     1      -0.028   0.001   0.360  0.00  0.00    -0.194 NA
ATOM      6  C   UNL     1      -0.042   1.331   0.320  0.00  0.00    +0.177 A 
ATOM      7  N   UNL     1       1.086   2.014   0.503  0.00  0.00    -0.194 NA
ATOM      8  C   UNL     1       2.225   1.367   0.725  0.00  0.00    +0.217 A 
ATOM      9  N   UNL     1       2.239   0.038   0.764  0.00  0.00    -0.181 NA
ATOM     10  N   UNL     1       3.395   2.075   0.914  0.00  0.00    -0.327 N 
ATOM     11  H   UNL     1       4.227   1.603   1.076  0.00  0.00    +0.145 HD
ATOM     12  H   UNL     1       3.386   3.044   0.885  0.00  0.00    +0.145 HD
ENDROOT
BRANCH   6  13
ATOM     13  C   UNL     1      -1.309   2.050   0.068  0.00  0.00    +0.097 C 
ATOM     14  C   UNL     1      -1.324   3.413   0.027  0.00  0.00    +0.033 C 
BRANCH  14  15
ATOM     15  C   UNL     1      -2.599   4.130  -0.074  0.00  0.00    +0.013 A 
ATOM     16  C   UNL     1      -3.752   3.605   0.524  0.00  0.00    +0.026 A 
ATOM     17  C   UNL     1      -4.946   4.288   0.428  0.00  0.00    +0.019 A 
ATOM     18  C   UNL     1      -5.011   5.486  -0.266  0.00  0.00    +0.018 A 
ATOM     19  C   UNL     1      -3.880   6.011  -0.864  0.00  0.00    +0.040 A 
ATOM     20  C   UNL     1      -2.673   5.343  -0.774  0.00  0.00    +0.131 A 
ATOM     21  F   UNL     1      -1.569   5.856  -1.360  0.00  0.00    -0.205 F 
ATOM     22 BR   UNL     1      -6.502   3.585   1.241  0.00  0.00    -0.050 Br
ENDBRANCH  14  15
BRANCH  13  23
ATOM     23  C   UNL     1      -2.522   1.315  -0.134  0.00  0.00    +0.103 C 
ATOM     24  N   UNL     1      -3.483   0.732  -0.295  0.00  0.00    -0.191 NA
ENDBRANCH  13  23
ENDBRANCH   6  13
TORSDOF 3
