REMARK  Name = ZINC14482489
REMARK  7 active torsions:
REMARK  status: ('A' for Active; 'I' for Inactive)
REMARK    1  A    between atoms: C_3  and  C_16
REMARK    2  A    between atoms: C_6  and  C_7
REMARK    3  A    between atoms: C_7  and  S_8
REMARK    4  A    between atoms: S_8  and  C_9
REMARK    5  A    between atoms: N_18  and  C_19
REMARK    6  A    between atoms: N_22  and  C_25
REMARK    7  A    between atoms: C_25  and  C_26
REMARK                            x       y       z     vdW  Elec       q    Type
REMARK                         _______ _______ _______ _____ _____    ______ ____
ROOT
ATOM      1  C   UNL     1       3.657   2.160  -0.022  0.00  0.00    +0.244 C 
ATOM      2  O   UNL     1       3.643   3.376  -0.015  0.00  0.00    -0.270 OA
ATOM      3  N   UNL     1       4.831   1.499  -0.037  0.00  0.00    -0.309 N 
ATOM      4  H   UNL     1       4.842   0.529  -0.042  0.00  0.00    +0.149 HD
ENDROOT
BRANCH   3   5
ATOM      5  C   UNL     1       6.092   2.246  -0.045  0.00  0.00    +0.070 C 
ATOM      6  C   UNL     1       6.460   2.614  -1.486  0.00  0.00    +0.004 C 
ATOM      7  C   UNL     1       7.815   3.323  -1.495  0.00  0.00    -0.076 C 
ATOM      8  N   UNL     1       8.841   2.433  -0.939  0.00  0.00    +0.385 N 
ATOM      9  C   UNL     1       8.533   2.133   0.465  0.00  0.00    -0.076 C 
ATOM     10  C   UNL     1       7.205   1.378   0.550  0.00  0.00    +0.004 C 
ATOM     11  H   UNL     1       8.863   1.574  -1.468  0.00  0.00    -0.081 HD
BRANCH   8  12
ATOM     12  C   UNL     1      10.153   3.088  -1.021  0.00  0.00    +0.018 C 
BRANCH  12  13
ATOM     13  C   UNL     1      11.223   2.130  -0.565  0.00  0.00    +0.194 C 
ATOM     14  O   UNL     1      10.922   1.011  -0.206  0.00  0.00    -0.278 OA
ATOM     15  N   UNL     1      12.514   2.516  -0.556  0.00  0.00    -0.331 N 
ATOM     16  H   UNL     1      12.755   3.411  -0.843  0.00  0.00    +0.145 HD
ATOM     17  H   UNL     1      13.203   1.899  -0.262  0.00  0.00    +0.145 HD
ENDBRANCH  12  13
ENDBRANCH   8  12
ENDBRANCH   3   5
BRANCH   1  20
ATOM     18  C   UNL     1      -0.017   1.379   0.010  0.00  0.00    +0.005 A 
ATOM     19  C   UNL     1       1.167   2.088   0.002  0.00  0.00    +0.013 A 
ATOM     20  C   UNL     1       2.385   1.407  -0.013  0.00  0.00    +0.037 A 
ATOM     21  C   UNL     1       2.397   0.011  -0.021  0.00  0.00    +0.013 A 
ATOM     22  C   UNL     1       1.206  -0.686  -0.013  0.00  0.00    +0.005 A 
ATOM     23  C   UNL     1       0.002  -0.004   0.002  0.00  0.00    -0.037 A 
BRANCH  23  24
ATOM     24  C   UNL     1      -1.295  -0.772   0.010  0.00  0.00    +0.109 C 
BRANCH  24  25
ATOM     25  S   UNL     1      -1.831  -1.071  -1.696  0.00  0.00    -0.121 S 
BRANCH  25  26
ATOM     26  C   UNL     1      -3.339  -1.966  -1.519  0.00  0.00    +0.008 A 
ATOM     27  C   UNL     1      -3.827  -2.262  -0.252  0.00  0.00    +0.016 A 
ATOM     28  C   UNL     1      -5.009  -2.963  -0.116  0.00  0.00    +0.021 A 
ATOM     29  C   UNL     1      -5.707  -3.371  -1.240  0.00  0.00    +0.041 A 
ATOM     30  C   UNL     1      -5.223  -3.077  -2.503  0.00  0.00    +0.021 A 
ATOM     31  C   UNL     1      -4.045  -2.371  -2.645  0.00  0.00    +0.016 A 
ATOM     32 CL   UNL     1      -7.192  -4.253  -1.065  0.00  0.00    -0.084 Cl
ENDBRANCH  25  26
ENDBRANCH  24  25
ENDBRANCH  23  24
ENDBRANCH   1  20
TORSDOF 7
