REMARK  Name = ZINC12500695
REMARK  9 active torsions:
REMARK  status: ('A' for Active; 'I' for Inactive)
REMARK    1  A    between atoms: C_4  and  C_7
REMARK    2  A    between atoms: C_10  and  C_13
REMARK    3  A    between atoms: N_15  and  C_16
REMARK    4  A    between atoms: C_16  and  N_18
REMARK    5  A    between atoms: N_18  and  N_19
REMARK    6  A    between atoms: C_20  and  C_22
REMARK    7  A    between atoms: C_22  and  C_23
REMARK    8  A    between atoms: C_23  and  C_24
REMARK    9  A    between atoms: N_26  and  C_27
REMARK                            x       y       z     vdW  Elec       q    Type
REMARK                         _______ _______ _______ _____ _____    ______ ____
ROOT
ATOM      1  C   UNL     1      -4.801  -7.009   0.750  0.00  0.00    +0.153 C 
ATOM      2  S   UNL     1      -4.768  -8.716   0.869  0.00  0.00    -0.017 S 
ENDROOT
BRANCH   1   5
ATOM      3  C   UNL     1      -7.132  -7.045   0.874  0.00  0.00    +0.250 C 
ATOM      4  O   UNL     1      -7.109  -8.257   0.958  0.00  0.00    -0.270 OA
ATOM      5  N   UNL     1      -5.980  -6.355   0.764  0.00  0.00    -0.263 N 
ATOM      6  H   UNL     1      -5.998  -5.388   0.697  0.00  0.00    +0.157 HD
BRANCH   3  10
ATOM      7  C   UNL     1     -10.847  -4.983   0.922  0.00  0.00    -0.018 A 
ATOM      8  C   UNL     1     -10.821  -6.375   1.018  0.00  0.00    +0.009 A 
ATOM      9  C   UNL     1      -9.618  -7.044   1.003  0.00  0.00    +0.013 A 
ATOM     10  C   UNL     1      -8.423  -6.329   0.890  0.00  0.00    +0.037 A 
ATOM     11  C   UNL     1      -8.450  -4.934   0.798  0.00  0.00    +0.013 A 
ATOM     12  C   UNL     1      -9.654  -4.268   0.809  0.00  0.00    +0.009 A 
BRANCH   7  16
ATOM     13  C   UNL     1     -14.564  -2.920   0.970  0.00  0.00    +0.000 A 
ATOM     14  C   UNL     1     -13.383  -2.209   0.858  0.00  0.00    +0.001 A 
ATOM     15  C   UNL     1     -12.173  -2.873   0.842  0.00  0.00    +0.008 A 
ATOM     16  C   UNL     1     -12.143  -4.263   0.939  0.00  0.00    -0.018 A 
ATOM     17  C   UNL     1     -13.337  -4.975   1.046  0.00  0.00    +0.008 A 
ATOM     18  C   UNL     1     -14.540  -4.300   1.066  0.00  0.00    +0.001 A 
ENDBRANCH   7  16
ENDBRANCH   3  10
ENDBRANCH   1   5
BRANCH   1  19
ATOM     19  N   UNL     1      -3.649  -6.319   0.640  0.00  0.00    -0.246 N 
ATOM     20  H   UNL     1      -2.801  -6.790   0.630  0.00  0.00    +0.172 HD
BRANCH  19  21
ATOM     21  N   UNL     1      -3.676  -4.921   0.543  0.00  0.00    -0.235 N 
ATOM     22  C   UNL     1      -2.523  -4.231   0.434  0.00  0.00    +0.230 C 
ATOM     23  O   UNL     1      -1.463  -4.820   0.420  0.00  0.00    -0.274 OA
ATOM     24  H   UNL     1      -4.524  -4.451   0.553  0.00  0.00    +0.173 HD
BRANCH  22  25
ATOM     25  C   UNL     1      -2.552  -2.728   0.329  0.00  0.00    +0.106 C 
BRANCH  25  26
ATOM     26  C   UNL     1      -1.121  -2.197   0.216  0.00  0.00    +0.105 C 
BRANCH  26  27
ATOM     27  C   UNL     1      -1.150  -0.694   0.111  0.00  0.00    +0.218 C 
ATOM     28  O   UNL     1      -2.211  -0.106   0.124  0.00  0.00    -0.275 OA
ATOM     29  N   UNL     1       0.002  -0.004   0.002  0.00  0.00    -0.285 N 
ATOM     30  H   UNL     1       0.844  -0.477  -0.086  0.00  0.00    +0.155 HD
BRANCH  29  31
ATOM     31  C   UNL     1      -0.016   1.395   0.015  0.00  0.00    +0.033 A 
ATOM     32  C   UNL     1       0.912   2.110  -0.729  0.00  0.00    +0.023 A 
ATOM     33  C   UNL     1       0.888   3.491  -0.718  0.00  0.00    +0.002 A 
ATOM     34  C   UNL     1      -0.052   4.162   0.043  0.00  0.00    +0.000 A 
ATOM     35  C   UNL     1      -0.975   3.452   0.789  0.00  0.00    +0.002 A 
ATOM     36  C   UNL     1      -0.960   2.071   0.778  0.00  0.00    +0.023 A 
ENDBRANCH  29  31
ENDBRANCH  26  27
ENDBRANCH  25  26
ENDBRANCH  22  25
ENDBRANCH  19  21
ENDBRANCH   1  19
TORSDOF 9
