REMARK  Name = ZINC20119222
REMARK  5 active torsions:
REMARK  status: ('A' for Active; 'I' for Inactive)
REMARK    1  A    between atoms: C_1  and  C_2
REMARK    2  A    between atoms: C_2  and  C_3
REMARK    3  A    between atoms: C_3  and  C_5
REMARK    4  A    between atoms: C_3  and  N_6
REMARK    5  A    between atoms: C_10  and  C_11
REMARK                            x       y       z     vdW  Elec       q    Type
REMARK                         _______ _______ _______ _____ _____    ______ ____
ROOT
ATOM      1  N   UNL     1      -0.362   1.613  -1.436  0.00  0.00    -0.226 N 
ATOM      2  C   UNL     1      -0.871   0.744  -2.291  0.00  0.00    +0.260 C 
ATOM      3  O   UNL     1      -0.538  -0.427  -2.268  0.00  0.00    -0.269 OA
ATOM      4  C   UNL     1      -1.827   1.217  -3.240  0.00  0.00    +0.080 C 
ATOM      5  C   UNL     1      -2.493   0.536  -4.211  0.00  0.00    +0.030 C 
ATOM      6  S   UNL     1      -1.905   2.950  -2.808  0.00  0.00    -0.026 S 
ATOM      7  C   UNL     1      -0.728   2.914  -1.465  0.00  0.00    +0.286 C 
ATOM      8  O   UNL     1      -0.351   3.828  -0.756  0.00  0.00    -0.262 OA
ENDROOT
BRANCH   5   9
ATOM      9  C   UNL     1      -2.386  -0.921  -4.287  0.00  0.00    +0.001 A 
ATOM     10  C   UNL     1      -2.362  -1.796  -3.237  0.00  0.00    +0.091 A 
ATOM     11  N   UNL     1      -2.255  -3.066  -3.703  0.00  0.00    -0.360 N 
ATOM     12  H   UNL     1      -2.220  -3.910  -2.997  0.00  0.00    +0.165 HD
ATOM     13  C   UNL     1      -2.204  -3.071  -5.082  0.00  0.00    +0.047 A 
ATOM     14  C   UNL     1      -2.290  -1.737  -5.513  0.00  0.00    +0.008 A 
ATOM     15  C   UNL     1      -2.256  -1.439  -6.872  0.00  0.00    +0.025 A 
ATOM     16  C   UNL     1      -2.151  -2.460  -7.793  0.00  0.00    +0.019 A 
ATOM     17  C   UNL     1      -2.072  -3.779  -7.369  0.00  0.00    +0.017 A 
ATOM     18  C   UNL     1      -2.098  -4.087  -6.026  0.00  0.00    +0.027 A 
ATOM     19 BR   UNL     1      -2.112  -2.061  -9.641  0.00  0.00    -0.050 Br
ENDBRANCH   5   9
BRANCH   1  20
ATOM     20  C   UNL     1       0.618   1.162  -0.445  0.00  0.00    +0.082 C 
ATOM     21  C   UNL     1       0.083   1.434   0.963  0.00  0.00    +0.028 C 
BRANCH  20  23
ATOM     22  C   UNL     1       2.531   1.549  -2.005  0.00  0.00    +0.006 C 
ATOM     23  C   UNL     1       1.932   1.919  -0.646  0.00  0.00    +0.019 C 
ENDBRANCH  20  23
ENDBRANCH   1  20
TORSDOF 3
