REMARK  Name = ZINC40400057
REMARK  7 active torsions:
REMARK  status: ('A' for Active; 'I' for Inactive)
REMARK    1  A    between atoms: C_1  and  O_2
REMARK    2  A    between atoms: O_2  and  C_3
REMARK    3  A    between atoms: C_8  and  N_9
REMARK    4  A    between atoms: C_22  and  C_24
REMARK    5  A    between atoms: N_26  and  C_27
REMARK    6  A    between atoms: C_32  and  S_33
REMARK    7  A    between atoms: S_33  and  C_34
REMARK                            x       y       z     vdW  Elec       q    Type
REMARK                         _______ _______ _______ _____ _____    ______ ____
ROOT
ATOM      1  N   UNL     1       1.218  -4.249  -3.561  0.00  0.00    -0.282 N 
ATOM      2  C   UNL     1       0.890  -5.232  -2.664  0.00  0.00    +0.202 A 
ATOM      3  N   UNL     1       1.823  -6.164  -2.327  0.00  0.00    -0.295 N 
ATOM      4  H   UNL     1       2.713  -6.120  -2.712  0.00  0.00    +0.172 HD
ATOM      5  C   UNL     1       1.512  -7.149  -1.457  0.00  0.00    +0.258 A 
ATOM      6  O   UNL     1       2.335  -7.999  -1.159  0.00  0.00    -0.267 OA
ATOM      7  C   UNL     1       0.227  -7.174  -0.905  0.00  0.00    +0.069 A 
ATOM      8  C   UNL     1      -0.679  -6.193  -1.264  0.00  0.00    +0.138 A 
ATOM      9  N   UNL     1      -0.319  -5.250  -2.143  0.00  0.00    -0.200 NA
ATOM     10  N   UNL     1      -1.943  -6.170  -0.699  0.00  0.00    -0.270 N 
ATOM     11  C   UNL     1      -2.231  -6.918   0.379  0.00  0.00    +0.219 C 
ATOM     12  O   UNL     1      -3.371  -6.963   0.789  0.00  0.00    -0.275 OA
ATOM     13  C   UNL     1      -1.155  -7.701   1.084  0.00  0.00    +0.114 C 
ATOM     14  C   UNL     1      -0.168  -8.261   0.058  0.00  0.00    +0.122 C 
ATOM     15  H   UNL     1       2.092  -4.248  -3.981  0.00  0.00    +0.155 HD
ATOM     16  H   UNL     1      -2.630  -5.606  -1.087  0.00  0.00    +0.156 HD
ENDROOT
BRANCH   1  22
ATOM     17  C   UNL     1       0.377  -2.567  -5.085  0.00  0.00    +0.141 A 
ATOM     18  C   UNL     1      -0.546  -1.580  -5.389  0.00  0.00    +0.047 A 
ATOM     19  C   UNL     1      -1.546  -1.267  -4.487  0.00  0.00    +0.004 A 
ATOM     20  C   UNL     1      -1.629  -1.937  -3.281  0.00  0.00    +0.002 A 
ATOM     21  C   UNL     1      -0.713  -2.923  -2.970  0.00  0.00    +0.027 A 
ATOM     22  C   UNL     1       0.291  -3.246  -3.872  0.00  0.00    +0.076 A 
BRANCH  17  24
ATOM     23  C   UNL     1       1.388  -2.138  -7.194  0.00  0.00    +0.277 C 
ATOM     24  O   UNL     1       1.361  -2.876  -5.971  0.00  0.00    -0.493 OA
ENDBRANCH  17  24
ENDBRANCH   1  22
BRANCH  14  25
ATOM     25  C   UNL     1       1.059  -8.771   0.769  0.00  0.00    +0.225 C 
ATOM     26  O   UNL     1       1.734  -8.014   1.434  0.00  0.00    -0.275 OA
ATOM     27  N   UNL     1       1.407 -10.069   0.665  0.00  0.00    -0.284 N 
ATOM     28  H   UNL     1       0.837 -10.687   0.180  0.00  0.00    +0.155 HD
BRANCH  27  29
ATOM     29  C   UNL     1       2.591 -10.527   1.258  0.00  0.00    +0.047 A 
ATOM     30  C   UNL     1       3.156  -9.827   2.313  0.00  0.00    +0.024 A 
ATOM     31  C   UNL     1       4.324 -10.281   2.896  0.00  0.00    +0.002 A 
ATOM     32  C   UNL     1       4.933 -11.433   2.432  0.00  0.00    +0.001 A 
ATOM     33  C   UNL     1       4.377 -12.137   1.381  0.00  0.00    +0.017 A 
ATOM     34  C   UNL     1       3.201 -11.692   0.792  0.00  0.00    +0.034 A 
BRANCH  34  35
ATOM     35  S   UNL     1       2.486 -12.592  -0.543  0.00  0.00    -0.088 S 
BRANCH  35  36
ATOM     36  C   UNL     1       3.500 -14.026  -0.683  0.00  0.00    +0.013 A 
ATOM     37  C   UNL     1       3.138 -15.200  -0.034  0.00  0.00    +0.015 A 
ATOM     38  C   UNL     1       3.935 -16.322  -0.145  0.00  0.00    +0.001 A 
ATOM     39  C   UNL     1       5.092 -16.278  -0.901  0.00  0.00    +0.000 A 
ATOM     40  C   UNL     1       5.455 -15.111  -1.549  0.00  0.00    +0.001 A 
ATOM     41  C   UNL     1       4.660 -13.987  -1.447  0.00  0.00    +0.015 A 
ENDBRANCH  35  36
ENDBRANCH  34  35
ENDBRANCH  27  29
ENDBRANCH  14  25
TORSDOF 6
