REMARK  Name = ZINC10243524
REMARK  7 active torsions:
REMARK  status: ('A' for Active; 'I' for Inactive)
REMARK    1  A    between atoms: C_3  and  C_11
REMARK    2  A    between atoms: C_5  and  C_7
REMARK    3  A    between atoms: C_11  and  S_12
REMARK    4  A    between atoms: S_12  and  C_13
REMARK    5  A    between atoms: C_18  and  N_22
REMARK    6  A    between atoms: C_19  and  N_21
REMARK    7  A    between atoms: C_23  and  C_25
REMARK                            x       y       z     vdW  Elec       q    Type
REMARK                         _______ _______ _______ _____ _____    ______ ____
ROOT
ATOM      1  C   UNL     1      -0.126   7.698  -1.391  0.00  0.00    +0.171 A 
ATOM      2  N   UNL     1      -0.134   8.559  -2.446  0.00  0.00    -0.300 N 
ATOM      3  H   UNL     1      -0.130   8.215  -3.353  0.00  0.00    +0.171 HD
ATOM      4  C   UNL     1      -0.152   9.892  -2.233  0.00  0.00    +0.275 A 
ATOM      5  O   UNL     1      -0.164  10.672  -3.173  0.00  0.00    -0.266 OA
ATOM      6  C   UNL     1      -0.151  10.366  -0.913  0.00  0.00    +0.139 A 
ATOM      7  C   UNL     1      -0.137   9.442   0.127  0.00  0.00    +0.146 A 
ATOM      8  N   UNL     1      -0.125   8.133  -0.149  0.00  0.00    -0.207 NA
ENDROOT
BRANCH   6   9
ATOM      9  N   UNL     1      -0.164  11.748  -0.645  0.00  0.00    -0.272 N 
ATOM     10  C   UNL     1       0.832  12.532  -1.103  0.00  0.00    +0.284 C 
ATOM     11  O   UNL     1       1.697  12.062  -1.820  0.00  0.00    -0.266 OA
ATOM     12  H   UNL     1      -0.889  12.136  -0.132  0.00  0.00    +0.155 HD
BRANCH  10  13
ATOM     13  C   UNL     1       0.875  13.951  -0.739  0.00  0.00    +0.191 A 
ATOM     14  C   UNL     1       1.825  14.852  -1.128  0.00  0.00    +0.056 A 
ATOM     15  C   UNL     1       1.473  16.083  -0.556  0.00  0.00    +0.058 A 
ATOM     16  C   UNL     1       0.341  15.882   0.157  0.00  0.00    +0.171 A 
ATOM     17  O   UNL     1      -0.016  14.596   0.043  0.00  0.00    -0.444 OA
ATOM     18 BR   UNL     1      -0.585  17.199   1.149  0.00  0.00    -0.008 Br
ENDBRANCH  10  13
ENDBRANCH   6   9
BRANCH   7  19
ATOM     19  N   UNL     1      -0.135   9.875   1.441  0.00  0.00    -0.341 N 
ATOM     20  H   UNL     1      -0.125   9.229   2.165  0.00  0.00    +0.144 HD
ATOM     21  H   UNL     1      -0.144  10.825   1.639  0.00  0.00    +0.144 HD
ENDBRANCH   7  19
BRANCH   1  22
ATOM     22  S   UNL     1      -0.109   5.962  -1.696  0.00  0.00    -0.083 S 
BRANCH  22  23
ATOM     23  C   UNL     1      -0.095   5.344   0.005  0.00  0.00    +0.112 C 
BRANCH  23  26
ATOM     24  C   UNL     1       1.138   1.776  -0.032  0.00  0.00    +0.001 A 
ATOM     25  C   UNL     1       1.124   3.159  -0.020  0.00  0.00    +0.004 A 
ATOM     26  C   UNL     1      -0.080   3.837  -0.009  0.00  0.00    -0.037 A 
ATOM     27  C   UNL     1      -1.270   3.134  -0.010  0.00  0.00    +0.016 A 
ATOM     28  C   UNL     1      -1.256   1.752  -0.028  0.00  0.00    +0.055 A 
ATOM     29  C   UNL     1      -0.051   1.073  -0.034  0.00  0.00    +0.012 A 
BRANCH  28  30
ATOM     30  C   UNL     1      -2.553   0.985  -0.035  0.00  0.00    +0.417 C 
ATOM     31  F   UNL     1      -2.284  -0.388  -0.048  0.00  0.00    -0.166 F 
ATOM     32  F   UNL     1      -3.291   1.305   1.109  0.00  0.00    -0.166 F 
ATOM     33  F   UNL     1      -3.290   1.326  -1.175  0.00  0.00    -0.166 F 
ENDBRANCH  28  30
ENDBRANCH  23  26
ENDBRANCH  22  23
ENDBRANCH   1  22
TORSDOF 7
