REMARK  Name = ZINC42195192
REMARK  6 active torsions:
REMARK  status: ('A' for Active; 'I' for Inactive)
REMARK    1  A    between atoms: C_1  and  C_2
REMARK    2  A    between atoms: C_2  and  C_4
REMARK    3  A    between atoms: C_2  and  C_17
REMARK    4  A    between atoms: C_4  and  S_5
REMARK    5  A    between atoms: S_5  and  C_7
REMARK    6  A    between atoms: C_12  and  N_16
REMARK                            x       y       z     vdW  Elec       q    Type
REMARK                         _______ _______ _______ _____ _____    ______ ____
ROOT
ATOM      1  C   UNL     1      -3.858  -0.746   1.433  0.00  0.00    +0.166 A 
ATOM      2  N   UNL     1      -4.290  -1.923   1.795  0.00  0.00    -0.230 NA
ATOM      3  C   UNL     1      -5.572  -2.314   1.627  0.00  0.00    +0.080 A 
ATOM      4  C   UNL     1      -6.161  -3.553   1.974  0.00  0.00    +0.031 A 
ATOM      5  C   UNL     1      -7.477  -3.793   1.737  0.00  0.00    +0.025 A 
ATOM      6  C   UNL     1      -8.299  -2.834   1.145  0.00  0.00    +0.026 A 
ATOM      7  C   UNL     1      -7.758  -1.605   0.791  0.00  0.00    +0.040 A 
ATOM      8  C   UNL     1      -6.428  -1.361   1.030  0.00  0.00    +0.042 A 
ATOM      9  S   UNL     1      -5.333   0.013   0.766  0.00  0.00    -0.059 S 
ENDROOT
BRANCH   6  10
ATOM     10  N   UNL     1      -9.650  -3.107   0.912  0.00  0.00    -0.358 N 
ATOM     11  H   UNL     1     -10.021  -3.967   1.161  0.00  0.00    +0.142 HD
ATOM     12  H   UNL     1     -10.216  -2.435   0.500  0.00  0.00    +0.142 HD
ENDBRANCH   6  10
BRANCH   1  13
ATOM     13  S   UNL     1      -2.236  -0.073   1.573  0.00  0.00    +0.080 S 
ATOM     14  O   UNL     1      -1.651  -0.806   2.641  0.00  0.00    -0.250 OA
BRANCH  13  15
ATOM     15  C   UNL     1      -1.433  -0.534   0.013  0.00  0.00    +0.123 C 
BRANCH  15  17
ATOM     16  C   UNL     1      -0.019   1.526   0.010  0.00  0.00    +0.018 C 
ATOM     17  C   UNL     1       0.002  -0.004   0.002  0.00  0.00    +0.084 C 
BRANCH  17  18
ATOM     18  C   UNL     1       0.707  -0.490  -1.238  0.00  0.00    +0.214 C 
ATOM     19  O   UNL     1       0.120  -1.191  -2.034  0.00  0.00    -0.276 OA
ATOM     20  N   UNL     1       1.991  -0.146  -1.462  0.00  0.00    -0.329 N 
ATOM     21  H   UNL     1       2.461   0.415  -0.825  0.00  0.00    +0.145 HD
ATOM     22  H   UNL     1       2.445  -0.459  -2.260  0.00  0.00    +0.145 HD
ENDBRANCH  17  18
ENDBRANCH  15  17
ENDBRANCH  13  15
ENDBRANCH   1  13
TORSDOF 5
