REMARK  Name = ZINC58998131
REMARK  9 active torsions:
REMARK  status: ('A' for Active; 'I' for Inactive)
REMARK    1  A    between atoms: C_2  and  C_3
REMARK    2  A    between atoms: C_3  and  C_4
REMARK    3  A    between atoms: C_8  and  C_11
REMARK    4  A    between atoms: C_9  and  O_10
REMARK    5  A    between atoms: N_12  and  N_13
REMARK    6  A    between atoms: C_16  and  S_19
REMARK    7  A    between atoms: S_19  and  C_20
REMARK    8  A    between atoms: C_20  and  C_21
REMARK    9  A    between atoms: N_23  and  C_24
REMARK                            x       y       z     vdW  Elec       q    Type
REMARK                         _______ _______ _______ _____ _____    ______ ____
ROOT
ATOM      1  N   UNL     1       0.975  -6.836  -0.798  0.00  0.00    -0.205 N 
ATOM      2  C   UNL     1       1.592  -7.217   0.379  0.00  0.00    +0.232 A 
ATOM      3  N   UNL     1       1.691  -6.491   1.472  0.00  0.00    -0.186 NA
ATOM      4  C   UNL     1       2.352  -7.177   2.411  0.00  0.00    +0.211 A 
ATOM      5  N   UNL     1       2.682  -8.351   1.927  0.00  0.00    -0.144 NA
ATOM      6  N   UNL     1       2.195  -8.403   0.611  0.00  0.00    -0.245 N 
ATOM      7  H   UNL     1       0.949  -7.446  -1.552  0.00  0.00    +0.177 HD
ATOM      8  H   UNL     1       2.277  -9.144  -0.010  0.00  0.00    +0.192 HD
ENDROOT
BRANCH   1  10
ATOM      9  C   UNL     1      -0.194  -5.210  -2.006  0.00  0.00    +0.142 C 
ATOM     10  N   UNL     1       0.386  -5.569  -0.901  0.00  0.00    -0.187 NA
BRANCH   9  15
ATOM     11  C   UNL     1      -1.363  -1.743  -1.139  0.00  0.00    -0.002 A 
ATOM     12  C   UNL     1      -1.979  -1.369  -2.320  0.00  0.00    +0.007 A 
ATOM     13  C   UNL     1      -2.016  -2.239  -3.396  0.00  0.00    +0.001 A 
ATOM     14  C   UNL     1      -1.438  -3.488  -3.301  0.00  0.00    +0.013 A 
ATOM     15  C   UNL     1      -0.813  -3.877  -2.114  0.00  0.00    +0.036 A 
ATOM     16  C   UNL     1      -0.774  -2.991  -1.029  0.00  0.00    +0.129 A 
BRANCH  16  17
ATOM     17  O   UNL     1      -0.164  -3.357   0.128  0.00  0.00    -0.506 OA
ATOM     18  H   UNL     1      -0.750  -3.797   0.760  0.00  0.00    +0.292 HD
ENDBRANCH  16  17
BRANCH  11  19
ATOM     19  C   UNL     1      -1.329  -0.789   0.026  0.00  0.00    +0.065 C 
BRANCH  19  21
ATOM     20  C   UNL     1      -0.050   1.290   0.011  0.00  0.00    +0.004 C 
ATOM     21  C   UNL     1      -0.034  -0.019   0.007  0.00  0.00    -0.030 C 
ENDBRANCH  19  21
ENDBRANCH  11  19
ENDBRANCH   9  15
ENDBRANCH   1  10
BRANCH   4  22
ATOM     22  S   UNL     1       2.719  -6.599   4.034  0.00  0.00    -0.075 S 
BRANCH  22  23
ATOM     23  C   UNL     1       3.617  -7.977   4.798  0.00  0.00    +0.173 C 
BRANCH  23  24
ATOM     24  C   UNL     1       3.996  -7.609   6.210  0.00  0.00    +0.228 C 
ATOM     25  O   UNL     1       3.690  -6.524   6.656  0.00  0.00    -0.275 OA
ATOM     26  N   UNL     1       4.674  -8.486   6.976  0.00  0.00    -0.284 N 
ATOM     27  H   UNL     1       4.861  -9.378   6.643  0.00  0.00    +0.155 HD
BRANCH  26  28
ATOM     28  C   UNL     1       5.107  -8.112   8.249  0.00  0.00    +0.041 A 
ATOM     29  C   UNL     1       4.346  -7.261   9.020  0.00  0.00    +0.024 A 
ATOM     30  C   UNL     1       4.768  -6.881  10.291  0.00  0.00    +0.002 A 
ATOM     31  C   UNL     1       5.942  -7.338  10.807  0.00  0.00    +0.008 A 
ATOM     32  C   UNL     1       6.748  -8.208  10.053  0.00  0.00    -0.016 A 
ATOM     33  C   UNL     1       6.326  -8.606   8.760  0.00  0.00    +0.003 A 
ATOM     34  C   UNL     1       7.130  -9.478   8.010  0.00  0.00    +0.010 A 
ATOM     35  C   UNL     1       8.301  -9.935   8.535  0.00  0.00    +0.001 A 
ATOM     36  C   UNL     1       8.714  -9.549   9.809  0.00  0.00    +0.001 A 
ATOM     37  C   UNL     1       7.965  -8.696  10.560  0.00  0.00    +0.008 A 
ENDBRANCH  26  28
ENDBRANCH  23  24
ENDBRANCH  22  23
ENDBRANCH   4  22
TORSDOF 9
