REMARK  Name = ZINC42667408
REMARK  8 active torsions:
REMARK  status: ('A' for Active; 'I' for Inactive)
REMARK    1  A    between atoms: C_1  and  C_2
REMARK    2  A    between atoms: C_2  and  C_4
REMARK    3  A    between atoms: C_2  and  N_16
REMARK    4  A    between atoms: N_6  and  C_7
REMARK    5  A    between atoms: C_10  and  C_14
REMARK    6  A    between atoms: N_16  and  C_17
REMARK    7  A    between atoms: C_20  and  N_23
REMARK    8  A    between atoms: N_26  and  C_27
REMARK                            x       y       z     vdW  Elec       q    Type
REMARK                         _______ _______ _______ _____ _____    ______ ____
ROOT
ATOM      1  N   UNL     1      -0.221  -0.669   1.452  0.00  0.00    -0.333 N 
ATOM      2  H   UNL     1       0.694  -0.854   1.187  0.00  0.00    +0.147 HD
ENDROOT
BRANCH   1   3
ATOM      3  C   UNL     1      -0.602  -0.805   2.792  0.00  0.00    +0.028 A 
ATOM      4  C   UNL     1      -1.913  -0.546   3.171  0.00  0.00    +0.025 A 
ATOM      5  C   UNL     1      -2.288  -0.679   4.493  0.00  0.00    +0.025 A 
ATOM      6  C   UNL     1      -1.355  -1.072   5.443  0.00  0.00    +0.035 A 
ATOM      7  C   UNL     1      -0.044  -1.331   5.065  0.00  0.00    +0.025 A 
ATOM      8  C   UNL     1       0.330  -1.203   3.742  0.00  0.00    +0.025 A 
BRANCH   6   9
ATOM      9  N   UNL     1      -1.736  -1.207   6.786  0.00  0.00    -0.269 N 
ATOM     10  C   UNL     1      -2.969  -1.656   7.094  0.00  0.00    +0.304 C 
ATOM     11  O   UNL     1      -3.779  -1.864   6.211  0.00  0.00    -0.253 OA
ATOM     12  N   UNL     1      -3.304  -1.874   8.381  0.00  0.00    -0.296 N 
ATOM     13  H   UNL     1      -1.113  -0.978   7.492  0.00  0.00    +0.156 HD
ATOM     14  H   UNL     1      -2.658  -1.708   9.085  0.00  0.00    +0.151 HD
BRANCH  12  15
ATOM     15  C   UNL     1      -4.644  -2.362   8.717  0.00  0.00    +0.075 C 
ATOM     16  C   UNL     1      -5.357  -1.709   9.902  0.00  0.00    +0.024 C 
ATOM     17  C   UNL     1      -4.808  -3.132  10.029  0.00  0.00    +0.024 C 
ENDBRANCH  12  15
ENDBRANCH   6   9
ENDBRANCH   1   3
BRANCH   1  19
ATOM     18  C   UNL     1      -1.288   1.278   0.428  0.00  0.00    +0.038 C 
ATOM     19  C   UNL     1      -1.204  -0.249   0.450  0.00  0.00    +0.154 C 
BRANCH  19  20
ATOM     20  C   UNL     1      -0.782  -0.749  -0.907  0.00  0.00    +0.237 C 
ATOM     21  O   UNL     1       0.239  -1.393  -1.026  0.00  0.00    -0.273 OA
ATOM     22  N   UNL     1      -1.540  -0.481  -1.989  0.00  0.00    -0.284 N 
ATOM     23  H   UNL     1      -2.389  -0.024  -1.885  0.00  0.00    +0.155 HD
BRANCH  22  24
ATOM     24  C   UNL     1      -1.101  -0.859  -3.259  0.00  0.00    +0.035 A 
ATOM     25  C   UNL     1      -0.389  -2.044  -3.423  0.00  0.00    +0.024 A 
ATOM     26  C   UNL     1       0.045  -2.421  -4.673  0.00  0.00    +0.022 A 
ATOM     27  C   UNL     1      -0.230  -1.613  -5.780  0.00  0.00    +0.070 A 
ATOM     28  C   UNL     1      -0.947  -0.424  -5.613  0.00  0.00    +0.060 A 
ATOM     29  C   UNL     1      -1.383  -0.055  -4.358  0.00  0.00    +0.044 A 
ATOM     30 CL   UNL     1      -1.292   0.584  -6.984  0.00  0.00    -0.082 Cl
BRANCH  27  31
ATOM     31  C   UNL     1       0.221  -2.002  -7.083  0.00  0.00    +0.101 C 
ATOM     32  N   UNL     1       0.578  -2.311  -8.116  0.00  0.00    -0.191 NA
ENDBRANCH  27  31
ENDBRANCH  22  24
ENDBRANCH  19  20
ENDBRANCH   1  19
TORSDOF 7
