REMARK  Name = ZINC58158747
REMARK  13 active torsions:
REMARK  status: ('A' for Active; 'I' for Inactive)
REMARK    1  A    between atoms: C_1  and  C_2
REMARK    2  A    between atoms: C_2  and  C_3
REMARK    3  A    between atoms: C_2  and  C_4
REMARK    4  A    between atoms: C_4  and  N_5
REMARK    5  A    between atoms: C_6  and  N_35
REMARK    6  A    between atoms: C_7  and  N_14
REMARK    7  A    between atoms: N_14  and  C_15
REMARK    8  A    between atoms: C_15  and  C_16
REMARK    9  A    between atoms: C_16  and  C_17
REMARK   10  A    between atoms: C_16  and  C_18
REMARK   11  A    between atoms: C_19  and  C_21
REMARK   12  A    between atoms: C_21  and  N_22
REMARK   13  A    between atoms: N_25  and  C_28
REMARK                            x       y       z     vdW  Elec       q    Type
REMARK                         _______ _______ _______ _____ _____    ______ ____
ROOT
ATOM      1  N   UNL     1       4.864   3.135  -1.969  0.00  0.00    -0.263 N 
ATOM      2  C   UNL     1       3.735   3.867  -1.868  0.00  0.00    +0.234 C 
ATOM      3  O   UNL     1       2.654   3.315  -1.848  0.00  0.00    -0.274 OA
ENDROOT
BRANCH   1   6
ATOM      4  N   UNL     1       5.167  -0.382  -2.990  0.00  0.00    -0.280 N 
ATOM      5  C   UNL     1       5.247   0.991  -3.033  0.00  0.00    +0.127 A 
ATOM      6  C   UNL     1       4.795   1.726  -1.956  0.00  0.00    +0.140 A 
ATOM      7  C   UNL     1       4.264   1.046  -0.844  0.00  0.00    +0.277 A 
ATOM      8  O   UNL     1       3.857   1.670   0.121  0.00  0.00    -0.266 OA
ATOM      9  N   UNL     1       4.208  -0.301  -0.852  0.00  0.00    -0.273 N 
ATOM     10  H   UNL     1       3.842  -0.770  -0.087  0.00  0.00    +0.173 HD
ATOM     11  C   UNL     1       4.649  -1.000  -1.913  0.00  0.00    +0.331 A 
ATOM     12  O   UNL     1       4.582  -2.214  -1.897  0.00  0.00    -0.246 OA
BRANCH   5  13
ATOM     13  N   UNL     1       5.771   1.623  -4.135  0.00  0.00    -0.343 N 
ATOM     14  H   UNL     1       6.186   1.102  -4.840  0.00  0.00    +0.144 HD
ATOM     15  H   UNL     1       5.727   2.589  -4.206  0.00  0.00    +0.144 HD
ENDBRANCH   5  13
BRANCH   4  16
ATOM     16  C   UNL     1       5.643  -1.175  -4.126  0.00  0.00    +0.131 C 
BRANCH  16  18
ATOM     17  C   UNL     1       4.079  -0.039  -5.709  0.00  0.00    +0.009 C 
ATOM     18  C   UNL     1       4.496  -1.387  -5.116  0.00  0.00    +0.003 C 
ATOM     19  C   UNL     1       4.957  -2.317  -6.240  0.00  0.00    +0.009 C 
ENDBRANCH  16  18
ENDBRANCH   4  16
ENDBRANCH   1   6
BRANCH   1  20
ATOM     20  C   UNL     1       6.162   3.804  -2.092  0.00  0.00    +0.117 C 
BRANCH  20  21
ATOM     21  C   UNL     1       6.679   4.173  -0.701  0.00  0.00    +0.001 C 
ATOM     22  C   UNL     1       6.987   2.897   0.085  0.00  0.00    +0.009 C 
ATOM     23  C   UNL     1       7.953   5.009  -0.836  0.00  0.00    +0.009 C 
ENDBRANCH  20  21
ENDBRANCH   1  20
BRANCH   2  24
ATOM     24  C   UNL     1       3.816   5.369  -1.781  0.00  0.00    +0.181 C 
BRANCH  24  25
ATOM     25  N   UNL     1       2.462   5.936  -1.829  0.00  0.00    -0.291 NA
ATOM     26  C   UNL     1       1.833   5.688  -3.134  0.00  0.00    +0.104 C 
ATOM     27  C   UNL     1       0.367   6.131  -3.083  0.00  0.00    +0.120 C 
ATOM     28  N   UNL     1       0.316   7.527  -2.624  0.00  0.00    -0.325 N 
ATOM     29  C   UNL     1       1.040   7.882  -1.393  0.00  0.00    +0.120 C 
ATOM     30  C   UNL     1       2.479   7.370  -1.511  0.00  0.00    +0.104 C 
BRANCH  28  31
ATOM     31  C   UNL     1      -0.401   8.492  -3.338  0.00  0.00    +0.065 A 
ATOM     32  C   UNL     1      -1.737   8.727  -3.041  0.00  0.00    +0.026 A 
ATOM     33  C   UNL     1      -2.443   9.682  -3.748  0.00  0.00    +0.002 A 
ATOM     34  C   UNL     1      -1.821  10.402  -4.751  0.00  0.00    +0.003 A 
ATOM     35  C   UNL     1      -0.491  10.171  -5.051  0.00  0.00    +0.040 A 
ATOM     36  C   UNL     1       0.223   9.222  -4.344  0.00  0.00    +0.144 A 
ATOM     37  F   UNL     1       1.524   9.001  -4.633  0.00  0.00    -0.204 F 
ENDBRANCH  28  31
ENDBRANCH  24  25
ENDBRANCH   2  24
TORSDOF 9
