REMARK  Name = ZINC13637990
REMARK  8 active torsions:
REMARK  status: ('A' for Active; 'I' for Inactive)
REMARK    1  A    between atoms: C_1  and  C_2
REMARK    2  A    between atoms: C_2  and  C_3
REMARK    3  A    between atoms: C_3  and  C_5
REMARK    4  A    between atoms: C_3  and  N_6
REMARK    5  A    between atoms: N_6  and  S_7
REMARK    6  A    between atoms: S_7  and  C_10
REMARK    7  A    between atoms: C_23  and  C_26
REMARK    8  A    between atoms: C_29  and  O_32
REMARK                            x       y       z     vdW  Elec       q    Type
REMARK                         _______ _______ _______ _____ _____    ______ ____
ROOT
ATOM      1  C   UNL     1       3.603   1.502  -0.935  0.00  0.00    +0.106 A 
ATOM      2  C   UNL     1       4.020   2.512  -0.087  0.00  0.00    +0.030 A 
ATOM      3  C   UNL     1       3.125   3.071   0.803  0.00  0.00    +0.025 A 
ATOM      4  C   UNL     1       1.812   2.618   0.845  0.00  0.00    +0.031 A 
ATOM      5  C   UNL     1       1.390   1.606  -0.003  0.00  0.00    -0.018 A 
ATOM      6  C   UNL     1       2.299   1.052  -0.894  0.00  0.00    +0.034 A 
ATOM      7  C   UNL     1      -0.013   1.086   0.008  0.00  0.00    +0.049 C 
ATOM      8  C   UNL     1      -0.796   1.587  -1.182  0.00  0.00    -0.023 C 
ATOM      9  C   UNL     1      -2.026   1.832  -0.864  0.00  0.00    -0.030 C 
ATOM     10  C   UNL     1      -2.259   1.522   0.602  0.00  0.00    +0.033 C 
ATOM     11  C   UNL     1      -0.830   1.584   1.216  0.00  0.00    +0.029 C 
ATOM     12  C   UNL     1      -0.521   3.043   1.505  0.00  0.00    +0.105 C 
ATOM     13  N   UNL     1       0.917   3.195   1.752  0.00  0.00    -0.336 N 
ATOM     14  H   UNL     1       1.239   3.683   2.526  0.00  0.00    +0.147 HD
ENDROOT
BRANCH  12  15
ATOM     15  C   UNL     1      -0.919   3.876   0.314  0.00  0.00    -0.027 A 
ATOM     16  C   UNL     1      -0.087   3.946  -0.788  0.00  0.00    +0.009 A 
ATOM     17  C   UNL     1      -0.452   4.705  -1.883  0.00  0.00    +0.046 A 
ATOM     18  C   UNL     1      -1.649   5.405  -1.872  0.00  0.00    +0.117 A 
ATOM     19  C   UNL     1      -2.480   5.337  -0.763  0.00  0.00    +0.046 A 
ATOM     20  C   UNL     1      -2.113   4.573   0.328  0.00  0.00    +0.009 A 
BRANCH  18  21
ATOM     21  O   UNL     1      -2.009   6.156  -2.946  0.00  0.00    -0.507 OA
ATOM     22  H   UNL     1      -1.701   7.072  -2.907  0.00  0.00    +0.292 HD
ENDBRANCH  18  21
ENDBRANCH  12  15
BRANCH   1  23
ATOM     23  S   UNL     1       4.742   0.787  -2.074  0.00  0.00    +0.059 S 
ATOM     24  O   UNL     1       6.040   1.005  -1.540  0.00  0.00    -0.153 OA
ATOM     25  O   UNL     1       4.251  -0.512  -2.377  0.00  0.00    -0.153 OA
BRANCH  23  26
ATOM     26  N   UNL     1       4.652   1.666  -3.474  0.00  0.00    -0.187 NA
ATOM     27  H   UNL     1       4.324   1.251  -4.287  0.00  0.00    +0.148 HD
BRANCH  26  28
ATOM     28  C   UNL     1       5.066   3.071  -3.485  0.00  0.00    +0.073 C 
ATOM     29  C   UNL     1       3.843   3.966  -3.275  0.00  0.00    +0.025 C 
BRANCH  28  31
ATOM     30  C   UNL     1       7.007   2.597  -4.986  0.00  0.00    +0.005 C 
ATOM     31  C   UNL     1       5.714   3.402  -4.831  0.00  0.00    +0.017 C 
ENDBRANCH  28  31
ENDBRANCH  26  28
ENDBRANCH  23  26
ENDBRANCH   1  23
TORSDOF 6
