REMARK  Name = ZINC00244896
REMARK  4 active torsions:
REMARK  status: ('A' for Active; 'I' for Inactive)
REMARK    1  A    between atoms: C_3  and  C_6
REMARK    2  A    between atoms: N_7  and  N_8
REMARK    3  A    between atoms: C_9  and  C_11
REMARK    4  A    between atoms: C_16  and  O_17
REMARK                            x       y       z     vdW  Elec       q    Type
REMARK                         _______ _______ _______ _____ _____    ______ ____
ROOT
ATOM      1  N   UNL     1      -0.042  -0.639  -3.658  0.00  0.00    -0.203 N 
ATOM      2  C   UNL     1      -0.034   0.035  -2.491  0.00  0.00    +0.267 C 
ATOM      3  O   UNL     1      -0.051   1.252  -2.491  0.00  0.00    -0.268 OA
ATOM      4  H   UNL     1      -0.028  -1.609  -3.658  0.00  0.00    +0.178 HD
ENDROOT
BRANCH   2   5
ATOM      5  C   UNL     1      -0.006  -0.701  -1.214  0.00  0.00    +0.081 A 
ATOM      6  C   UNL     1       0.019  -2.098  -1.209  0.00  0.00    +0.032 A 
ATOM      7  C   UNL     1       0.039  -2.781  -0.011  0.00  0.00    +0.019 A 
ATOM      8  C   UNL     1       0.042  -2.087   1.189  0.00  0.00    +0.019 A 
ATOM      9  C   UNL     1       0.023  -0.707   1.198  0.00  0.00    +0.047 A 
ATOM     10  C   UNL     1       0.002  -0.004   0.002  0.00  0.00    +0.129 A 
ATOM     11 BR   UNL     1       0.065  -4.672  -0.006  0.00  0.00    -0.050 Br
BRANCH  10  12
ATOM     12  O   UNL     1      -0.016   1.353   0.009  0.00  0.00    -0.506 OA
ATOM     13  H   UNL     1       0.862   1.758   0.003  0.00  0.00    +0.292 HD
ENDBRANCH  10  12
ENDBRANCH   2   5
BRANCH   1  15
ATOM     14  C   UNL     1      -0.076  -0.590  -5.998  0.00  0.00    +0.176 C 
ATOM     15  N   UNL     1      -0.068   0.061  -4.871  0.00  0.00    -0.184 NA
BRANCH  14  18
ATOM     16  C   UNL     1      -0.142   0.652  -9.432  0.00  0.00    +0.042 A 
ATOM     17  C   UNL     1      -0.114  -0.414  -8.514  0.00  0.00    +0.051 A 
ATOM     18  C   UNL     1      -0.104   0.142  -7.267  0.00  0.00    +0.147 A 
ATOM     19  O   UNL     1      -0.130   1.483  -7.408  0.00  0.00    -0.462 OA
ATOM     20  C   UNL     1      -0.147   1.794  -8.714  0.00  0.00    +0.196 A 
ENDBRANCH  14  18
ENDBRANCH   1  15
TORSDOF 4
