REMARK  Name = ZINC67614462
REMARK  6 active torsions:
REMARK  status: ('A' for Active; 'I' for Inactive)
REMARK    1  A    between atoms: C_3  and  O_27
REMARK    2  A    between atoms: C_6  and  C_7
REMARK    3  A    between atoms: C_7  and  N_8
REMARK    4  A    between atoms: C_14  and  C_17
REMARK    5  A    between atoms: C_17  and  C_19
REMARK    6  A    between atoms: C_17  and  O_26
REMARK                            x       y       z     vdW  Elec       q    Type
REMARK                         _______ _______ _______ _____ _____    ______ ____
ROOT
ATOM      1  N   UNL     1      -1.727  -1.015  -1.367  0.00  0.00    -0.295 N 
ATOM      2  C   UNL     1      -2.868  -1.692  -1.606  0.00  0.00    +0.302 C 
ATOM      3  O   UNL     1      -3.490  -2.180  -0.682  0.00  0.00    -0.253 OA
ATOM      4  N   UNL     1      -3.320  -1.827  -2.869  0.00  0.00    -0.286 N 
ATOM      5  C   UNL     1      -2.522  -1.346  -4.005  0.00  0.00    +0.109 C 
ATOM      6  C   UNL     1      -3.388  -0.411  -4.855  0.00  0.00    +0.025 C 
ATOM      7  C   UNL     1      -4.675  -1.136  -5.253  0.00  0.00    +0.025 C 
ATOM      8  C   UNL     1      -5.461  -1.513  -3.995  0.00  0.00    +0.025 C 
ATOM      9  C   UNL     1      -4.616  -2.465  -3.136  0.00  0.00    +0.109 C 
ATOM     10  H   UNL     1      -1.192  -0.690  -2.108  0.00  0.00    +0.151 HD
ENDROOT
BRANCH   1  11
ATOM     11  C   UNL     1      -1.295  -0.772   0.011  0.00  0.00    +0.141 C 
BRANCH  11  17
ATOM     12  C   UNL     1      -0.019   1.381   0.009  0.00  0.00    +0.009 A 
ATOM     13  C   UNL     1       1.167   2.090   0.001  0.00  0.00    +0.046 A 
ATOM     14  C   UNL     1       2.378   1.413  -0.013  0.00  0.00    +0.117 A 
ATOM     15  C   UNL     1       2.394   0.026  -0.019  0.00  0.00    +0.046 A 
ATOM     16  C   UNL     1       1.206  -0.678  -0.012  0.00  0.00    +0.009 A 
ATOM     17  C   UNL     1       0.000  -0.001   0.002  0.00  0.00    -0.030 A 
BRANCH  14  18
ATOM     18  O   UNL     1       3.546   2.108  -0.020  0.00  0.00    -0.507 OA
ATOM     19  H   UNL     1       3.892   2.306   0.861  0.00  0.00    +0.292 HD
ENDBRANCH  14  18
ENDBRANCH  11  17
ENDBRANCH   1  11
BRANCH   7  20
ATOM     20  C   UNL     1      -5.528  -0.217  -6.131  0.00  0.00    +0.148 C 
BRANCH  20  21
ATOM     21  C   UNL     1      -6.795  -0.932  -6.523  0.00  0.00    -0.019 A 
ATOM     22  C   UNL     1      -6.779  -1.853  -7.554  0.00  0.00    +0.007 A 
ATOM     23  C   UNL     1      -7.941  -2.508  -7.915  0.00  0.00    +0.020 A 
ATOM     24  C   UNL     1      -9.121  -2.242  -7.244  0.00  0.00    +0.041 A 
ATOM     25  C   UNL     1      -9.137  -1.321  -6.212  0.00  0.00    +0.020 A 
ATOM     26  C   UNL     1      -7.973  -0.670  -5.849  0.00  0.00    +0.007 A 
ATOM     27 CL   UNL     1     -10.581  -3.065  -7.697  0.00  0.00    -0.084 Cl
ENDBRANCH  20  21
BRANCH  20  28
ATOM     28  O   UNL     1      -4.795   0.133  -7.306  0.00  0.00    -0.387 OA
ATOM     29  H   UNL     1      -4.539  -0.625  -7.851  0.00  0.00    +0.210 HD
ENDBRANCH  20  28
ENDBRANCH   7  20
TORSDOF 6
