REMARK  Name = ZINC03250096
REMARK  7 active torsions:
REMARK  status: ('A' for Active; 'I' for Inactive)
REMARK    1  A    between atoms: C_1  and  C_2
REMARK    2  A    between atoms: C_2  and  C_4
REMARK    3  A    between atoms: C_2  and  O_15
REMARK    4  A    between atoms: N_6  and  C_7
REMARK    5  A    between atoms: O_15  and  C_16
REMARK    6  A    between atoms: C_16  and  C_18
REMARK    7  A    between atoms: C_23  and  N_24
REMARK                            x       y       z     vdW  Elec       q    Type
REMARK                         _______ _______ _______ _____ _____    ______ ____
ROOT
ATOM      1  C   UNL     1      -4.497  -0.898   1.085  0.00  0.00    +0.062 C 
ATOM      2  C   UNL     1      -3.704  -1.061  -0.212  0.00  0.00    +0.259 C 
ENDROOT
BRANCH   2   3
ATOM      3  C   UNL     1      -2.407  -0.301  -0.107  0.00  0.00    +0.258 C 
ATOM      4  O   UNL     1      -1.351  -0.899  -0.119  0.00  0.00    -0.271 OA
ATOM      5  N   UNL     1      -2.420   1.042  -0.001  0.00  0.00    -0.281 N 
ATOM      6  H   UNL     1      -3.262   1.514   0.089  0.00  0.00    +0.155 HD
BRANCH   5   7
ATOM      7  C   UNL     1      -1.216   1.758  -0.021  0.00  0.00    +0.052 A 
ATOM      8  C   UNL     1      -0.097   1.218  -0.641  0.00  0.00    +0.026 A 
ATOM      9  C   UNL     1       1.088   1.929  -0.664  0.00  0.00    +0.022 A 
ATOM     10  C   UNL     1       1.162   3.174  -0.065  0.00  0.00    +0.042 A 
ATOM     11  C   UNL     1       0.050   3.712   0.559  0.00  0.00    +0.041 A 
ATOM     12  C   UNL     1      -1.138   3.006   0.585  0.00  0.00    +0.064 A 
ATOM     13 CL   UNL     1      -2.533   3.680   1.368  0.00  0.00    -0.082 Cl
ATOM     14 CL   UNL     1       2.652   4.064  -0.097  0.00  0.00    -0.083 Cl
ENDBRANCH   5   7
ENDBRANCH   2   3
BRANCH   2  15
ATOM     15  O   UNL     1      -3.424  -2.468  -0.435  0.00  0.00    -0.449 OA
BRANCH  15  16
ATOM     16  C   UNL     1      -4.332  -3.169  -1.142  0.00  0.00    +0.342 C 
ATOM     17  O   UNL     1      -5.331  -2.618  -1.562  0.00  0.00    -0.245 OA
BRANCH  16  18
ATOM     18  C   UNL     1      -4.115  -4.601  -1.406  0.00  0.00    +0.080 A 
ATOM     19  C   UNL     1      -3.023  -5.263  -0.836  0.00  0.00    +0.018 A 
ATOM     20  C   UNL     1      -2.825  -6.602  -1.087  0.00  0.00    +0.021 A 
ATOM     21  C   UNL     1      -3.703  -7.300  -1.903  0.00  0.00    +0.043 A 
ATOM     22  C   UNL     1      -4.785  -6.660  -2.474  0.00  0.00    +0.043 A 
ATOM     23  C   UNL     1      -5.005  -5.311  -2.228  0.00  0.00    +0.040 A 
ATOM     24 CL   UNL     1      -3.439  -8.989  -2.210  0.00  0.00    -0.083 Cl
BRANCH  23  25
ATOM     25  N   UNL     1      -6.095  -4.666  -2.797  0.00  0.00    -0.357 N 
ATOM     26  H   UNL     1      -6.286  -3.743  -2.568  0.00  0.00    +0.142 HD
ATOM     27  H   UNL     1      -6.666  -5.139  -3.422  0.00  0.00    +0.142 HD
ENDBRANCH  23  25
ENDBRANCH  16  18
ENDBRANCH  15  16
ENDBRANCH   2  15
TORSDOF 6
