REMARK  Name = ZINC36900794
REMARK  7 active torsions:
REMARK  status: ('A' for Active; 'I' for Inactive)
REMARK    1  A    between atoms: C_1  and  C_2
REMARK    2  A    between atoms: C_2  and  O_3
REMARK    3  A    between atoms: O_3  and  C_4
REMARK    4  A    between atoms: C_7  and  N_20
REMARK    5  A    between atoms: C_9  and  S_10
REMARK    6  A    between atoms: S_10  and  N_13
REMARK    7  A    between atoms: C_17  and  C_19
REMARK                            x       y       z     vdW  Elec       q    Type
REMARK                         _______ _______ _______ _____ _____    ______ ____
ROOT
ATOM      1  C   UNL     1       0.777  -1.811  -1.336  0.00  0.00    +0.147 A 
ATOM      2  C   UNL     1       0.242  -2.668  -0.386  0.00  0.00    +0.049 A 
ATOM      3  C   UNL     1       0.350  -4.035  -0.550  0.00  0.00    +0.026 A 
ATOM      4  C   UNL     1       0.993  -4.552  -1.667  0.00  0.00    +0.027 A 
ATOM      5  C   UNL     1       1.527  -3.693  -2.618  0.00  0.00    +0.055 A 
ATOM      6  C   UNL     1       1.414  -2.326  -2.455  0.00  0.00    +0.156 A 
ENDROOT
BRANCH   6   7
ATOM      7  S   UNL     1       2.086  -1.236  -3.665  0.00  0.00    +0.105 S 
ATOM      8  O   UNL     1       2.856  -0.272  -2.961  0.00  0.00    -0.146 OA
ATOM      9  O   UNL     1       2.640  -2.055  -4.686  0.00  0.00    -0.146 OA
BRANCH   7  10
ATOM     10  N   UNL     1       0.817  -0.421  -4.349  0.00  0.00    -0.103 NA
ATOM     11  C   UNL     1       1.038   0.464  -5.290  0.00  0.00    +0.192 A 
ATOM     12  N   UNL     1       2.230   0.859  -5.856  0.00  0.00    -0.339 N 
ATOM     13  C   UNL     1       2.204   1.810  -6.834  0.00  0.00    +0.095 A 
ATOM     14  C   UNL     1       1.043   2.338  -7.224  0.00  0.00    +0.006 A 
ATOM     15  S   UNL     1      -0.129   1.474  -6.190  0.00  0.00    -0.054 S 
ATOM     16  C   UNL     1       0.786   3.389  -8.273  0.00  0.00    +0.053 C 
ATOM     17  H   UNL     1       3.070   0.470  -5.566  0.00  0.00    +0.167 HD
ENDBRANCH   7  10
ENDBRANCH   6   7
BRANCH   4  18
ATOM     18  N   UNL     1       1.103  -5.937  -1.834  0.00  0.00    -0.358 N 
ATOM     19  H   UNL     1       0.730  -6.536  -1.169  0.00  0.00    +0.142 HD
ATOM     20  H   UNL     1       1.552  -6.297  -2.614  0.00  0.00    +0.142 HD
ENDBRANCH   4  18
BRANCH   1  21
ATOM     21  O   UNL     1       0.671  -0.465  -1.174  0.00  0.00    -0.490 OA
BRANCH  21  23
ATOM     22  C   UNL     1      -0.019   1.526   0.010  0.00  0.00    +0.048 C 
ATOM     23  C   UNL     1       0.002  -0.004   0.002  0.00  0.00    +0.226 C 
ENDBRANCH  21  23
ENDBRANCH   1  21
TORSDOF 5
