REMARK  Name = ZINC49563016
REMARK  8 active torsions:
REMARK  status: ('A' for Active; 'I' for Inactive)
REMARK    1  A    between atoms: C_1  and  C_2
REMARK    2  A    between atoms: C_2  and  C_4
REMARK    3  A    between atoms: C_2  and  N_12
REMARK    4  A    between atoms: C_7  and  O_11
REMARK    5  A    between atoms: C_9  and  O_10
REMARK    6  A    between atoms: N_12  and  C_13
REMARK    7  A    between atoms: C_18  and  O_19
REMARK    8  A    between atoms: O_19  and  C_20
REMARK                            x       y       z     vdW  Elec       q    Type
REMARK                         _______ _______ _______ _____ _____    ______ ____
ROOT
ATOM      1  C   UNL     1      -0.019   1.526   0.010  0.00  0.00    +0.033 C 
ATOM      2  C   UNL     1       0.002  -0.004   0.002  0.00  0.00    +0.101 C 
ENDROOT
BRANCH   2   3
ATOM      3  C   UNL     1      -1.412  -0.526   0.013  0.00  0.00    +0.014 A 
ATOM      4  C   UNL     1      -2.014  -0.864   1.210  0.00  0.00    +0.012 A 
ATOM      5  C   UNL     1      -3.310  -1.342   1.223  0.00  0.00    +0.046 A 
ATOM      6  C   UNL     1      -4.010  -1.484   0.033  0.00  0.00    +0.120 A 
ATOM      7  C   UNL     1      -3.409  -1.146  -1.169  0.00  0.00    +0.091 A 
ATOM      8  C   UNL     1      -2.110  -0.661  -1.179  0.00  0.00    +0.125 A 
BRANCH   8   9
ATOM      9  O   UNL     1      -1.519  -0.323  -2.355  0.00  0.00    -0.506 OA
ATOM     10  H   UNL     1      -1.044  -1.050  -2.780  0.00  0.00    +0.292 HD
ENDBRANCH   8   9
BRANCH   6  11
ATOM     11  O   UNL     1      -5.285  -1.956   0.047  0.00  0.00    -0.507 OA
ATOM     12  H   UNL     1      -5.958  -1.266   0.131  0.00  0.00    +0.292 HD
ENDBRANCH   6  11
ENDBRANCH   2   3
BRANCH   2  13
ATOM     13  N   UNL     1       0.711  -0.489   1.189  0.00  0.00    -0.334 N 
ATOM     14  H   UNL     1       0.213  -0.731   1.986  0.00  0.00    +0.147 HD
BRANCH  13  15
ATOM     15  C   UNL     1       2.106  -0.604   1.173  0.00  0.00    +0.071 A 
ATOM     16  C   UNL     1       2.819  -0.253   0.036  0.00  0.00    +0.042 A 
ATOM     17  C   UNL     1       4.197  -0.368   0.023  0.00  0.00    +0.020 A 
ATOM     18  C   UNL     1       4.867  -0.831   1.142  0.00  0.00    +0.019 A 
ATOM     19  C   UNL     1       4.161  -1.183   2.278  0.00  0.00    +0.048 A 
ATOM     20  C   UNL     1       2.781  -1.065   2.301  0.00  0.00    +0.141 A 
ATOM     21 BR   UNL     1       5.169   0.110  -1.527  0.00  0.00    -0.050 Br
BRANCH  20  22
ATOM     22  O   UNL     1       2.087  -1.405   3.420  0.00  0.00    -0.493 OA
ATOM     23  C   UNL     1       2.845  -1.870   4.538  0.00  0.00    +0.277 C 
ENDBRANCH  20  22
ENDBRANCH  13  15
ENDBRANCH   2  13
TORSDOF 6
