REMARK  Name = ZINC24835305
REMARK  10 active torsions:
REMARK  status: ('A' for Active; 'I' for Inactive)
REMARK    1  A    between atoms: C_1  and  C_2
REMARK    2  A    between atoms: C_2  and  O_3
REMARK    3  A    between atoms: O_3  and  C_4
REMARK    4  A    between atoms: C_11  and  C_18
REMARK    5  A    between atoms: C_13  and  O_14
REMARK    6  A    between atoms: C_18  and  S_19
REMARK    7  A    between atoms: S_19  and  C_20
REMARK    8  A    between atoms: C_23  and  C_25
REMARK    9  A    between atoms: C_25  and  O_26
REMARK   10  A    between atoms: O_26  and  C_27
REMARK                            x       y       z     vdW  Elec       q    Type
REMARK                         _______ _______ _______ _____ _____    ______ ____
ROOT
ATOM      1  C   UNL     1       2.448   5.042  -0.664  0.00  0.00    +0.405 C 
ATOM      2  O   UNL     1       1.462   5.530  -1.179  0.00  0.00    -0.226 OA
ATOM      3  N   UNL     1       2.353   3.873   0.000  0.00  0.00    -0.251 N 
ATOM      4  C   UNL     1       1.145   3.175   0.016  0.00  0.00    +0.040 A 
ATOM      5  C   UNL     1       1.150   1.780   0.004  0.00  0.00    +0.024 A 
ATOM      6  C   UNL     1      -0.023   1.085   0.018  0.00  0.00    +0.013 A 
ATOM      7  C   UNL     1      -1.241   1.775   0.040  0.00  0.00    +0.022 A 
ATOM      8  C   UNL     1      -2.515   1.054   0.063  0.00  0.00    -0.020 A 
ATOM      9  C   UNL     1      -3.663   1.780   0.090  0.00  0.00    +0.092 A 
ATOM     10  C   UNL     1      -3.602   3.188   0.102  0.00  0.00    +0.285 A 
ATOM     11  O   UNL     1      -2.431   3.844   0.087  0.00  0.00    -0.425 OA
ATOM     12  C   UNL     1      -1.254   3.182   0.059  0.00  0.00    +0.141 A 
ATOM     13  C   UNL     1      -0.052   3.874   0.044  0.00  0.00    +0.070 A 
ATOM     14  H   UNL     1       3.228   3.468   0.530  0.00  0.00    +0.158 HD
ENDROOT
BRANCH  10  15
ATOM     15  O   UNL     1      -4.639   3.827   0.127  0.00  0.00    -0.480 OA
ATOM     16  H   UNL     1      -4.607   4.927   0.137  0.00  0.00    +0.295 HD
ENDBRANCH  10  15
BRANCH   1  17
ATOM     17  O   UNL     1       3.636   5.669  -0.756  0.00  0.00    -0.450 OA
BRANCH  17  19
ATOM     18  C   UNL     1       5.088   7.483  -1.484  0.00  0.00    +0.048 C 
ATOM     19  C   UNL     1       3.664   6.923  -1.486  0.00  0.00    +0.230 C 
ENDBRANCH  17  19
ENDBRANCH   1  17
BRANCH   8  20
ATOM     20  C   UNL     1      -2.553  -0.453   0.049  0.00  0.00    +0.115 C 
BRANCH  20  21
ATOM     21  S   UNL     1      -2.598  -1.039  -1.663  0.00  0.00    -0.061 S 
BRANCH  21  22
ATOM     22  C   UNL     1      -2.636  -2.780  -1.389  0.00  0.00    +0.278 A 
ATOM     23  N   UNL     1      -2.630  -3.384  -0.225  0.00  0.00    -0.101 NA
ATOM     24  N   UNL     1      -2.664  -4.657  -0.406  0.00  0.00    -0.108 NA
ATOM     25  C   UNL     1      -2.693  -4.915  -1.681  0.00  0.00    +0.255 A 
ATOM     26  O   UNL     1      -2.682  -3.736  -2.335  0.00  0.00    -0.412 OA
BRANCH  25  27
ATOM     27  C   UNL     1      -2.737  -6.282  -2.312  0.00  0.00    +0.326 C 
BRANCH  27  28
ATOM     28  O   UNL     1      -4.098  -6.682  -2.488  0.00  0.00    -0.483 OA
BRANCH  28  29
ATOM     29  C   UNL     1      -4.315  -7.901  -3.050  0.00  0.00    +0.121 A 
ATOM     30  C   UNL     1      -3.241  -8.693  -3.428  0.00  0.00    +0.047 A 
ATOM     31  C   UNL     1      -3.464  -9.933  -3.994  0.00  0.00    +0.023 A 
ATOM     32  C   UNL     1      -4.758 -10.381  -4.193  0.00  0.00    +0.041 A 
ATOM     33  C   UNL     1      -5.831  -9.590  -3.821  0.00  0.00    +0.023 A 
ATOM     34  C   UNL     1      -5.612  -8.352  -3.250  0.00  0.00    +0.047 A 
ATOM     35 CL   UNL     1      -5.036 -11.937  -4.910  0.00  0.00    -0.084 Cl
ENDBRANCH  28  29
ENDBRANCH  27  28
ENDBRANCH  25  27
ENDBRANCH  21  22
ENDBRANCH  20  21
ENDBRANCH   8  20
TORSDOF 9
