REMARK  Name = ZINC02852398
REMARK  12 active torsions:
REMARK  status: ('A' for Active; 'I' for Inactive)
REMARK    1  A    between atoms: C_1  and  C_2
REMARK    2  A    between atoms: C_2  and  O_3
REMARK    3  A    between atoms: O_3  and  C_4
REMARK    4  A    between atoms: C_4  and  C_6
REMARK    5  A    between atoms: C_10  and  N_11
REMARK    6  A    between atoms: N_11  and  C_12
REMARK    7  A    between atoms: C_12  and  N_14
REMARK    8  A    between atoms: N_14  and  N_15
REMARK    9  A    between atoms: C_16  and  C_18
REMARK   10  A    between atoms: C_18  and  C_19
REMARK   11  A    between atoms: C_18  and  C_25
REMARK   12  A    between atoms: C_18  and  O_31
REMARK                            x       y       z     vdW  Elec       q    Type
REMARK                         _______ _______ _______ _____ _____    ______ ____
ROOT
ATOM      1  N   UNL     1       0.596   2.355  -0.900  0.00  0.00    -0.245 N 
ATOM      2  H   UNL     1       1.454   1.998  -1.176  0.00  0.00    +0.172 HD
ENDROOT
BRANCH   1   3
ATOM      3  N   UNL     1      -0.419   1.488  -0.474  0.00  0.00    -0.232 N 
ATOM      4  C   UNL     1      -0.201   0.158  -0.448  0.00  0.00    +0.270 C 
ATOM      5  O   UNL     1       0.872  -0.288  -0.793  0.00  0.00    -0.270 OA
ATOM      6  H   UNL     1      -1.279   1.844  -0.202  0.00  0.00    +0.173 HD
BRANCH   4   7
ATOM      7  C   UNL     1      -1.293  -0.775   0.010  0.00  0.00    +0.194 C 
BRANCH   7   8
ATOM      8  C   UNL     1      -2.202  -1.093  -1.149  0.00  0.00    -0.003 A 
ATOM      9  C   UNL     1      -1.669  -1.307  -2.406  0.00  0.00    +0.007 A 
ATOM     10  C   UNL     1      -2.503  -1.603  -3.469  0.00  0.00    +0.000 A 
ATOM     11  C   UNL     1      -3.870  -1.675  -3.276  0.00  0.00    +0.000 A 
ATOM     12  C   UNL     1      -4.403  -1.455  -2.019  0.00  0.00    +0.000 A 
ATOM     13  C   UNL     1      -3.569  -1.164  -0.956  0.00  0.00    +0.007 A 
ENDBRANCH   7   8
BRANCH   7  14
ATOM     14  C   UNL     1      -0.679  -2.049   0.531  0.00  0.00    -0.003 A 
ATOM     15  C   UNL     1       0.016  -2.882  -0.327  0.00  0.00    +0.007 A 
ATOM     16  C   UNL     1       0.583  -4.049   0.152  0.00  0.00    +0.000 A 
ATOM     17  C   UNL     1       0.448  -4.387   1.485  0.00  0.00    +0.000 A 
ATOM     18  C   UNL     1      -0.252  -3.557   2.341  0.00  0.00    +0.000 A 
ATOM     19  C   UNL     1      -0.815  -2.388   1.864  0.00  0.00    +0.007 A 
ENDBRANCH   7  14
BRANCH   7  20
ATOM     20  O   UNL     1      -2.048  -0.151   1.050  0.00  0.00    -0.371 OA
ATOM     21  H   UNL     1      -1.525   0.082   1.830  0.00  0.00    +0.212 HD
ENDBRANCH   7  20
ENDBRANCH   4   7
ENDBRANCH   1   3
BRANCH   1  22
ATOM     22  C   UNL     1       0.378   3.685  -0.926  0.00  0.00    +0.151 C 
ATOM     23  S   UNL     1       1.618   4.745  -1.447  0.00  0.00    -0.017 S 
BRANCH  22  24
ATOM     24  N   UNL     1      -0.815   4.180  -0.543  0.00  0.00    -0.290 N 
ATOM     25  H   UNL     1      -1.517   3.580  -0.248  0.00  0.00    +0.154 HD
BRANCH  24  30
ATOM     26  C   UNL     1      -2.191   6.240  -0.223  0.00  0.00    +0.091 A 
ATOM     27  C   UNL     1      -2.162   7.689  -0.338  0.00  0.00    -0.021 A 
ATOM     28  C   UNL     1      -1.000   8.208  -0.790  0.00  0.00    -0.004 A 
ATOM     29  S   UNL     1       0.049   6.806  -1.053  0.00  0.00    -0.077 S 
ATOM     30  C   UNL     1      -1.038   5.547  -0.570  0.00  0.00    +0.086 A 
ATOM     31  C   UNL     1      -0.684   9.654  -1.015  0.00  0.00    +0.043 C 
ATOM     32  C   UNL     1      -2.000  10.444  -1.012  0.00  0.00    +0.005 C 
ATOM     33  C   UNL     1      -2.828  10.018   0.204  0.00  0.00    +0.005 C 
ATOM     34  C   UNL     1      -3.341   8.590   0.010  0.00  0.00    +0.037 C 
BRANCH  26  35
ATOM     35  C   UNL     1      -3.387   5.539   0.247  0.00  0.00    +0.342 C 
ATOM     36  O   UNL     1      -3.539   5.324   1.434  0.00  0.00    -0.245 OA
BRANCH  35  37
ATOM     37  O   UNL     1      -4.320   5.131  -0.638  0.00  0.00    -0.461 OA
BRANCH  37  39
ATOM     38  C   UNL     1      -6.421   4.060  -1.246  0.00  0.00    +0.048 C 
ATOM     39  C   UNL     1      -5.480   4.442  -0.102  0.00  0.00    +0.229 C 
ENDBRANCH  37  39
ENDBRANCH  35  37
ENDBRANCH  26  35
ENDBRANCH  24  30
ENDBRANCH  22  24
ENDBRANCH   1  22
TORSDOF 11
