REMARK  Name = ZINC56519001
REMARK  6 active torsions:
REMARK  status: ('A' for Active; 'I' for Inactive)
REMARK    1  A    between atoms: C_1  and  C_2
REMARK    2  A    between atoms: C_7  and  C_8
REMARK    3  A    between atoms: C_8  and  C_9
REMARK    4  A    between atoms: C_9  and  N_10
REMARK    5  A    between atoms: N_13  and  N_14
REMARK    6  A    between atoms: N_17  and  C_18
REMARK                            x       y       z     vdW  Elec       q    Type
REMARK                         _______ _______ _______ _____ _____    ______ ____
ROOT
ATOM      1  N   UNL     1      -1.410   1.130   4.161  0.00  0.00    -0.298 N 
ATOM      2  C   UNL     1      -2.573   1.538   4.707  0.00  0.00    +0.316 C 
ATOM      3  O   UNL     1      -3.623   1.310   4.139  0.00  0.00    -0.251 OA
ATOM      4  N   UNL     1      -2.571   2.200   5.881  0.00  0.00    -0.217 N 
ATOM      5  H   UNL     1      -0.571   1.313   4.614  0.00  0.00    +0.150 HD
ATOM      6  H   UNL     1      -3.408   2.493   6.274  0.00  0.00    +0.174 HD
ENDROOT
BRANCH   4   7
ATOM      7  N   UNL     1      -1.360   2.463   6.535  0.00  0.00    -0.217 N 
ATOM      8  C   UNL     1      -1.359   3.124   7.709  0.00  0.00    +0.320 C 
ATOM      9  O   UNL     1      -0.308   3.353   8.277  0.00  0.00    -0.251 OA
ATOM     10  N   UNL     1      -2.522   3.532   8.255  0.00  0.00    -0.268 N 
ATOM     11  H   UNL     1      -0.523   2.169   6.143  0.00  0.00    +0.174 HD
ATOM     12  H   UNL     1      -3.353   3.410   7.771  0.00  0.00    +0.156 HD
BRANCH  10  13
ATOM     13  C   UNL     1      -2.529   4.132   9.519  0.00  0.00    +0.035 A 
ATOM     14  C   UNL     1      -3.587   3.906  10.390  0.00  0.00    +0.024 A 
ATOM     15  C   UNL     1      -3.591   4.499  11.638  0.00  0.00    +0.017 A 
ATOM     16  C   UNL     1      -2.544   5.317  12.020  0.00  0.00    +0.018 A 
ATOM     17  C   UNL     1      -1.489   5.545  11.154  0.00  0.00    +0.017 A 
ATOM     18  C   UNL     1      -1.476   4.950   9.908  0.00  0.00    +0.024 A 
ATOM     19 BR   UNL     1      -2.554   6.127  13.729  0.00  0.00    -0.050 Br
ENDBRANCH  10  13
ENDBRANCH   4   7
BRANCH   1  20
ATOM     20  C   UNL     1      -1.411   0.411   2.885  0.00  0.00    +0.110 C 
BRANCH  20  21
ATOM     21  C   UNL     1       0.026   0.066   2.492  0.00  0.00    +0.054 C 
BRANCH  21  28
ATOM     22  C   UNL     1      -0.005   1.537   0.006  0.00  0.00    +0.044 C 
ATOM     23  C   UNL     1       0.009   0.030  -0.010  0.00  0.00    -0.047 A 
ATOM     24  C   UNL     1       0.013  -0.648  -1.215  0.00  0.00    +0.003 A 
ATOM     25  C   UNL     1       0.027  -2.030  -1.230  0.00  0.00    +0.000 A 
ATOM     26  C   UNL     1       0.036  -2.734  -0.040  0.00  0.00    +0.000 A 
ATOM     27  C   UNL     1       0.033  -2.056   1.164  0.00  0.00    +0.004 A 
ATOM     28  C   UNL     1       0.024  -0.674   1.179  0.00  0.00    -0.043 A 
ENDBRANCH  21  28
ENDBRANCH  20  21
ENDBRANCH   1  20
TORSDOF 5
