REMARK  Name = ZINC13081045
REMARK  6 active torsions:
REMARK  status: ('A' for Active; 'I' for Inactive)
REMARK    1  A    between atoms: C_1  and  C_2
REMARK    2  A    between atoms: C_9  and  N_25
REMARK    3  A    between atoms: C_10  and  C_23
REMARK    4  A    between atoms: C_11  and  C_13
REMARK    5  A    between atoms: C_15  and  N_20
REMARK    6  A    between atoms: C_18  and  O_19
REMARK                            x       y       z     vdW  Elec       q    Type
REMARK                         _______ _______ _______ _____ _____    ______ ____
ROOT
ATOM      1  C   UNL     1      -0.018   1.503   0.010  0.00  0.00    +0.068 C 
ATOM      2  C   UNL     1       0.002  -0.004   0.002  0.00  0.00    +0.068 A 
ATOM      3  C   UNL     1       0.008  -0.813  -1.126  0.00  0.00    +0.049 A 
ATOM      4  C   UNL     1       0.028  -2.116  -0.713  0.00  0.00    +0.222 A 
ATOM      5  N   UNL     1       0.033  -2.116   0.629  0.00  0.00    -0.246 N 
ATOM      6  H   UNL     1       0.046  -2.900   1.201  0.00  0.00    +0.192 HD
ATOM      7  N   UNL     1       0.023  -0.780   1.060  0.00  0.00    -0.176 NA
ATOM      8  O   UNL     1       0.042  -3.159  -1.580  0.00  0.00    -0.423 OA
ATOM      9  C   UNL     1       0.311  -2.892  -2.874  0.00  0.00    +0.200 C 
ATOM     10  C   UNL     1       0.309  -1.648  -3.402  0.00  0.00    +0.098 C 
ATOM     11  C   UNL     1      -0.005  -0.421  -2.581  0.00  0.00    +0.105 C 
ENDROOT
BRANCH  11  12
ATOM     12  C   UNL     1      -1.367   0.105  -2.954  0.00  0.00    +0.009 A 
ATOM     13  C   UNL     1      -2.481  -0.700  -2.814  0.00  0.00    +0.041 A 
ATOM     14  C   UNL     1      -3.731  -0.217  -3.156  0.00  0.00    +0.127 A 
ATOM     15  C   UNL     1      -3.869   1.071  -3.639  0.00  0.00    +0.036 A 
ATOM     16  C   UNL     1      -2.758   1.880  -3.780  0.00  0.00    +0.048 A 
ATOM     17  C   UNL     1      -1.504   1.400  -3.432  0.00  0.00    +0.121 A 
BRANCH  14  18
ATOM     18  N   UNL     1      -4.923  -1.082  -3.006  0.00  0.00    +0.056 N 
ATOM     19  O   UNL     1      -4.803  -2.209  -2.585  0.00  0.00    -0.126 OA
ATOM     20  O   UNL     1      -6.016  -0.661  -3.304  0.00  0.00    -0.126 OA
ENDBRANCH  14  18
BRANCH  17  21
ATOM     21  O   UNL     1      -0.410   2.195  -3.566  0.00  0.00    -0.506 OA
ATOM     22  H   UNL     1       0.019   2.132  -4.430  0.00  0.00    +0.292 HD
ENDBRANCH  17  21
ENDBRANCH  11  12
BRANCH   9  23
ATOM     23  N   UNL     1       0.605  -3.945  -3.704  0.00  0.00    -0.328 N 
ATOM     24  H   UNL     1       0.615  -4.850  -3.354  0.00  0.00    +0.145 HD
ATOM     25  H   UNL     1       0.803  -3.785  -4.640  0.00  0.00    +0.145 HD
ENDBRANCH   9  23
BRANCH  10  26
ATOM     26  C   UNL     1       0.616  -1.487  -4.791  0.00  0.00    +0.101 C 
ATOM     27  N   UNL     1       0.860  -1.360  -5.894  0.00  0.00    -0.191 NA
ENDBRANCH  10  26
TORSDOF 5
