REMARK  Name = ZINC14040678
REMARK  12 active torsions:
REMARK  status: ('A' for Active; 'I' for Inactive)
REMARK    1  A    between atoms: C_1  and  C_2
REMARK    2  A    between atoms: C_3  and  C_32
REMARK    3  A    between atoms: C_5  and  N_10
REMARK    4  A    between atoms: C_6  and  C_7
REMARK    5  A    between atoms: N_10  and  C_11
REMARK    6  A    between atoms: C_11  and  N_13
REMARK    7  A    between atoms: C_14  and  C_16
REMARK    8  A    between atoms: C_21  and  O_22
REMARK    9  A    between atoms: O_22  and  C_23
REMARK   10  A    between atoms: C_23  and  C_24
REMARK   11  A    between atoms: C_24  and  O_25
REMARK   12  A    between atoms: O_25  and  C_26
REMARK                            x       y       z     vdW  Elec       q    Type
REMARK                         _______ _______ _______ _____ _____    ______ ____
ROOT
ATOM      1  N   UNL     1       3.631   2.058  -0.021  0.00  0.00    -0.263 N 
ATOM      2  C   UNL     1       2.477   1.361  -0.014  0.00  0.00    +0.253 C 
ATOM      3  O   UNL     1       2.501   0.145  -0.021  0.00  0.00    -0.270 OA
ATOM      4  H   UNL     1       3.612   3.027  -0.016  0.00  0.00    +0.157 HD
ENDROOT
BRANCH   2   5
ATOM      5  C   UNL     1       1.186   2.073   0.002  0.00  0.00    +0.079 A 
ATOM      6  C   UNL     1       1.154   3.470   0.009  0.00  0.00    +0.017 A 
ATOM      7  C   UNL     1      -0.056   4.129   0.024  0.00  0.00    +0.001 A 
ATOM      8  C   UNL     1      -1.242   3.413   0.031  0.00  0.00    +0.004 A 
ATOM      9  C   UNL     1      -1.225   2.033   0.019  0.00  0.00    +0.046 A 
ATOM     10  C   UNL     1      -0.016   1.352   0.009  0.00  0.00    +0.133 A 
BRANCH  10  11
ATOM     11  O   UNL     1       0.002  -0.004   0.002  0.00  0.00    -0.488 OA
BRANCH  11  12
ATOM     12  C   UNL     1      -1.262  -0.670   0.011  0.00  0.00    +0.270 C 
BRANCH  12  13
ATOM     13  C   UNL     1      -1.041  -2.184   0.000  0.00  0.00    +0.270 C 
BRANCH  13  14
ATOM     14  O   UNL     1      -0.397  -2.580   1.213  0.00  0.00    -0.489 OA
BRANCH  14  15
ATOM     15  C   UNL     1      -0.127  -3.903   1.365  0.00  0.00    +0.121 A 
ATOM     16  C   UNL     1      -0.479  -4.803   0.369  0.00  0.00    +0.045 A 
ATOM     17  C   UNL     1      -0.197  -6.146   0.523  0.00  0.00    +0.004 A 
ATOM     18  C   UNL     1       0.424  -6.596   1.674  0.00  0.00    +0.000 A 
ATOM     19  C   UNL     1       0.771  -5.702   2.670  0.00  0.00    +0.004 A 
ATOM     20  C   UNL     1       0.497  -4.357   2.518  0.00  0.00    +0.045 A 
ENDBRANCH  14  15
ENDBRANCH  13  14
ENDBRANCH  12  13
ENDBRANCH  11  12
ENDBRANCH  10  11
ENDBRANCH   2   5
BRANCH   1  21
ATOM     21  C   UNL     1       4.811   1.407  -0.036  0.00  0.00    +0.141 C 
ATOM     22  S   UNL     1       4.845  -0.305  -0.046  0.00  0.00    -0.018 S 
BRANCH  21  23
ATOM     23  N   UNL     1       5.965   2.103  -0.044  0.00  0.00    -0.291 N 
ATOM     24  H   UNL     1       5.946   3.073  -0.038  0.00  0.00    +0.154 HD
BRANCH  23  29
ATOM     25  C   UNL     1      10.990   1.499  -0.095  0.00  0.00    +0.045 C 
ATOM     26  C   UNL     1       9.557   1.033  -0.083  0.00  0.00    -0.027 A 
ATOM     27  C   UNL     1       9.245  -0.276  -0.087  0.00  0.00    -0.008 A 
ATOM     28  S   UNL     1       7.465  -0.273  -0.063  0.00  0.00    -0.078 S 
ATOM     29  C   UNL     1       7.178   1.435  -0.059  0.00  0.00    +0.084 A 
ATOM     30  C   UNL     1       8.460   1.972  -0.068  0.00  0.00    +0.068 A 
ATOM     31  C   UNL     1      10.178  -1.459  -0.101  0.00  0.00    +0.052 C 
BRANCH  30  32
ATOM     32  C   UNL     1       8.688   3.420  -0.063  0.00  0.00    +0.244 C 
ATOM     33  O   UNL     1       8.792   4.016   0.993  0.00  0.00    -0.270 OA
ATOM     34  N   UNL     1       8.781   4.091  -1.228  0.00  0.00    -0.325 N 
ATOM     35  H   UNL     1       8.698   3.616  -2.070  0.00  0.00    +0.145 HD
ATOM     36  H   UNL     1       8.931   5.049  -1.225  0.00  0.00    +0.145 HD
ENDBRANCH  30  32
ENDBRANCH  23  29
ENDBRANCH  21  23
ENDBRANCH   1  21
TORSDOF 10
