REMARK  Name = ZINC09502313
REMARK  12 active torsions:
REMARK  status: ('A' for Active; 'I' for Inactive)
REMARK    1  A    between atoms: C_1  and  C_2
REMARK    2  A    between atoms: C_2  and  O_3
REMARK    3  A    between atoms: O_3  and  C_4
REMARK    4  A    between atoms: C_9  and  C_10
REMARK    5  A    between atoms: C_10  and  N_11
REMARK    6  A    between atoms: N_14  and  C_15
REMARK    7  A    between atoms: C_15  and  C_16
REMARK    8  A    between atoms: N_18  and  C_19
REMARK    9  A    between atoms: C_20  and  C_27
REMARK   10  A    between atoms: C_22  and  C_26
REMARK   11  A    between atoms: C_24  and  C_25
REMARK   12  A    between atoms: C_29  and  C_32
REMARK                            x       y       z     vdW  Elec       q    Type
REMARK                         _______ _______ _______ _____ _____    ______ ____
ROOT
ATOM      1  N   UNL     1      -8.238   2.223  -0.573  0.00  0.00    -0.295 N 
ATOM      2  C   UNL     1      -7.154   1.428  -0.666  0.00  0.00    +0.300 C 
ATOM      3  O   UNL     1      -7.286   0.250  -0.936  0.00  0.00    -0.253 OA
ATOM      4  N   UNL     1      -5.924   1.938  -0.459  0.00  0.00    -0.291 N 
ATOM      5  H   UNL     1      -8.133   3.163  -0.358  0.00  0.00    +0.151 HD
ATOM      6  H   UNL     1      -5.819   2.878  -0.243  0.00  0.00    +0.151 HD
ENDROOT
BRANCH   1   7
ATOM      7  C   UNL     1      -9.575   1.669  -0.798  0.00  0.00    +0.145 C 
BRANCH   7  13
ATOM      8  C   UNL     1     -10.836   3.648  -1.675  0.00  0.00    +0.126 A 
ATOM      9  C   UNL     1     -11.782   4.652  -1.520  0.00  0.00    +0.053 A 
ATOM     10  C   UNL     1     -12.486   4.757  -0.342  0.00  0.00    +0.001 A 
ATOM     11  C   UNL     1     -12.266   3.866   0.701  0.00  0.00    +0.125 A 
ATOM     12  C   UNL     1     -11.317   2.861   0.540  0.00  0.00    +0.054 A 
ATOM     13  C   UNL     1     -10.605   2.758  -0.637  0.00  0.00    +0.015 A 
ATOM     14  O   UNL     1     -13.075   4.140   1.762  0.00  0.00    -0.488 OA
ATOM     15  C   UNL     1     -13.564   5.487   1.650  0.00  0.00    +0.175 C 
ATOM     16  C   UNL     1     -13.553   5.730   0.122  0.00  0.00    +0.083 C 
ATOM     17  C   UNL     1     -12.626   6.465   2.361  0.00  0.00    +0.052 C 
BRANCH   8  18
ATOM     18  O   UNL     1     -10.139   3.539  -2.837  0.00  0.00    -0.492 OA
BRANCH  18  20
ATOM     19  C   UNL     1      -9.555   4.212  -5.084  0.00  0.00    +0.048 C 
ATOM     20  C   UNL     1     -10.431   4.492  -3.861  0.00  0.00    +0.225 C 
ENDBRANCH  18  20
ENDBRANCH   8  18
ENDBRANCH   7  13
ENDBRANCH   1   7
BRANCH   4  21
ATOM     21  C   UNL     1      -4.746   1.073  -0.559  0.00  0.00    +0.202 C 
BRANCH  21  22
ATOM     22  C   UNL     1      -3.504   1.882  -0.285  0.00  0.00    +0.234 C 
ATOM     23  O   UNL     1      -3.595   3.064  -0.031  0.00  0.00    -0.274 OA
ATOM     24  N   UNL     1      -2.294   1.291  -0.322  0.00  0.00    -0.284 N 
ATOM     25  H   UNL     1      -2.226   0.331  -0.445  0.00  0.00    +0.155 HD
BRANCH  24  26
ATOM     26  C   UNL     1      -1.134   2.062  -0.184  0.00  0.00    +0.039 A 
ATOM     27  C   UNL     1      -0.958   2.859   0.940  0.00  0.00    -0.029 A 
ATOM     28  C   UNL     1       0.190   3.615   1.076  0.00  0.00    +0.008 A 
ATOM     29  C   UNL     1       1.161   3.583   0.092  0.00  0.00    -0.050 A 
ATOM     30  C   UNL     1       0.986   2.795  -1.031  0.00  0.00    +0.008 A 
ATOM     31  C   UNL     1      -0.160   2.038  -1.173  0.00  0.00    -0.029 A 
ATOM     32  C   UNL     1      -0.350   1.180  -2.398  0.00  0.00    +0.045 C 
ATOM     33  C   UNL     1       2.413   4.408   0.244  0.00  0.00    +0.044 C 
ATOM     34  C   UNL     1      -2.016   2.893   2.013  0.00  0.00    +0.045 C 
ENDBRANCH  24  26
ENDBRANCH  21  22
ENDBRANCH   4  21
TORSDOF 7
