REMARK  Name = ZINC04229169
REMARK  7 active torsions:
REMARK  status: ('A' for Active; 'I' for Inactive)
REMARK    1  A    between atoms: C_1  and  C_2
REMARK    2  A    between atoms: C_5  and  N_8
REMARK    3  A    between atoms: C_9  and  C_11
REMARK    4  A    between atoms: C_16  and  N_17
REMARK    5  A    between atoms: C_18  and  C_20
REMARK    6  A    between atoms: N_22  and  N_23
REMARK    7  A    between atoms: C_24  and  C_25
REMARK                            x       y       z     vdW  Elec       q    Type
REMARK                         _______ _______ _______ _____ _____    ______ ____
ROOT
ATOM      1  N   UNL     1      -1.101   2.025   0.031  0.00  0.00    -0.277 N 
ATOM      2  C   UNL     1      -1.031   3.366   0.149  0.00  0.00    +0.305 C 
ATOM      3  O   UNL     1       0.049   3.920   0.151  0.00  0.00    -0.265 OA
ATOM      4  H   UNL     1      -1.964   1.590  -0.053  0.00  0.00    +0.155 HD
ENDROOT
BRANCH   1  10
ATOM      5  C   UNL     1       0.089   0.012  -0.600  0.00  0.00    +0.058 A 
ATOM      6  C   UNL     1       1.267  -0.738  -0.598  0.00  0.00    +0.015 A 
ATOM      7  C   UNL     1       2.396  -0.245   0.020  0.00  0.00    +0.001 A 
ATOM      8  C   UNL     1       2.369   0.994   0.641  0.00  0.00    +0.002 A 
ATOM      9  C   UNL     1       1.212   1.746   0.648  0.00  0.00    +0.024 A 
ATOM     10  C   UNL     1       0.065   1.265   0.030  0.00  0.00    +0.046 A 
BRANCH   5  12
ATOM     11  N   UNL     1      -1.127  -1.758  -1.770  0.00  0.00    -0.281 N 
ATOM     12  C   UNL     1      -1.122  -0.510  -1.260  0.00  0.00    +0.250 C 
ATOM     13  O   UNL     1      -2.116   0.185  -1.344  0.00  0.00    -0.270 OA
ATOM     14  H   UNL     1      -0.359  -2.337  -1.643  0.00  0.00    +0.155 HD
BRANCH  11  19
ATOM     15  C   UNL     1      -5.637  -3.623  -4.662  0.00  0.00    +0.044 C 
ATOM     16  C   UNL     1      -4.439  -3.128  -3.893  0.00  0.00    -0.050 A 
ATOM     17  C   UNL     1      -3.167  -3.525  -4.266  0.00  0.00    +0.005 A 
ATOM     18  C   UNL     1      -2.067  -3.073  -3.564  0.00  0.00    +0.023 A 
ATOM     19  C   UNL     1      -2.239  -2.217  -2.483  0.00  0.00    +0.034 A 
ATOM     20  C   UNL     1      -3.517  -1.824  -2.109  0.00  0.00    +0.023 A 
ATOM     21  C   UNL     1      -4.612  -2.276  -2.818  0.00  0.00    +0.005 A 
ENDBRANCH  11  19
ENDBRANCH   5  12
ENDBRANCH   1  10
BRANCH   2  22
ATOM     22  C   UNL     1      -2.281   4.169   0.275  0.00  0.00    +0.318 C 
ATOM     23  O   UNL     1      -3.362   3.615   0.272  0.00  0.00    -0.263 OA
ATOM     24  N   UNL     1      -2.211   5.510   0.393  0.00  0.00    -0.199 N 
ATOM     25  H   UNL     1      -1.348   5.952   0.395  0.00  0.00    +0.178 HD
BRANCH  24  26
ATOM     26  N   UNL     1      -3.385   6.264   0.512  0.00  0.00    -0.187 NA
ATOM     27  C   UNL     1      -3.318   7.558   0.626  0.00  0.00    +0.143 C 
BRANCH  27  28
ATOM     28  C   UNL     1      -4.551   8.350   0.750  0.00  0.00    +0.059 A 
ATOM     29  C   UNL     1      -4.489   9.725   0.872  0.00  0.00    +0.024 A 
ATOM     30  C   UNL     1      -5.693  10.461   0.990  0.00  0.00    -0.001 A 
ATOM     31  C   UNL     1      -5.659  11.859   1.114  0.00  0.00    +0.010 A 
ATOM     32  C   UNL     1      -6.824  12.560   1.226  0.00  0.00    +0.001 A 
ATOM     33  C   UNL     1      -8.047  11.902   1.220  0.00  0.00    +0.002 A 
ATOM     34  C   UNL     1      -8.106  10.531   1.099  0.00  0.00    +0.026 A 
ATOM     35  C   UNL     1      -6.932   9.793   0.983  0.00  0.00    +0.049 A 
ATOM     36  N   UNL     1      -6.987   8.419   0.862  0.00  0.00    -0.322 N 
ATOM     37  H   UNL     1      -7.875   7.960   0.863  0.00  0.00    +0.169 HD
ATOM     38  C   UNL     1      -5.862   7.690   0.742  0.00  0.00    +0.258 A 
ATOM     39  O   UNL     1      -5.932   6.479   0.631  0.00  0.00    -0.267 OA
ENDBRANCH  27  28
ENDBRANCH  24  26
ENDBRANCH   2  22
TORSDOF 6
