REMARK  Name = ZINC02182391
REMARK  10 active torsions:
REMARK  status: ('A' for Active; 'I' for Inactive)
REMARK    1  A    between atoms: C_1  and  C_2
REMARK    2  A    between atoms: C_2  and  C_4
REMARK    3  A    between atoms: C_2  and  O_24
REMARK    4  A    between atoms: N_6  and  C_7
REMARK    5  A    between atoms: C_8  and  C_21
REMARK    6  A    between atoms: C_13  and  C_17
REMARK    7  A    between atoms: C_17  and  C_18
REMARK    8  A    between atoms: C_17  and  C_19
REMARK    9  A    between atoms: C_17  and  C_20
REMARK   10  A    between atoms: O_24  and  C_25
REMARK                            x       y       z     vdW  Elec       q    Type
REMARK                         _______ _______ _______ _____ _____    ______ ____
ROOT
ATOM      1  C   UNL     1       3.313   7.529  -1.152  0.00  0.00    +0.084 A 
ATOM      2  C   UNL     1       4.319   8.465  -1.345  0.00  0.00    +0.068 A 
ATOM      3  C   UNL     1       3.949   9.732  -1.954  0.00  0.00    -0.023 A 
ATOM      4  C   UNL     1       2.642   9.858  -2.269  0.00  0.00    -0.004 A 
ATOM      5  S   UNL     1       1.907   8.324  -1.778  0.00  0.00    -0.077 S 
ATOM      6  C   UNL     1       1.976  11.041  -2.903  0.00  0.00    +0.046 C 
ATOM      7  C   UNL     1       3.064  11.953  -3.487  0.00  0.00    -0.000 C 
ATOM      8  C   UNL     1       4.154  12.159  -2.432  0.00  0.00    +0.009 C 
ATOM      9  C   UNL     1       4.936  10.860  -2.230  0.00  0.00    +0.037 C 
ENDROOT
BRANCH   2  10
ATOM     10  C   UNL     1       5.704   8.187  -0.951  0.00  0.00    +0.244 C 
ATOM     11  O   UNL     1       6.469   7.668  -1.742  0.00  0.00    -0.270 OA
ATOM     12  N   UNL     1       6.128   8.505   0.288  0.00  0.00    -0.325 N 
ATOM     13  H   UNL     1       5.518   8.918   0.919  0.00  0.00    +0.145 HD
ATOM     14  H   UNL     1       7.044   8.321   0.549  0.00  0.00    +0.145 HD
ENDBRANCH   2  10
BRANCH   1  17
ATOM     15  C   UNL     1       2.314   5.486  -0.491  0.00  0.00    +0.258 C 
ATOM     16  O   UNL     1       1.241   5.897  -0.879  0.00  0.00    -0.271 OA
ATOM     17  N   UNL     1       3.412   6.261  -0.598  0.00  0.00    -0.276 N 
ATOM     18  H   UNL     1       4.270   5.933  -0.287  0.00  0.00    +0.155 HD
BRANCH  15  20
ATOM     19  C   UNL     1       2.817   4.226   1.585  0.00  0.00    +0.062 C 
ATOM     20  C   UNL     1       2.421   4.109   0.112  0.00  0.00    +0.256 C 
BRANCH  20  21
ATOM     21  O   UNL     1       1.159   3.445   0.009  0.00  0.00    -0.480 OA
BRANCH  21  22
ATOM     22  C   UNL     1       1.176   2.086   0.002  0.00  0.00    +0.122 A 
ATOM     23  C   UNL     1       2.367   1.405   0.204  0.00  0.00    +0.047 A 
ATOM     24  C   UNL     1       2.382   0.024   0.197  0.00  0.00    +0.023 A 
ATOM     25  C   UNL     1       1.209  -0.680  -0.013  0.00  0.00    +0.041 A 
ATOM     26  C   UNL     1       0.020  -0.003  -0.215  0.00  0.00    +0.023 A 
ATOM     27  C   UNL     1       0.001   1.379  -0.209  0.00  0.00    +0.047 A 
ATOM     28 CL   UNL     1       1.230  -2.416  -0.021  0.00  0.00    -0.084 Cl
ENDBRANCH  21  22
ENDBRANCH  20  21
ENDBRANCH  15  20
ENDBRANCH   1  17
BRANCH   7  29
ATOM     29  C   UNL     1       2.453  13.304  -3.864  0.00  0.00    -0.035 C 
ATOM     30  C   UNL     1       1.856  13.959  -2.616  0.00  0.00    +0.011 C 
ATOM     31  C   UNL     1       3.539  14.211  -4.446  0.00  0.00    +0.011 C 
ATOM     32  C   UNL     1       1.352  13.094  -4.905  0.00  0.00    +0.011 C 
ENDBRANCH   7  29
TORSDOF 6
