REMARK  Name = ZINC03134981
REMARK  8 active torsions:
REMARK  status: ('A' for Active; 'I' for Inactive)
REMARK    1  A    between atoms: C_1  and  N_2
REMARK    2  A    between atoms: N_2  and  N_14
REMARK    3  A    between atoms: C_6  and  C_9
REMARK    4  A    between atoms: N_14  and  C_15
REMARK    5  A    between atoms: C_15  and  N_19
REMARK    6  A    between atoms: C_16  and  C_17
REMARK    7  A    between atoms: N_22  and  C_23
REMARK    8  A    between atoms: C_27  and  C_29
REMARK                            x       y       z     vdW  Elec       q    Type
REMARK                         _______ _______ _______ _____ _____    ______ ____
ROOT
ATOM      1  C   UNL     1      -0.464   4.097   8.030  0.00  0.00    +0.118 C 
ATOM      2  C   UNL     1       0.248   4.317   9.170  0.00  0.00    +0.129 C 
ENDROOT
BRANCH   1   3
ATOM      3  N   UNL     1       0.177   3.661   6.889  0.00  0.00    -0.256 N 
ATOM      4  C   UNL     1      -0.539   3.342   5.793  0.00  0.00    +0.309 C 
ATOM      5  O   UNL     1      -1.739   3.533   5.775  0.00  0.00    -0.252 OA
ATOM      6  N   UNL     1       0.075   2.811   4.718  0.00  0.00    -0.269 N 
ATOM      7  H   UNL     1       1.144   3.584   6.876  0.00  0.00    +0.158 HD
ATOM      8  H   UNL     1       1.021   2.596   4.756  0.00  0.00    +0.156 HD
BRANCH   6   9
ATOM      9  C   UNL     1      -0.650   2.569   3.546  0.00  0.00    +0.035 A 
ATOM     10  C   UNL     1      -1.976   2.163   3.620  0.00  0.00    +0.023 A 
ATOM     11  C   UNL     1      -2.690   1.926   2.462  0.00  0.00    +0.002 A 
ATOM     12  C   UNL     1      -2.087   2.097   1.229  0.00  0.00    +0.012 A 
ATOM     13  C   UNL     1      -0.765   2.495   1.152  0.00  0.00    +0.057 A 
ATOM     14  C   UNL     1      -0.046   2.734   2.307  0.00  0.00    +0.035 A 
BRANCH  13  15
ATOM     15  C   UNL     1      -0.110   2.674  -0.194  0.00  0.00    +0.417 C 
ATOM     16  F   UNL     1       0.479   1.468  -0.589  0.00  0.00    -0.166 F 
ATOM     17  F   UNL     1       0.872   3.666  -0.106  0.00  0.00    -0.166 F 
ATOM     18  F   UNL     1      -1.073   3.053  -1.135  0.00  0.00    -0.166 F 
ENDBRANCH  13  15
ENDBRANCH   6   9
ENDBRANCH   1   3
BRANCH   1  19
ATOM     19  N   UNL     1      -1.821   4.310   8.016  0.00  0.00    -0.250 N 
ATOM     20  H   UNL     1      -2.340   4.078   7.229  0.00  0.00    +0.171 HD
BRANCH  19  22
ATOM     21  C   UNL     1      -2.318   6.290   9.428  0.00  0.00    +0.155 C 
ATOM     22  N   UNL     1      -2.455   4.861   9.137  0.00  0.00    -0.238 N 
ATOM     23  C   UNL     1      -3.216   4.051   9.973  0.00  0.00    +0.156 A 
ATOM     24  C   UNL     1      -4.551   3.800   9.665  0.00  0.00    +0.083 A 
ATOM     25  C   UNL     1      -5.294   2.989  10.504  0.00  0.00    +0.037 A 
ATOM     26  C   UNL     1      -4.679   2.462  11.632  0.00  0.00    +0.074 A 
ATOM     27  C   UNL     1      -3.353   2.756  11.879  0.00  0.00    +0.125 A 
ATOM     28  N   UNL     1      -2.667   3.529  11.059  0.00  0.00    -0.237 NA
ATOM     29 CL   UNL     1      -5.270   4.492   8.244  0.00  0.00    -0.080 Cl
BRANCH  26  30
ATOM     30  C   UNL     1      -5.451   1.577  12.577  0.00  0.00    +0.419 C 
ATOM     31  F   UNL     1      -4.618   1.177  13.626  0.00  0.00    -0.166 F 
ATOM     32  F   UNL     1      -6.542   2.285  13.092  0.00  0.00    -0.166 F 
ATOM     33  F   UNL     1      -5.910   0.449  11.889  0.00  0.00    -0.166 F 
ENDBRANCH  26  30
ENDBRANCH  19  22
ENDBRANCH   1  19
BRANCH   2  34
ATOM     34  C   UNL     1       1.662   4.095   9.184  0.00  0.00    +0.095 C 
ATOM     35  N   UNL     1       2.784   3.920   9.196  0.00  0.00    -0.191 NA
ENDBRANCH   2  34
TORSDOF 7
