REMARK  Name = ZINC34778054
REMARK  8 active torsions:
REMARK  status: ('A' for Active; 'I' for Inactive)
REMARK    1  A    between atoms: C_1  and  C_2
REMARK    2  A    between atoms: N_6  and  C_27
REMARK    3  A    between atoms: N_9  and  C_16
REMARK    4  A    between atoms: C_12  and  C_13
REMARK    5  A    between atoms: C_13  and  C_15
REMARK    6  A    between atoms: C_16  and  C_17
REMARK    7  A    between atoms: N_19  and  C_20
REMARK    8  A    between atoms: C_27  and  C_28
REMARK                            x       y       z     vdW  Elec       q    Type
REMARK                         _______ _______ _______ _____ _____    ______ ____
ROOT
ATOM      1  C   UNL     1      -0.001   1.509   0.002  0.00  0.00    +0.046 C 
ATOM      2  C   UNL     1       0.019   0.002  -0.003  0.00  0.00    -0.018 A 
ATOM      3  C   UNL     1       0.014  -0.727  -1.195  0.00  0.00    +0.074 A 
ATOM      4  C   UNL     1      -0.010  -0.218  -2.590  0.00  0.00    +0.266 A 
ATOM      5  O   UNL     1      -0.028   0.979  -2.808  0.00  0.00    -0.267 OA
ATOM      6  N   UNL     1      -0.011  -1.096  -3.608  0.00  0.00    -0.251 N 
ATOM      7  C   UNL     1       0.009  -2.422  -3.398  0.00  0.00    +0.334 A 
ATOM      8  O   UNL     1       0.006  -3.174  -4.354  0.00  0.00    -0.246 OA
ATOM      9  N   UNL     1       0.031  -2.938  -2.156  0.00  0.00    -0.278 N 
ATOM     10  C   UNL     1       0.034  -2.124  -1.060  0.00  0.00    +0.098 A 
ATOM     11  S   UNL     1       0.058  -2.407   0.587  0.00  0.00    -0.067 S 
ATOM     12  C   UNL     1       0.048  -0.724   1.171  0.00  0.00    +0.060 A 
ENDROOT
BRANCH  12  13
ATOM     13  C   UNL     1       0.064  -0.252   2.500  0.00  0.00    +0.167 C 
ATOM     14  O   UNL     1       0.052   0.943   2.720  0.00  0.00    -0.292 OA
ATOM     15  C   UNL     1       0.096  -1.229   3.647  0.00  0.00    +0.092 C 
ENDBRANCH  12  13
BRANCH   9  16
ATOM     16  C   UNL     1       0.051  -4.392  -1.977  0.00  0.00    +0.223 C 
BRANCH  16  17
ATOM     17  C   UNL     1       1.479  -4.872  -1.934  0.00  0.00    +0.237 C 
ATOM     18  O   UNL     1       2.390  -4.079  -2.042  0.00  0.00    -0.274 OA
ATOM     19  N   UNL     1       1.744  -6.184  -1.775  0.00  0.00    -0.284 N 
ATOM     20  H   UNL     1       1.020  -6.811  -1.622  0.00  0.00    +0.155 HD
BRANCH  19  21
ATOM     21  C   UNL     1       3.065  -6.643  -1.832  0.00  0.00    +0.034 A 
ATOM     22  C   UNL     1       3.348  -7.883  -2.390  0.00  0.00    +0.024 A 
ATOM     23  C   UNL     1       4.652  -8.333  -2.445  0.00  0.00    +0.017 A 
ATOM     24  C   UNL     1       5.677  -7.550  -1.944  0.00  0.00    +0.018 A 
ATOM     25  C   UNL     1       5.399  -6.314  -1.387  0.00  0.00    +0.017 A 
ATOM     26  C   UNL     1       4.097  -5.857  -1.335  0.00  0.00    +0.024 A 
ATOM     27 BR   UNL     1       7.462  -8.170  -2.020  0.00  0.00    -0.050 Br
ENDBRANCH  19  21
ENDBRANCH  16  17
ENDBRANCH   9  16
BRANCH   6  28
ATOM     28  C   UNL     1      -0.035  -0.592  -4.983  0.00  0.00    +0.225 C 
BRANCH  28  29
ATOM     29  C   UNL     1       1.378  -0.400  -5.472  0.00  0.00    +0.231 C 
ATOM     30  O   UNL     1       2.312  -0.659  -4.744  0.00  0.00    -0.274 OA
ATOM     31  N   UNL     1       1.603   0.059  -6.719  0.00  0.00    -0.328 N 
ATOM     32  H   UNL     1       0.855   0.266  -7.302  0.00  0.00    +0.145 HD
ATOM     33  H   UNL     1       2.512   0.182  -7.034  0.00  0.00    +0.145 HD
ENDBRANCH  28  29
ENDBRANCH   6  28
TORSDOF 6
