REMARK  Name = ZINC39362313
REMARK  9 active torsions:
REMARK  status: ('A' for Active; 'I' for Inactive)
REMARK    1  A    between atoms: C_1  and  O_2
REMARK    2  A    between atoms: O_2  and  C_3
REMARK    3  A    between atoms: C_6  and  N_9
REMARK    4  A    between atoms: C_10  and  C_27
REMARK    5  A    between atoms: C_14  and  S_15
REMARK    6  A    between atoms: S_15  and  C_16
REMARK    7  A    between atoms: C_16  and  C_17
REMARK    8  A    between atoms: N_19  and  C_20
REMARK    9  A    between atoms: C_27  and  C_28
REMARK                            x       y       z     vdW  Elec       q    Type
REMARK                         _______ _______ _______ _____ _____    ______ ____
ROOT
ATOM      1  N   UNL     1       2.487  -2.456  -4.288  0.00  0.00    -0.258 N 
ATOM      2  C   UNL     1       2.715  -3.900  -4.466  0.00  0.00    +0.187 C 
ATOM      3  N   UNL     1       3.396  -3.993  -5.769  0.00  0.00    -0.246 N 
ATOM      4  N   UNL     1       3.516  -2.680  -6.240  0.00  0.00    -0.162 NA
ATOM      5  C   UNL     1       3.003  -1.832  -5.414  0.00  0.00    +0.180 C 
ATOM      6  H   UNL     1       3.701  -4.801  -6.211  0.00  0.00    +0.170 HD
ENDROOT
BRANCH   1  10
ATOM      7  C   UNL     1       0.634  -0.607  -1.043  0.00  0.00    +0.120 A 
ATOM      8  C   UNL     1       1.975  -0.367  -1.305  0.00  0.00    +0.047 A 
ATOM      9  C   UNL     1       2.590  -0.979  -2.379  0.00  0.00    +0.027 A 
ATOM     10  C   UNL     1       1.865  -1.835  -3.198  0.00  0.00    +0.038 A 
ATOM     11  C   UNL     1       0.522  -2.075  -2.935  0.00  0.00    +0.027 A 
ATOM     12  C   UNL     1      -0.089  -1.466  -1.857  0.00  0.00    +0.047 A 
BRANCH   7  14
ATOM     13  C   UNL     1       0.835   0.869   0.811  0.00  0.00    +0.277 C 
ATOM     14  O   UNL     1       0.030  -0.004   0.015  0.00  0.00    -0.495 OA
ENDBRANCH   7  14
ENDBRANCH   1  10
BRANCH   5  15
ATOM     15  S   UNL     1       2.968  -0.090  -5.681  0.00  0.00    -0.079 S 
BRANCH  15  16
ATOM     16  C   UNL     1       3.775   0.123  -7.292  0.00  0.00    +0.173 C 
BRANCH  16  17
ATOM     17  C   UNL     1       3.811   1.587  -7.645  0.00  0.00    +0.227 C 
ATOM     18  O   UNL     1       3.340   2.407  -6.885  0.00  0.00    -0.275 OA
ATOM     19  N   UNL     1       4.368   1.987  -8.806  0.00  0.00    -0.285 N 
ATOM     20  H   UNL     1       4.675   1.328  -9.448  0.00  0.00    +0.155 HD
BRANCH  19  21
ATOM     21  C   UNL     1       4.503   3.353  -9.084  0.00  0.00    +0.034 A 
ATOM     22  C   UNL     1       4.362   3.814 -10.386  0.00  0.00    +0.026 A 
ATOM     23  C   UNL     1       4.496   5.162 -10.658  0.00  0.00    +0.040 A 
ATOM     24  C   UNL     1       4.771   6.052  -9.634  0.00  0.00    +0.124 A 
ATOM     25  C   UNL     1       4.912   5.593  -8.335  0.00  0.00    +0.040 A 
ATOM     26  C   UNL     1       4.773   4.248  -8.057  0.00  0.00    +0.026 A 
ATOM     27  F   UNL     1       4.902   7.369  -9.902  0.00  0.00    -0.205 F 
ENDBRANCH  19  21
ENDBRANCH  16  17
ENDBRANCH  15  16
ENDBRANCH   5  15
BRANCH   2  28
ATOM     28  C   UNL     1       3.608  -4.444  -3.349  0.00  0.00    +0.097 C 
BRANCH  28  29
ATOM     29  C   UNL     1       3.826  -5.921  -3.555  0.00  0.00    +0.029 A 
ATOM     30  N   UNL     1       2.909  -6.823  -3.087  0.00  0.00    -0.311 N 
ATOM     31  C   UNL     1       3.093  -8.143  -3.266  0.00  0.00    +0.327 A 
ATOM     32  O   UNL     1       2.266  -8.927  -2.842  0.00  0.00    -0.247 OA
ATOM     33  N   UNL     1       4.181  -8.609  -3.908  0.00  0.00    -0.275 N 
ATOM     34  C   UNL     1       5.108  -7.753  -4.384  0.00  0.00    +0.254 A 
ATOM     35  O   UNL     1       6.092  -8.174  -4.965  0.00  0.00    -0.268 OA
ATOM     36  C   UNL     1       4.923  -6.361  -4.207  0.00  0.00    +0.091 A 
ATOM     37  H   UNL     1       4.298  -9.565  -4.028  0.00  0.00    +0.173 HD
ATOM     38  H   UNL     1       2.118  -6.507  -2.622  0.00  0.00    +0.170 HD
ENDBRANCH  28  29
ENDBRANCH   2  28
TORSDOF 8
