REMARK  Name = ZINC39465324
REMARK  1 active torsions:
REMARK  status: ('A' for Active; 'I' for Inactive)
REMARK    1  A    between atoms: C_6  and  O_7
REMARK                            x       y       z     vdW  Elec       q    Type
REMARK                         _______ _______ _______ _____ _____    ______ ____
ROOT
ATOM      1  C   UNL     1      -0.017   1.381   0.010  0.00  0.00    +0.050 A 
ATOM      2  C   UNL     1       1.170   2.096   0.002  0.00  0.00    -0.038 A 
ATOM      3  C   UNL     1       2.377   1.430  -0.012  0.00  0.00    -0.022 A 
ATOM      4  C   UNL     1       2.397   0.042  -0.019  0.00  0.00    +0.024 A 
ATOM      5  C   UNL     1       1.218  -0.674  -0.013  0.00  0.00    +0.060 A 
ATOM      6  C   UNL     1       0.002  -0.004   0.002  0.00  0.00    +0.131 A 
ATOM      7 BR   UNL     1       1.257  -2.565  -0.023  0.00  0.00    -0.047 Br
ATOM      8  C   UNL     1       3.694   2.161  -0.017  0.00  0.00    +0.130 C 
ATOM      9  C   UNL     1       4.642   1.475  -1.005  0.00  0.00    +0.196 C 
ATOM     10  O   UNL     1       5.935   2.106  -0.917  0.00  0.00    -0.292 OA
ATOM     11  P   UNL     1       6.009   3.728  -1.004  0.00  0.00    +0.448 P 
ATOM     12  O   UNL     1       7.304   4.240  -0.335  0.00  0.00    -0.236 OA
ATOM     13  N   UNL     1       4.685   4.279  -0.181  0.00  0.00    -0.154 NA
ATOM     14  N   UNL     1       3.517   3.568  -0.374  0.00  0.00    -0.224 NA
ATOM     15  C   UNL     1       2.443   4.181   0.422  0.00  0.00    +0.108 C 
ATOM     16  C   UNL     1       1.103   3.602   0.008  0.00  0.00    +0.052 C 
ATOM     17  O   UNL     1       5.953   4.187  -2.478  0.00  0.00    -0.126 OA
ATOM     18  H   UNL     1       4.730   5.059   0.394  0.00  0.00    +0.153 HD
ENDROOT
BRANCH   6  19
ATOM     19  O   UNL     1      -1.163  -0.703   0.009  0.00  0.00    -0.506 OA
ATOM     20  H   UNL     1      -1.509  -0.901  -0.872  0.00  0.00    +0.292 HD
ENDBRANCH   6  19
TORSDOF 1
