REMARK  Name = ZINC09335480
REMARK  11 active torsions:
REMARK  status: ('A' for Active; 'I' for Inactive)
REMARK    1  A    between atoms: C_1  and  C_2
REMARK    2  A    between atoms: C_2  and  C_31
REMARK    3  A    between atoms: C_4  and  N_5
REMARK    4  A    between atoms: N_5  and  N_6
REMARK    5  A    between atoms: C_7  and  C_9
REMARK    6  A    between atoms: C_13  and  S_15
REMARK    7  A    between atoms: S_15  and  N_18
REMARK    8  A    between atoms: N_18  and  C_19
REMARK    9  A    between atoms: C_24  and  O_25
REMARK   10  A    between atoms: O_25  and  C_26
REMARK   11  A    between atoms: C_28  and  O_29
REMARK                            x       y       z     vdW  Elec       q    Type
REMARK                         _______ _______ _______ _____ _____    ______ ____
ROOT
ATOM      1  C   UNL     1       1.990  -2.393  -5.835  0.00  0.00    +0.040 A 
ATOM      2  C   UNL     1       0.599  -2.321  -5.747  0.00  0.00    +0.013 A 
ATOM      3  C   UNL     1      -0.175  -2.623  -6.848  0.00  0.00    +0.003 A 
ATOM      4  C   UNL     1       0.424  -2.997  -8.037  0.00  0.00    +0.029 A 
ATOM      5  C   UNL     1       1.802  -3.071  -8.131  0.00  0.00    +0.109 A 
ATOM      6  C   UNL     1       2.588  -2.765  -7.040  0.00  0.00    +0.042 A 
ENDROOT
BRANCH   1   8
ATOM      7  N   UNL     1       2.245  -1.710  -3.498  0.00  0.00    -0.232 N 
ATOM      8  C   UNL     1       2.826  -2.070  -4.659  0.00  0.00    +0.260 C 
ATOM      9  O   UNL     1       4.038  -2.128  -4.740  0.00  0.00    -0.269 OA
ATOM     10  H   UNL     1       1.279  -1.663  -3.433  0.00  0.00    +0.173 HD
BRANCH   7  11
ATOM     11  N   UNL     1       3.038  -1.404  -2.384  0.00  0.00    -0.264 N 
ATOM     12  H   UNL     1       4.004  -1.451  -2.448  0.00  0.00    +0.170 HD
BRANCH  11  16
ATOM     13  C   UNL     1       0.385   0.966   0.289  0.00  0.00    +0.016 C 
ATOM     14  C   UNL     1       0.455  -0.561   0.211  0.00  0.00    -0.008 C 
ATOM     15  C   UNL     1       1.103  -0.966  -1.087  0.00  0.00    +0.004 C 
ATOM     16  C   UNL     1       2.436  -1.032  -1.180  0.00  0.00    +0.044 C 
ATOM     17  C   UNL     1       3.265  -0.708  -0.006  0.00  0.00    +0.065 C 
ATOM     18  C   UNL     1       2.722  -0.733   1.214  0.00  0.00    +0.097 C 
ATOM     19  C   UNL     1       1.270  -1.092   1.389  0.00  0.00    +0.084 C 
ATOM     20  C   UNL     1      -0.961  -1.137   0.272  0.00  0.00    +0.016 C 
BRANCH  18  21
ATOM     21  O   UNL     1       3.479  -0.434   2.296  0.00  0.00    -0.511 OA
ATOM     22  H   UNL     1       4.397  -0.216   2.086  0.00  0.00    +0.292 HD
ENDBRANCH  18  21
ENDBRANCH  11  16
ENDBRANCH   7  11
ENDBRANCH   1   8
BRANCH   5  23
ATOM     23  S   UNL     1       2.555  -3.550  -9.651  0.00  0.00    +0.072 S 
ATOM     24  O   UNL     1       3.837  -4.069  -9.323  0.00  0.00    -0.150 OA
ATOM     25  O   UNL     1       1.586  -4.306 -10.364  0.00  0.00    -0.150 OA
BRANCH  23  26
ATOM     26  N   UNL     1       2.815  -2.168 -10.525  0.00  0.00    -0.213 N 
ATOM     27  H   UNL     1       2.395  -2.057 -11.393  0.00  0.00    +0.174 HD
BRANCH  26  28
ATOM     28  C   UNL     1       3.640  -1.160 -10.013  0.00  0.00    +0.090 A 
ATOM     29  C   UNL     1       4.758  -1.491  -9.262  0.00  0.00    +0.028 A 
ATOM     30  C   UNL     1       5.572  -0.494  -8.758  0.00  0.00    +0.002 A 
ATOM     31  C   UNL     1       5.274   0.834  -9.000  0.00  0.00    +0.004 A 
ATOM     32  C   UNL     1       4.161   1.172  -9.748  0.00  0.00    +0.047 A 
ATOM     33  C   UNL     1       3.344   0.178 -10.261  0.00  0.00    +0.142 A 
BRANCH  33  34
ATOM     34  O   UNL     1       2.252   0.509 -11.001  0.00  0.00    -0.493 OA
ATOM     35  C   UNL     1       2.010   1.901 -11.215  0.00  0.00    +0.277 C 
ENDBRANCH  33  34
ENDBRANCH  26  28
ENDBRANCH  23  26
ENDBRANCH   5  23
TORSDOF 8
