REMARK  Name = ZINC66812787
REMARK  6 active torsions:
REMARK  status: ('A' for Active; 'I' for Inactive)
REMARK    1  A    between atoms: C_6  and  O_7
REMARK    2  A    between atoms: O_7  and  C_8
REMARK    3  A    between atoms: C_8  and  C_9
REMARK    4  A    between atoms: C_9  and  C_11
REMARK    5  A    between atoms: C_9  and  O_20
REMARK    6  A    between atoms: C_11  and  N_12
REMARK                            x       y       z     vdW  Elec       q    Type
REMARK                         _______ _______ _______ _____ _____    ______ ____
ROOT
ATOM      1  C   UNL     1      -2.475  -2.732   0.012  0.00  0.00    +0.169 C 
ENDROOT
BRANCH   1   2
ATOM      2  O   UNL     1      -3.125  -2.404   1.241  0.00  0.00    -0.387 OA
ATOM      3  H   UNL     1      -2.668  -2.731   2.028  0.00  0.00    +0.210 HD
ENDBRANCH   1   2
BRANCH   1   4
ATOM      4  C   UNL     1      -1.070  -2.126   0.001  0.00  0.00    +0.261 C 
BRANCH   4   5
ATOM      5  O   UNL     1      -1.165  -0.701   0.010  0.00  0.00    -0.489 OA
BRANCH   5  11
ATOM      6  C   UNL     1      -0.017   1.383   0.010  0.00  0.00    +0.046 A 
ATOM      7  C   UNL     1       1.171   2.089   0.002  0.00  0.00    +0.018 A 
ATOM      8  C   UNL     1       2.378   1.414  -0.013  0.00  0.00    +0.014 A 
ATOM      9  C   UNL     1       2.399   0.031  -0.021  0.00  0.00    +0.018 A 
ATOM     10  C   UNL     1       1.214  -0.679  -0.014  0.00  0.00    +0.046 A 
ATOM     11  C   UNL     1       0.002  -0.004   0.002  0.00  0.00    +0.121 A 
ATOM     12  I   UNL     1       4.177   2.487  -0.025  0.00  0.00    -0.044 I 
ENDBRANCH   5  11
ENDBRANCH   4   5
ENDBRANCH   1   4
BRANCH   1  13
ATOM     13  C   UNL     1      -2.376  -4.252  -0.123  0.00  0.00    +0.137 C 
BRANCH  13  14
ATOM     14  N   UNL     1      -3.722  -4.821  -0.233  0.00  0.00    -0.324 N 
ATOM     15  C   UNL     1      -3.887  -6.197  -0.366  0.00  0.00    +0.159 A 
ATOM     16  C   UNL     1      -5.173  -6.744  -0.477  0.00  0.00    +0.156 A 
ATOM     17  N   UNL     1      -5.321  -8.053  -0.603  0.00  0.00    -0.236 NA
ATOM     18  C   UNL     1      -4.256  -8.841  -0.623  0.00  0.00    +0.132 A 
ATOM     19  C   UNL     1      -2.991  -8.303  -0.514  0.00  0.00    +0.132 A 
ATOM     20  N   UNL     1      -2.830  -6.994  -0.393  0.00  0.00    -0.236 NA
ATOM     21  N   UNL     1      -6.290  -5.914  -0.454  0.00  0.00    -0.340 N 
ATOM     22  H   UNL     1      -4.497  -4.239  -0.213  0.00  0.00    +0.148 HD
ATOM     23  H   UNL     1      -6.180  -4.954  -0.361  0.00  0.00    +0.144 HD
ATOM     24  H   UNL     1      -7.179  -6.294  -0.531  0.00  0.00    +0.144 HD
ENDBRANCH  13  14
ENDBRANCH   1  13
TORSDOF 6
