REMARK  Name = ZINC50184000
REMARK  3 active torsions:
REMARK  status: ('A' for Active; 'I' for Inactive)
REMARK    1  A    between atoms: C_7  and  C_19
REMARK    2  A    between atoms: N_11  and  C_12
REMARK    3  A    between atoms: C_12  and  C_13
REMARK                            x       y       z     vdW  Elec       q    Type
REMARK                         _______ _______ _______ _____ _____    ______ ____
ROOT
ATOM      1  C   UNL     1      -0.017   1.362  -0.048  0.00  0.00    +0.001 A 
ATOM      2  C   UNL     1       1.170   2.083  -0.055  0.00  0.00    +0.002 A 
ATOM      3  C   UNL     1       2.385   1.435  -0.051  0.00  0.00    +0.026 A 
ATOM      4  C   UNL     1       2.428   0.043  -0.040  0.00  0.00    +0.053 A 
ATOM      5  C   UNL     1       1.224  -0.683  -0.033  0.00  0.00    +0.013 A 
ATOM      6  C   UNL     1       0.002  -0.004  -0.037  0.00  0.00    +0.011 A 
ATOM      7  C   UNL     1       1.266  -2.154  -0.021  0.00  0.00    +0.077 A 
ATOM      8  C   UNL     1       2.483  -2.772  -0.018  0.00  0.00    +0.086 A 
ATOM      9  C   UNL     1       3.701  -1.960  -0.026  0.00  0.00    +0.253 A 
ATOM     10  O   UNL     1       4.788  -2.510  -0.023  0.00  0.00    -0.268 OA
ATOM     11  N   UNL     1       3.638  -0.618  -0.037  0.00  0.00    -0.303 N 
ENDROOT
BRANCH   7  12
ATOM     12  C   UNL     1       0.014  -2.947  -0.013  0.00  0.00    +0.387 C 
ATOM     13  O   UNL     1       0.061  -4.164  -0.112  0.00  0.00    -0.241 OA
ATOM     14  O   UNL     1      -1.065  -2.384   0.092  0.00  0.00    -0.241 OA
ENDBRANCH   7  12
BRANCH  11  15
ATOM     15  C   UNL     1       4.880   0.160  -0.045  0.00  0.00    +0.167 C 
BRANCH  15  16
ATOM     16  C   UNL     1       5.308   0.437   1.373  0.00  0.00    +0.011 A 
ATOM     17  C   UNL     1       6.113  -0.295   2.180  0.00  0.00    +0.014 A 
ATOM     18  C   UNL     1       6.371   0.158   3.461  0.00  0.00    +0.023 A 
ATOM     19  C   UNL     1       5.811   1.323   3.870  0.00  0.00    +0.055 A 
ATOM     20  S   UNL     1       4.892   1.820   2.423  0.00  0.00    -0.085 S 
ATOM     21 BR   UNL     1       5.968   2.198   5.539  0.00  0.00    -0.043 Br
ENDBRANCH  15  16
ENDBRANCH  11  15
TORSDOF 3
