REMARK  Name = ZINC36537841
REMARK  13 active torsions:
REMARK  status: ('A' for Active; 'I' for Inactive)
REMARK    1  A    between atoms: C_1  and  C_2
REMARK    2  A    between atoms: C_5  and  S_8
REMARK    3  A    between atoms: S_8  and  C_11
REMARK    4  A    between atoms: C_11  and  N_12
REMARK    5  A    between atoms: C_13  and  C_15
REMARK    6  A    between atoms: C_15  and  C_17
REMARK    7  A    between atoms: C_15  and  N_26
REMARK    8  A    between atoms: C_18  and  O_25
REMARK    9  A    between atoms: C_20  and  O_24
REMARK   10  A    between atoms: C_22  and  O_23
REMARK   11  A    between atoms: N_26  and  C_27
REMARK   12  A    between atoms: C_28  and  C_30
REMARK   13  A    between atoms: C_30  and  C_32
REMARK                            x       y       z     vdW  Elec       q    Type
REMARK                         _______ _______ _______ _____ _____    ______ ____
ROOT
ATOM      1  C   UNL     1       2.545  -4.234   3.688  0.00  0.00    +0.199 C 
ENDROOT
BRANCH   1   2
ATOM      2  C   UNL     1       3.359  -5.434   3.277  0.00  0.00    +0.065 A 
ATOM      3  C   UNL     1       2.776  -6.691   3.253  0.00  0.00    +0.129 A 
ATOM      4  C   UNL     1       3.525  -7.796   2.875  0.00  0.00    +0.091 A 
ATOM      5  C   UNL     1       4.857  -7.642   2.522  0.00  0.00    +0.124 A 
ATOM      6  C   UNL     1       5.440  -6.384   2.546  0.00  0.00    +0.091 A 
ATOM      7  C   UNL     1       4.690  -5.279   2.919  0.00  0.00    +0.129 A 
BRANCH   7   8
ATOM      8  O   UNL     1       5.260  -4.046   2.938  0.00  0.00    -0.506 OA
ATOM      9  H   UNL     1       5.729  -3.842   3.759  0.00  0.00    +0.292 HD
ENDBRANCH   7   8
BRANCH   5  10
ATOM     10  O   UNL     1       5.592  -8.724   2.153  0.00  0.00    -0.507 OA
ATOM     11  H   UNL     1       5.567  -8.912   1.205  0.00  0.00    +0.292 HD
ENDBRANCH   5  10
BRANCH   3  12
ATOM     12  O   UNL     1       1.470  -6.842   3.599  0.00  0.00    -0.506 OA
ATOM     13  H   UNL     1       0.851  -6.688   2.872  0.00  0.00    +0.292 HD
ENDBRANCH   3  12
ENDBRANCH   1   2
BRANCH   1  15
ATOM     14  N   UNL     1       2.161  -2.523   1.942  0.00  0.00    -0.294 N 
ATOM     15  C   UNL     1       1.800  -3.700   2.492  0.00  0.00    +0.240 C 
ATOM     16  O   UNL     1       0.875  -4.329   2.024  0.00  0.00    -0.273 OA
ATOM     17  H   UNL     1       2.901  -2.020   2.317  0.00  0.00    +0.150 HD
BRANCH  14  18
ATOM     18  C   UNL     1       1.436  -2.004   0.780  0.00  0.00    +0.278 C 
BRANCH  18  19
ATOM     19  S   UNL     1       0.147  -0.855   1.335  0.00  0.00    +0.013 S 
ATOM     20  O   UNL     1      -0.588  -1.426   2.408  0.00  0.00    -0.168 OA
ATOM     21  O   UNL     1      -0.524  -0.294   0.214  0.00  0.00    -0.168 OA
BRANCH  19  26
ATOM     22  C   UNL     1       3.141   3.764   3.805  0.00  0.00    +0.044 C 
ATOM     23  C   UNL     1       2.393   2.611   3.188  0.00  0.00    -0.050 A 
ATOM     24  C   UNL     1       2.082   2.629   1.841  0.00  0.00    +0.005 A 
ATOM     25  C   UNL     1       1.397   1.571   1.275  0.00  0.00    +0.027 A 
ATOM     26  C   UNL     1       1.022   0.493   2.056  0.00  0.00    +0.090 A 
ATOM     27  C   UNL     1       1.334   0.474   3.402  0.00  0.00    +0.027 A 
ATOM     28  C   UNL     1       2.023   1.531   3.967  0.00  0.00    +0.005 A 
ENDBRANCH  19  26
ENDBRANCH  18  19
ENDBRANCH  14  18
ENDBRANCH   1  15
BRANCH   1  29
ATOM     29  N   UNL     1       1.588  -4.624   4.725  0.00  0.00    -0.285 N 
ATOM     30  C   UNL     1       0.149  -4.531   4.467  0.00  0.00    +0.133 C 
ATOM     31  C   UNL     1       2.031  -5.070   5.918  0.00  0.00    +0.242 C 
ATOM     32  O   UNL     1       1.298  -5.726   6.633  0.00  0.00    -0.270 OA
BRANCH  31  33
ATOM     33  C   UNL     1       3.402  -4.763   6.354  0.00  0.00    +0.004 C 
ATOM     34  C   UNL     1       3.903  -5.352   7.436  0.00  0.00    +0.017 C 
ATOM     35  C   UNL     1       4.238  -3.780   5.576  0.00  0.00    +0.048 C 
ENDBRANCH  31  33
ENDBRANCH   1  29
TORSDOF 10
