REMARK  Name = ZINC04096947
REMARK  7 active torsions:
REMARK  status: ('A' for Active; 'I' for Inactive)
REMARK    1  A    between atoms: C_2  and  C_10
REMARK    2  A    between atoms: C_4  and  O_9
REMARK    3  A    between atoms: C_5  and  O_8
REMARK    4  A    between atoms: C_6  and  O_7
REMARK    5  A    between atoms: C_12  and  O_25
REMARK    6  A    between atoms: C_17  and  O_24
REMARK    7  A    between atoms: C_19  and  O_23
REMARK                            x       y       z     vdW  Elec       q    Type
REMARK                         _______ _______ _______ _____ _____    ______ ____
ROOT
ATOM      1  C   UNL     1       1.145   3.598   0.011  0.00  0.00    +0.240 C 
ATOM      2  C   UNL     1       1.402   4.107   1.436  0.00  0.00    +0.230 C 
ATOM      3  C   UNL     1       1.401   5.624   1.379  0.00  0.00    +0.202 C 
ATOM      4  O   UNL     1       0.884   6.295   2.248  0.00  0.00    -0.289 OA
ATOM      5  C   UNL     1       2.056   6.238   0.219  0.00  0.00    +0.103 A 
ATOM      6  C   UNL     1       2.332   7.615   0.197  0.00  0.00    +0.134 A 
ATOM      7  C   UNL     1       2.940   8.170  -0.914  0.00  0.00    +0.091 A 
ATOM      8  C   UNL     1       3.276   7.368  -1.998  0.00  0.00    +0.124 A 
ATOM      9  C   UNL     1       3.011   6.005  -1.980  0.00  0.00    +0.092 A 
ATOM     10  C   UNL     1       2.405   5.428  -0.877  0.00  0.00    +0.139 A 
ATOM     11  O   UNL     1       2.160   4.097  -0.861  0.00  0.00    -0.480 OA
ENDROOT
BRANCH   1  13
ATOM     12  C   UNL     1      -0.017   1.382   0.010  0.00  0.00    +0.056 A 
ATOM     13  C   UNL     1       1.170   2.092   0.002  0.00  0.00    +0.003 A 
ATOM     14  C   UNL     1       2.379   1.423  -0.013  0.00  0.00    +0.056 A 
ATOM     15  C   UNL     1       2.407   0.036  -0.022  0.00  0.00    +0.162 A 
ATOM     16  C   UNL     1       1.216  -0.681  -0.014  0.00  0.00    +0.201 A 
ATOM     17  C   UNL     1       0.002  -0.004   0.002  0.00  0.00    +0.162 A 
BRANCH  17  18
ATOM     18  O   UNL     1      -1.166  -0.701   0.010  0.00  0.00    -0.503 OA
ATOM     19  H   UNL     1      -1.512  -0.898  -0.871  0.00  0.00    +0.292 HD
ENDBRANCH  17  18
BRANCH  16  20
ATOM     20  O   UNL     1       1.239  -2.041  -0.022  0.00  0.00    -0.501 OA
ATOM     21  H   UNL     1       1.254  -2.440   0.859  0.00  0.00    +0.292 HD
ENDBRANCH  16  20
BRANCH  15  22
ATOM     22  O   UNL     1       3.597  -0.621  -0.038  0.00  0.00    -0.503 OA
ATOM     23  H   UNL     1       3.951  -0.816   0.841  0.00  0.00    +0.292 HD
ENDBRANCH  15  22
ENDBRANCH   1  13
BRANCH   8  24
ATOM     24  O   UNL     1       3.869   7.922  -3.085  0.00  0.00    -0.507 OA
ATOM     25  H   UNL     1       4.835   7.934  -3.044  0.00  0.00    +0.292 HD
ENDBRANCH   8  24
BRANCH   6  26
ATOM     26  O   UNL     1       2.004   8.394   1.258  0.00  0.00    -0.506 OA
ATOM     27  H   UNL     1       2.702   8.467   1.923  0.00  0.00    +0.292 HD
ENDBRANCH   6  26
BRANCH   2  28
ATOM     28  O   UNL     1       2.670   3.638   1.899  0.00  0.00    -0.380 OA
ATOM     29  H   UNL     1       2.893   3.925   2.795  0.00  0.00    +0.211 HD
ENDBRANCH   2  28
TORSDOF 7
