REMARK  Name = ZINC45695601
REMARK  6 active torsions:
REMARK  status: ('A' for Active; 'I' for Inactive)
REMARK    1  A    between atoms: C_4  and  S_23
REMARK    2  A    between atoms: C_5  and  N_7
REMARK    3  A    between atoms: N_10  and  C_11
REMARK    4  A    between atoms: C_16  and  C_19
REMARK    5  A    between atoms: S_23  and  C_24
REMARK    6  A    between atoms: C_24  and  C_25
REMARK                            x       y       z     vdW  Elec       q    Type
REMARK                         _______ _______ _______ _____ _____    ______ ____
ROOT
ATOM      1  N   UNL     1       1.233  -2.083  -0.021  0.00  0.00    -0.268 N 
ATOM      2  C   UNL     1       0.082  -2.775   0.088  0.00  0.00    +0.304 C 
ATOM      3  O   UNL     1      -0.982  -2.186   0.102  0.00  0.00    -0.253 OA
ATOM      4  N   UNL     1       0.110  -4.119   0.181  0.00  0.00    -0.296 N 
ATOM      5  H   UNL     1       2.077  -2.555  -0.098  0.00  0.00    +0.156 HD
ATOM      6  H   UNL     1       0.958  -4.588   0.170  0.00  0.00    +0.151 HD
ENDROOT
BRANCH   1  11
ATOM      7  C   UNL     1       0.135   1.379  -0.616  0.00  0.00    +0.002 A 
ATOM      8  C   UNL     1       1.166   2.090  -0.031  0.00  0.00    +0.001 A 
ATOM      9  C   UNL     1       2.223   1.424   0.559  0.00  0.00    +0.016 A 
ATOM     10  C   UNL     1       2.251   0.036   0.566  0.00  0.00    +0.030 A 
ATOM     11  C   UNL     1       1.211  -0.681  -0.024  0.00  0.00    +0.048 A 
ATOM     12  C   UNL     1       0.155  -0.004  -0.614  0.00  0.00    +0.024 A 
BRANCH  10  13
ATOM     13  S   UNL     1       3.598  -0.817   1.318  0.00  0.00    -0.114 S 
BRANCH  13  14
ATOM     14  C   UNL     1       4.671   0.511   1.930  0.00  0.00    +0.169 C 
BRANCH  14  15
ATOM     15  C   UNL     1       5.878  -0.089   2.605  0.00  0.00    +0.221 C 
ATOM     16  O   UNL     1       6.001  -1.294   2.666  0.00  0.00    -0.275 OA
ATOM     17  N   UNL     1       6.819   0.713   3.140  0.00  0.00    -0.329 N 
ATOM     18  H   UNL     1       6.721   1.676   3.091  0.00  0.00    +0.145 HD
ATOM     19  H   UNL     1       7.596   0.326   3.574  0.00  0.00    +0.145 HD
ENDBRANCH  14  15
ENDBRANCH  13  14
ENDBRANCH  10  13
ENDBRANCH   1  11
BRANCH   4  20
ATOM     20  C   UNL     1      -1.142  -4.871   0.300  0.00  0.00    +0.075 C 
ATOM     21  C   UNL     1      -1.568  -4.924   1.768  0.00  0.00    +0.022 C 
ATOM     22  C   UNL     1      -2.875  -5.710   1.892  0.00  0.00    +0.002 C 
ATOM     23  C   UNL     1      -2.666  -7.133   1.370  0.00  0.00    +0.012 C 
ATOM     24  C   UNL     1      -2.240  -7.080  -0.099  0.00  0.00    +0.095 C 
ATOM     25  C   UNL     1      -0.933  -6.294  -0.223  0.00  0.00    +0.034 C 
BRANCH  24  26
ATOM     26  C   UNL     1      -2.032  -8.502  -0.621  0.00  0.00    +0.393 C 
ATOM     27  F   UNL     1      -3.227  -9.221  -0.508  0.00  0.00    -0.170 F 
ATOM     28  F   UNL     1      -1.642  -8.454  -1.964  0.00  0.00    -0.170 F 
ATOM     29  F   UNL     1      -1.035  -9.134   0.131  0.00  0.00    -0.170 F 
ENDBRANCH  24  26
ENDBRANCH   4  20
TORSDOF 6
