REMARK  Name = ZINC66135783
REMARK  10 active torsions:
REMARK  status: ('A' for Active; 'I' for Inactive)
REMARK    1  A    between atoms: C_1  and  C_2
REMARK    2  A    between atoms: C_2  and  C_3
REMARK    3  A    between atoms: C_3  and  C_4
REMARK    4  A    between atoms: C_4  and  C_5
REMARK    5  A    between atoms: C_5  and  C_6
REMARK    6  A    between atoms: C_6  and  O_7
REMARK    7  A    between atoms: O_7  and  C_8
REMARK    8  A    between atoms: C_11  and  C_15
REMARK    9  A    between atoms: C_16  and  C_23
REMARK   10  A    between atoms: C_17  and  C_22
REMARK                            x       y       z     vdW  Elec       q    Type
REMARK                         _______ _______ _______ _____ _____    ______ ____
ROOT
ATOM      1  C   UNL     1       2.696 -10.100  -4.169  0.00  0.00    +0.088 A 
ATOM      2  C   UNL     1       3.731 -10.627  -4.974  0.00  0.00    +0.083 A 
ATOM      3  C   UNL     1       3.671 -11.982  -5.322  0.00  0.00    +0.056 A 
ATOM      4  N   UNL     1       2.660 -12.712  -4.888  0.00  0.00    -0.219 NA
ATOM      5  C   UNL     1       1.705 -12.183  -4.133  0.00  0.00    +0.213 A 
ATOM      6  N   UNL     1       1.719 -10.909  -3.773  0.00  0.00    -0.214 NA
ATOM      7  N   UNL     1       0.669 -12.988  -3.706  0.00  0.00    -0.327 N 
ATOM      8  C   UNL     1       4.747 -12.598  -6.178  0.00  0.00    +0.066 C 
ATOM      9  H   UNL     1       0.646 -13.924  -3.958  0.00  0.00    +0.145 HD
ATOM     10  H   UNL     1      -0.037 -12.617  -3.154  0.00  0.00    +0.145 HD
ENDROOT
BRANCH   1  14
ATOM     11  C   UNL     1       2.721  -6.008  -3.020  0.00  0.00    +0.134 A 
ATOM     12  C   UNL     1       2.404  -6.988  -2.088  0.00  0.00    +0.047 A 
ATOM     13  C   UNL     1       2.395  -8.315  -2.457  0.00  0.00    +0.014 A 
ATOM     14  C   UNL     1       2.705  -8.675  -3.770  0.00  0.00    +0.003 A 
ATOM     15  C   UNL     1       3.023  -7.689  -4.704  0.00  0.00    +0.029 A 
ATOM     16  C   UNL     1       3.024  -6.362  -4.330  0.00  0.00    +0.060 A 
ATOM     17 BR   UNL     1       3.447  -5.023  -5.596  0.00  0.00    -0.046 Br
BRANCH  11  18
ATOM     18  O   UNL     1       2.729  -4.700  -2.653  0.00  0.00    -0.491 OA
BRANCH  18  19
ATOM     19  C   UNL     1       2.408  -4.407  -1.292  0.00  0.00    +0.229 C 
BRANCH  19  20
ATOM     20  C   UNL     1       2.468  -2.895  -1.068  0.00  0.00    +0.041 C 
BRANCH  20  21
ATOM     21  C   UNL     1       2.124  -2.581   0.389  0.00  0.00    +0.003 C 
BRANCH  21  22
ATOM     22  C   UNL     1       2.184  -1.068   0.613  0.00  0.00    -0.000 C 
BRANCH  22  24
ATOM     23  C   UNL     1       1.900   0.758   2.294  0.00  0.00    +0.004 C 
ATOM     24  C   UNL     1       1.840  -0.754   2.071  0.00  0.00    -0.003 C 
ENDBRANCH  22  24
ENDBRANCH  21  22
ENDBRANCH  20  21
ENDBRANCH  19  20
ENDBRANCH  18  19
ENDBRANCH  11  18
ENDBRANCH   1  14
BRANCH   2  25
ATOM     25  C   UNL     1       4.840  -9.776  -5.436  0.00  0.00    +0.245 C 
ATOM     26  O   UNL     1       5.796  -9.576  -4.710  0.00  0.00    -0.270 OA
ATOM     27  N   UNL     1       4.797  -9.217  -6.661  0.00  0.00    -0.325 N 
ATOM     28  H   UNL     1       4.035  -9.376  -7.240  0.00  0.00    +0.145 HD
ATOM     29  H   UNL     1       5.528  -8.656  -6.965  0.00  0.00    +0.145 HD
ENDBRANCH   2  25
TORSDOF 8
