REMARK  Name = ZINC20256800
REMARK  2 active torsions:
REMARK  status: ('A' for Active; 'I' for Inactive)
REMARK    1  A    between atoms: C_2  and  N_17
REMARK    2  A    between atoms: C_3  and  N_11
REMARK                            x       y       z     vdW  Elec       q    Type
REMARK                         _______ _______ _______ _____ _____    ______ ____
ROOT
ATOM      1  C   UNL     1      -2.622   4.544  -4.033  0.00  0.00    +0.074 A 
ATOM      2  C   UNL     1      -2.230   4.280  -2.730  0.00  0.00    +0.050 A 
ATOM      3  C   UNL     1      -0.951   3.789  -2.475  0.00  0.00    +0.054 A 
ATOM      4  C   UNL     1      -0.078   3.555  -3.526  0.00  0.00    +0.074 A 
ATOM      5  C   UNL     1      -0.473   3.815  -4.830  0.00  0.00    +0.164 A 
ATOM      6  C   UNL     1      -1.747   4.309  -5.084  0.00  0.00    +0.164 A 
ATOM      7  O   UNL     1      -2.154   4.566  -6.359  0.00  0.00    -0.485 OA
ATOM      8  C   UNL     1      -1.128   4.674  -7.352  0.00  0.00    +0.270 C 
ATOM      9  C   UNL     1      -0.155   3.502  -7.167  0.00  0.00    +0.270 C 
ATOM     10  O   UNL     1       0.400   3.584  -5.850  0.00  0.00    -0.485 OA
ENDROOT
BRANCH   3  11
ATOM     11  N   UNL     1      -0.550   3.525  -1.157  0.00  0.00    -0.327 N 
ATOM     12  C   UNL     1      -0.447   4.763  -0.382  0.00  0.00    +0.116 C 
ATOM     13  C   UNL     1      -0.466   4.442   1.117  0.00  0.00    +0.088 C 
ATOM     14  S   UNL     1       0.973   3.395   1.497  0.00  0.00    -0.158 S 
ATOM     15  C   UNL     1       0.856   2.081   0.243  0.00  0.00    +0.088 C 
ATOM     16  C   UNL     1       0.686   2.740  -1.132  0.00  0.00    +0.116 C 
ENDBRANCH   3  11
BRANCH   2  17
ATOM     17  N   UNL     1      -3.117   4.513  -1.669  0.00  0.00    -0.356 N 
ATOM     18  H   UNL     1      -2.806   4.303  -0.635  0.00  0.00    +0.142 HD
ATOM     19  H   UNL     1      -4.125   4.905  -1.871  0.00  0.00    +0.142 HD
ENDBRANCH   2  17
TORSDOF 2
