REMARK  Name = ZINC01768143
REMARK  11 active torsions:
REMARK  status: ('A' for Active; 'I' for Inactive)
REMARK    1  A    between atoms: C_1  and  C_2
REMARK    2  A    between atoms: C_3  and  O_32
REMARK    3  A    between atoms: C_4  and  C_29
REMARK    4  A    between atoms: C_7  and  O_8
REMARK    5  A    between atoms: C_9  and  C_28
REMARK    6  A    between atoms: C_10  and  O_27
REMARK    7  A    between atoms: C_11  and  C_24
REMARK    8  A    between atoms: C_15  and  S_17
REMARK    9  A    between atoms: S_17  and  C_18
REMARK   10  A    between atoms: C_24  and  C_26
REMARK   11  A    between atoms: C_29  and  C_31
REMARK                            x       y       z     vdW  Elec       q    Type
REMARK                         _______ _______ _______ _____ _____    ______ ____
ROOT
ATOM      1  C   UNL     1      -6.291   5.633   4.364  0.00  0.00    +0.051 C 
ATOM      2  C   UNL     1      -5.662   4.571   3.501  0.00  0.00    +0.034 A 
ATOM      3  C   UNL     1      -4.905   3.582   4.094  0.00  0.00    +0.137 A 
ATOM      4  C   UNL     1      -4.291   2.564   3.331  0.00  0.00    +0.101 A 
ATOM      5  C   UNL     1      -4.479   2.605   1.933  0.00  0.00    +0.144 A 
ATOM      6  C   UNL     1      -5.262   3.618   1.355  0.00  0.00    +0.055 A 
ATOM      7  C   UNL     1      -5.857   4.610   2.118  0.00  0.00    +0.131 A 
ATOM      8  C   UNL     1      -5.262   3.343  -0.107  0.00  0.00    +0.107 C 
ATOM      9  C   UNL     1      -5.061   4.525  -1.014  0.00  0.00    +0.123 C 
ATOM     10  C   UNL     1      -4.588   4.186  -2.292  0.00  0.00    +0.098 C 
ATOM     11  C   UNL     1      -4.367   2.773  -2.619  0.00  0.00    +0.174 C 
ATOM     12  O   UNL     1      -4.469   2.404  -3.771  0.00  0.00    -0.292 OA
ATOM     13  C   UNL     1      -4.013   1.766  -1.541  0.00  0.00    +0.140 C 
ATOM     14  C   UNL     1      -3.939   2.518  -0.228  0.00  0.00    +0.184 C 
ATOM     15  O   UNL     1      -3.960   1.757   0.976  0.00  0.00    -0.472 OA
ATOM     16  C   UNL     1      -6.477   2.511  -0.524  0.00  0.00    +0.029 C 
ENDROOT
BRANCH  10  17
ATOM     17  C   UNL     1      -4.319   5.228  -3.283  0.00  0.00    +0.167 C 
ATOM     18  O   UNL     1      -4.617   6.380  -3.048  0.00  0.00    -0.292 OA
ATOM     19  C   UNL     1      -3.672   4.869  -4.596  0.00  0.00    +0.092 C 
ENDBRANCH  10  17
BRANCH   4  20
ATOM     20  C   UNL     1      -3.495   1.514   3.962  0.00  0.00    +0.167 C 
ATOM     21  O   UNL     1      -2.321   1.705   4.206  0.00  0.00    -0.292 OA
ATOM     22  C   UNL     1      -4.131   0.193   4.311  0.00  0.00    +0.092 C 
ENDBRANCH   4  20
BRANCH   7  23
ATOM     23  O   UNL     1      -6.603   5.586   1.542  0.00  0.00    -0.506 OA
ATOM     24  H   UNL     1      -7.542   5.368   1.464  0.00  0.00    +0.292 HD
ENDBRANCH   7  23
BRANCH   9  25
ATOM     25  O   UNL     1      -5.311   5.787  -0.637  0.00  0.00    -0.509 OA
ATOM     26  H   UNL     1      -5.108   6.407  -1.395  0.00  0.00    +0.292 HD
ENDBRANCH   9  25
BRANCH   3  27
ATOM     27  O   UNL     1      -4.748   3.586   5.441  0.00  0.00    -0.506 OA
ATOM     28  H   UNL     1      -3.980   4.088   5.746  0.00  0.00    +0.292 HD
ENDBRANCH   3  27
BRANCH  14  29
ATOM     29  S   UNL     1      -2.509   3.633  -0.232  0.00  0.00    -0.077 S 
BRANCH  29  30
ATOM     30  C   UNL     1      -1.121   2.548  -0.195  0.00  0.00    +0.012 A 
ATOM     31  C   UNL     1      -1.313   1.176  -0.086  0.00  0.00    +0.015 A 
ATOM     32  C   UNL     1      -0.223   0.329  -0.052  0.00  0.00    +0.001 A 
ATOM     33  C   UNL     1       1.058   0.843  -0.139  0.00  0.00    +0.000 A 
ATOM     34  C   UNL     1       1.252   2.208  -0.254  0.00  0.00    +0.001 A 
ATOM     35  C   UNL     1       0.167   3.061  -0.282  0.00  0.00    +0.015 A 
ENDBRANCH  29  30
ENDBRANCH  14  29
TORSDOF 7
