REMARK  Name = ZINC09243476
REMARK  11 active torsions:
REMARK  status: ('A' for Active; 'I' for Inactive)
REMARK    1  A    between atoms: C_1  and  C_2
REMARK    2  A    between atoms: C_4  and  C_33
REMARK    3  A    between atoms: C_5  and  O_32
REMARK    4  A    between atoms: C_6  and  C_8
REMARK    5  A    between atoms: N_16  and  C_29
REMARK    6  A    between atoms: C_17  and  C_19
REMARK    7  A    between atoms: C_21  and  O_27
REMARK    8  A    between atoms: C_22  and  O_26
REMARK    9  A    between atoms: O_27  and  C_28
REMARK   10  A    between atoms: C_29  and  C_30
REMARK   11  A    between atoms: C_30  and  O_31
REMARK                            x       y       z     vdW  Elec       q    Type
REMARK                         _______ _______ _______ _____ _____    ______ ____
ROOT
ATOM      1  C   UNL     1       0.605  -2.987   2.343  0.00  0.00    +0.102 A 
ATOM      2  C   UNL     1       0.403  -2.397   3.595  0.00  0.00    +0.035 A 
ATOM      3  C   UNL     1       0.912  -3.289   4.519  0.00  0.00    +0.126 A 
ATOM      4  N   UNL     1       1.386  -4.350   3.800  0.00  0.00    -0.272 N 
ATOM      5  H   UNL     1       1.805  -5.138   4.181  0.00  0.00    +0.189 HD
ATOM      6  N   UNL     1       1.191  -4.151   2.546  0.00  0.00    -0.173 NA
ATOM      7  C   UNL     1       0.731  -2.726   5.861  0.00  0.00    +0.266 C 
ATOM      8  O   UNL     1       1.075  -3.268   6.894  0.00  0.00    -0.268 OA
ATOM      9  N   UNL     1       0.129  -1.525   5.788  0.00  0.00    -0.283 N 
ATOM     10  C   UNL     1      -0.124  -1.222   4.373  0.00  0.00    +0.141 C 
ENDROOT
BRANCH   1  16
ATOM     11  C   UNL     1      -1.441   0.700  -0.329  0.00  0.00    +0.044 C 
ATOM     12  C   UNL     1      -0.760  -0.642  -0.260  0.00  0.00    -0.049 A 
ATOM     13  C   UNL     1      -0.491  -1.339  -1.425  0.00  0.00    +0.010 A 
ATOM     14  C   UNL     1       0.133  -2.571  -1.372  0.00  0.00    -0.008 A 
ATOM     15  C   UNL     1       0.493  -3.115  -0.149  0.00  0.00    +0.129 A 
ATOM     16  C   UNL     1       0.223  -2.413   1.029  0.00  0.00    +0.044 A 
ATOM     17  C   UNL     1      -0.401  -1.170   0.964  0.00  0.00    +0.017 A 
ATOM     18  C   UNL     1       0.422  -3.324  -2.645  0.00  0.00    +0.047 C 
BRANCH  15  19
ATOM     19  O   UNL     1       1.106  -4.326  -0.096  0.00  0.00    -0.506 OA
ATOM     20  H   UNL     1       2.071  -4.280  -0.136  0.00  0.00    +0.292 HD
ENDBRANCH  15  19
ENDBRANCH   1  16
BRANCH  10  21
ATOM     21  C   UNL     1       0.606   0.034   3.973  0.00  0.00    -0.018 A 
ATOM     22  C   UNL     1       1.986   0.080   4.038  0.00  0.00    +0.055 A 
ATOM     23  C   UNL     1       2.659   1.234   3.670  0.00  0.00    +0.163 A 
ATOM     24  C   UNL     1       1.943   2.345   3.236  0.00  0.00    +0.173 A 
ATOM     25  C   UNL     1       0.560   2.293   3.173  0.00  0.00    +0.063 A 
ATOM     26  C   UNL     1      -0.106   1.136   3.537  0.00  0.00    +0.025 A 
ATOM     27 BR   UNL     1      -0.418   3.800   2.583  0.00  0.00    -0.046 Br
BRANCH  24  28
ATOM     28  O   UNL     1       2.600   3.481   2.875  0.00  0.00    -0.503 OA
ATOM     29  H   UNL     1       2.839   3.516   1.938  0.00  0.00    +0.292 HD
ENDBRANCH  24  28
BRANCH  23  30
ATOM     30  O   UNL     1       4.017   1.281   3.735  0.00  0.00    -0.491 OA
ATOM     31  C   UNL     1       4.692   0.070   4.082  0.00  0.00    +0.277 C 
ENDBRANCH  23  30
ENDBRANCH  10  21
BRANCH   9  32
ATOM     32  C   UNL     1      -0.214  -0.666   6.924  0.00  0.00    +0.137 C 
BRANCH  32  33
ATOM     33  C   UNL     1       1.012   0.153   7.332  0.00  0.00    +0.175 C 
BRANCH  33  34
ATOM     34  O   UNL     1       1.323   1.092   6.301  0.00  0.00    -0.393 OA
ATOM     35  H   UNL     1       2.091   1.647   6.493  0.00  0.00    +0.209 HD
ENDBRANCH  33  34
ENDBRANCH  32  33
ENDBRANCH   9  32
TORSDOF 8
