REMARK  Name = ZINC12657768
REMARK  5 active torsions:
REMARK  status: ('A' for Active; 'I' for Inactive)
REMARK    1  A    between atoms: C_1  and  C_2
REMARK    2  A    between atoms: N_14  and  N_15
REMARK    3  A    between atoms: N_15  and  C_16
REMARK    4  A    between atoms: C_16  and  N_18
REMARK    5  A    between atoms: C_23  and  C_28
REMARK                            x       y       z     vdW  Elec       q    Type
REMARK                         _______ _______ _______ _____ _____    ______ ____
ROOT
ATOM      1  C   UNL     1       1.331   3.611  -0.216  0.00  0.00    +0.018 C 
ATOM      2  C   UNL     1       1.410   2.098  -0.000  0.00  0.00    +0.011 C 
ATOM      3  C   UNL     1       2.271   1.496  -1.096  0.00  0.00    +0.013 C 
ATOM      4  C   UNL     1       2.276  -0.029  -1.010  0.00  0.00    +0.005 C 
ATOM      5  C   UNL     1       0.835  -0.532  -1.163  0.00  0.00    -0.001 C 
ATOM      6  C   UNL     1       0.002  -0.004   0.002  0.00  0.00    -0.003 C 
ATOM      7  C   UNL     1      -0.019   1.527   0.010  0.00  0.00    +0.004 C 
ATOM      8  C   UNL     1      -0.507   1.956   1.427  0.00  0.00    +0.010 C 
ATOM      9  C   UNL     1       0.746   1.766   2.311  0.00  0.00    +0.053 C 
ATOM     10  C   UNL     1       1.948   1.847   1.388  0.00  0.00    +0.043 C 
ATOM     11  N   UNL     1       3.178   1.726   1.721  0.00  0.00    -0.189 NA
ATOM     12  C   UNL     1      -1.436  -0.512  -0.139  0.00  0.00    +0.004 C 
ATOM     13  C   UNL     1      -1.444  -2.038  -0.155  0.00  0.00    +0.005 C 
ATOM     14  C   UNL     1      -0.020  -2.576   0.010  0.00  0.00    -0.001 C 
ATOM     15  C   UNL     1       0.861  -2.051  -1.130  0.00  0.00    -0.022 C 
ATOM     16  C   UNL     1       2.299  -2.524  -0.890  0.00  0.00    +0.034 C 
ATOM     17  C   UNL     1       2.338  -3.988  -0.572  0.00  0.00    -0.030 C 
ATOM     18  C   UNL     1       1.305  -4.676  -0.206  0.00  0.00    -0.031 C 
ATOM     19  C   UNL     1      -0.074  -4.107  -0.066  0.00  0.00    +0.031 C 
ATOM     20  C   UNL     1       0.362  -2.595  -2.470  0.00  0.00    +0.012 C 
ENDROOT
BRANCH  11  21
ATOM     21  N   UNL     1       3.522   1.494   3.059  0.00  0.00    -0.219 N 
ATOM     22  H   UNL     1       2.827   1.424   3.733  0.00  0.00    +0.176 HD
BRANCH  21  23
ATOM     23  C   UNL     1       4.817   1.366   3.410  0.00  0.00    +0.147 C 
ATOM     24  S   UNL     1       5.236   1.082   5.046  0.00  0.00    -0.017 S 
BRANCH  23  25
ATOM     25  N   UNL     1       5.781   1.462   2.474  0.00  0.00    -0.339 N 
ATOM     26  H   UNL     1       5.543   1.623   1.548  0.00  0.00    +0.144 HD
ATOM     27  H   UNL     1       6.713   1.371   2.727  0.00  0.00    +0.144 HD
ENDBRANCH  23  25
ENDBRANCH  21  23
ENDBRANCH  11  21
TORSDOF 3
