REMARK  Name = ZINC12576792
REMARK  8 active torsions:
REMARK  status: ('A' for Active; 'I' for Inactive)
REMARK    1  A    between atoms: C_1  and  C_2
REMARK    2  A    between atoms: C_4  and  C_23
REMARK    3  A    between atoms: C_9  and  C_13
REMARK    4  A    between atoms: C_9  and  C_14
REMARK    5  A    between atoms: N_17  and  C_19
REMARK    6  A    between atoms: C_19  and  C_20
REMARK    7  A    between atoms: C_19  and  C_21
REMARK    8  A    between atoms: C_19  and  C_22
REMARK                            x       y       z     vdW  Elec       q    Type
REMARK                         _______ _______ _______ _____ _____    ______ ____
ROOT
ATOM      1  C   UNL     1      -0.018   1.503   0.010  0.00  0.00    +0.062 C 
ATOM      2  C   UNL     1       0.002  -0.004   0.002  0.00  0.00    +0.026 C 
ATOM      3  C   UNL     1      -1.080  -0.802   0.003  0.00  0.00    +0.023 C 
ATOM      4  C   UNL     1      -2.571  -0.541   0.011  0.00  0.00    +0.109 C 
ATOM      5  C   UNL     1      -3.455  -1.774   0.010  0.00  0.00    +0.028 C 
ATOM      6  C   UNL     1      -2.847  -3.013  -0.003  0.00  0.00    +0.025 C 
ATOM      7  C   UNL     1      -3.695  -4.264  -0.011  0.00  0.00    +0.060 C 
ATOM      8  C   UNL     1      -5.011  -3.995   0.721  0.00  0.00    -0.023 C 
ATOM      9  C   UNL     1      -5.736  -2.837   0.028  0.00  0.00    +0.086 C 
ATOM     10  C   UNL     1      -4.835  -1.630   0.022  0.00  0.00    +0.162 C 
ATOM     11  O   UNL     1      -5.322  -0.515   0.028  0.00  0.00    -0.292 OA
ATOM     12  C   UNL     1      -5.888  -5.248   0.676  0.00  0.00    +0.011 C 
ATOM     13  C   UNL     1      -4.722  -3.621   2.176  0.00  0.00    +0.011 C 
ATOM     14  N   UNL     1      -1.528  -3.141  -0.010  0.00  0.00    -0.345 N 
ATOM     15  C   UNL     1      -0.654  -2.149  -0.007  0.00  0.00    +0.122 C 
ATOM     16  N   UNL     1       0.723  -2.128  -0.014  0.00  0.00    -0.233 N 
ATOM     17  N   UNL     1       1.123  -0.784  -0.013  0.00  0.00    -0.266 N 
ATOM     18  H   UNL     1       2.038  -0.464  -0.021  0.00  0.00    +0.170 HD
ATOM     19  H   UNL     1      -1.171  -4.043  -0.016  0.00  0.00    +0.167 HD
ENDROOT
BRANCH   4  20
ATOM     20  C   UNL     1      -2.900   0.270   1.239  0.00  0.00    +0.074 A 
ATOM     21  C   UNL     1      -2.680  -0.096   2.513  0.00  0.00    +0.153 A 
ATOM     22  N   UNL     1      -3.108   0.890   3.317  0.00  0.00    -0.209 NA
ATOM     23  C   UNL     1      -3.586   1.855   2.584  0.00  0.00    +0.179 A 
ATOM     24  N   UNL     1      -3.482   1.536   1.256  0.00  0.00    -0.295 N 
ATOM     25  C   UNL     1      -3.943   2.468   0.352  0.00  0.00    +0.101 A 
ATOM     26  C   UNL     1      -4.460   3.623   0.767  0.00  0.00    +0.067 A 
ATOM     27  S   UNL     1      -4.336   3.466   2.542  0.00  0.00    -0.058 S 
ATOM     28 CL   UNL     1      -1.966  -1.591   3.032  0.00  0.00    -0.060 Cl
ENDBRANCH   4  20
BRANCH  16  29
ATOM     29  C   UNL     1       1.608  -3.296  -0.024  0.00  0.00    +0.047 C 
ATOM     30  C   UNL     1       1.335  -4.131  -1.276  0.00  0.00    +0.033 C 
ATOM     31  C   UNL     1       3.066  -2.831  -0.028  0.00  0.00    +0.033 C 
ATOM     32  C   UNL     1       1.347  -4.144   1.222  0.00  0.00    +0.033 C 
ENDBRANCH  16  29
TORSDOF 2
