REMARK  Name = ZINC31676994
REMARK  8 active torsions:
REMARK  status: ('A' for Active; 'I' for Inactive)
REMARK    1  A    between atoms: C_7  and  N_31
REMARK    2  A    between atoms: C_9  and  C_11
REMARK    3  A    between atoms: C_11  and  S_12
REMARK    4  A    between atoms: S_12  and  C_13
REMARK    5  A    between atoms: C_16  and  S_18
REMARK    6  A    between atoms: S_18  and  C_19
REMARK    7  A    between atoms: C_19  and  C_20
REMARK    8  A    between atoms: C_28  and  N_30
REMARK                            x       y       z     vdW  Elec       q    Type
REMARK                         _______ _______ _______ _____ _____    ______ ____
ROOT
ATOM      1  C   UNL     1      -3.385  -1.887  -1.517  0.00  0.00    +0.160 A 
ATOM      2  N   UNL     1      -4.015  -2.252  -0.417  0.00  0.00    -0.134 NA
ATOM      3  N   UNL     1      -5.213  -2.923  -0.505  0.00  0.00    -0.134 NA
ATOM      4  C   UNL     1      -5.726  -3.197  -1.689  0.00  0.00    +0.160 A 
ATOM      5  S   UNL     1      -4.498  -2.490  -2.777  0.00  0.00    -0.033 S 
ENDROOT
BRANCH   1   6
ATOM      6  S   UNL     1      -1.857  -1.028  -1.695  0.00  0.00    -0.089 S 
BRANCH   6   7
ATOM      7  C   UNL     1      -1.312  -0.741   0.011  0.00  0.00    +0.152 C 
BRANCH   7  16
ATOM      8  C   UNL     1       4.723   1.266  -0.038  0.00  0.00    +0.001 A 
ATOM      9  C   UNL     1       4.692  -0.125  -0.044  0.00  0.00    +0.002 A 
ATOM     10  C   UNL     1       3.509  -0.802  -0.036  0.00  0.00    +0.028 A 
ATOM     11  C   UNL     1       2.304  -0.087  -0.021  0.00  0.00    +0.076 A 
ATOM     12  C   UNL     1       2.337   1.329  -0.013  0.00  0.00    +0.040 A 
ATOM     13  C   UNL     1       3.569   1.993  -0.022  0.00  0.00    +0.013 A 
ATOM     14  C   UNL     1       1.106   2.027   0.002  0.00  0.00    +0.127 A 
ATOM     15  N   UNL     1      -0.016   1.319   0.009  0.00  0.00    -0.216 NA
ATOM     16  C   UNL     1       0.002  -0.004   0.002  0.00  0.00    +0.142 A 
ATOM     17  N   UNL     1       1.112  -0.703  -0.012  0.00  0.00    -0.231 NA
BRANCH  14  18
ATOM     18  N   UNL     1       1.073   3.405   0.010  0.00  0.00    -0.343 N 
ATOM     19  H   UNL     1       0.108   3.933   0.022  0.00  0.00    +0.144 HD
ATOM     20  H   UNL     1       2.012   3.978   0.004  0.00  0.00    +0.144 HD
ENDBRANCH  14  18
ENDBRANCH   7  16
ENDBRANCH   6   7
ENDBRANCH   1   6
BRANCH   4  21
ATOM     21  S   UNL     1      -7.224  -4.033  -2.090  0.00  0.00    -0.089 S 
BRANCH  21  22
ATOM     22  C   UNL     1      -7.939  -4.451  -0.476  0.00  0.00    +0.152 C 
BRANCH  22  23
ATOM     23  C   UNL     1      -9.243  -5.179  -0.677  0.00  0.00    +0.142 A 
ATOM     24  N   UNL     1     -10.349  -4.477  -0.744  0.00  0.00    -0.231 NA
ATOM     25  C   UNL     1     -11.530  -5.084  -0.928  0.00  0.00    +0.076 A 
ATOM     26  C   UNL     1     -12.730  -4.365  -1.010  0.00  0.00    +0.028 A 
ATOM     27  C   UNL     1     -13.904  -5.033  -1.192  0.00  0.00    +0.002 A 
ATOM     28  C   UNL     1     -13.931  -6.421  -1.298  0.00  0.00    +0.001 A 
ATOM     29  C   UNL     1     -12.782  -7.152  -1.223  0.00  0.00    +0.013 A 
ATOM     30  C   UNL     1     -11.560  -6.496  -1.036  0.00  0.00    +0.040 A 
ATOM     31  C   UNL     1     -10.334  -7.199  -0.950  0.00  0.00    +0.127 A 
ATOM     32  N   UNL     1      -9.221  -6.499  -0.773  0.00  0.00    -0.216 NA
BRANCH  31  33
ATOM     33  N   UNL     1     -10.297  -8.574  -1.049  0.00  0.00    -0.343 N 
ATOM     34  H   UNL     1      -9.336  -9.105  -0.980  0.00  0.00    +0.144 HD
ATOM     35  H   UNL     1     -11.229  -9.139  -1.196  0.00  0.00    +0.144 HD
ENDBRANCH  31  33
ENDBRANCH  22  23
ENDBRANCH  21  22
ENDBRANCH   4  21
TORSDOF 8
