REMARK  Name = ZINC16194676
REMARK  8 active torsions:
REMARK  status: ('A' for Active; 'I' for Inactive)
REMARK    1  A    between atoms: C_1  and  O_2
REMARK    2  A    between atoms: O_2  and  C_3
REMARK    3  A    between atoms: C_7  and  C_10
REMARK    4  A    between atoms: C_8  and  O_9
REMARK    5  A    between atoms: N_11  and  C_12
REMARK    6  A    between atoms: C_15  and  N_18
REMARK    7  A    between atoms: N_18  and  C_19
REMARK    8  A    between atoms: C_19  and  N_21
REMARK                            x       y       z     vdW  Elec       q    Type
REMARK                         _______ _______ _______ _____ _____    ______ ____
ROOT
ATOM      1  C   UNL     1       1.175  -4.076  -2.427  0.00  0.00    +0.124 C 
ATOM      2  N   UNL     1       1.954  -4.646  -3.303  0.00  0.00    -0.255 NA
ENDROOT
BRANCH   1   7
ATOM      3  C   UNL     1       0.250  -0.606  -1.309  0.00  0.00    +0.163 A 
ATOM      4  C   UNL     1       1.036   0.161  -2.153  0.00  0.00    +0.065 A 
ATOM      5  C   UNL     1       1.864  -0.446  -3.083  0.00  0.00    +0.036 A 
ATOM      6  C   UNL     1       1.914  -1.822  -3.178  0.00  0.00    +0.044 A 
ATOM      7  C   UNL     1       1.126  -2.610  -2.331  0.00  0.00    +0.053 A 
ATOM      8  C   UNL     1       0.293  -1.993  -1.387  0.00  0.00    +0.168 A 
ATOM      9 BR   UNL     1       3.046  -2.643  -4.451  0.00  0.00    -0.048 Br
ATOM     10 BR   UNL     1       2.930   0.615  -4.229  0.00  0.00    -0.049 Br
BRANCH   3  12
ATOM     11  C   UNL     1      -0.554   1.428  -0.373  0.00  0.00    +0.277 C 
ATOM     12  O   UNL     1      -0.560  -0.001  -0.399  0.00  0.00    -0.491 OA
ENDBRANCH   3  12
BRANCH   8  13
ATOM     13  O   UNL     1      -0.473  -2.747  -0.556  0.00  0.00    -0.503 OA
ATOM     14  H   UNL     1      -1.350  -2.952  -0.907  0.00  0.00    +0.292 HD
ENDBRANCH   8  13
ENDBRANCH   1   7
BRANCH   2  15
ATOM     15  C   UNL     1       1.999  -6.011  -3.393  0.00  0.00    +0.064 A 
ATOM     16  C   UNL     1       2.076  -6.787  -2.234  0.00  0.00    +0.029 A 
ATOM     17  C   UNL     1       2.122  -8.161  -2.328  0.00  0.00    +0.025 A 
ATOM     18  C   UNL     1       2.090  -8.775  -3.575  0.00  0.00    +0.033 A 
ATOM     19  C   UNL     1       2.014  -8.006  -4.731  0.00  0.00    +0.025 A 
ATOM     20  C   UNL     1       1.962  -6.632  -4.644  0.00  0.00    +0.029 A 
BRANCH  18  21
ATOM     21  N   UNL     1       2.136 -10.169  -3.666  0.00  0.00    -0.297 N 
ATOM     22  H   UNL     1       2.686 -10.593  -4.344  0.00  0.00    +0.154 HD
BRANCH  21  23
ATOM     23  C   UNL     1       1.417 -10.925  -2.813  0.00  0.00    +0.132 C 
ATOM     24  S   UNL     1       0.339 -10.180  -1.710  0.00  0.00    -0.019 S 
BRANCH  23  25
ATOM     25  N   UNL     1       1.546 -12.266  -2.827  0.00  0.00    -0.340 N 
ATOM     26  H   UNL     1       2.157 -12.688  -3.452  0.00  0.00    +0.144 HD
ATOM     27  H   UNL     1       1.029 -12.810  -2.213  0.00  0.00    +0.144 HD
ENDBRANCH  23  25
ENDBRANCH  21  23
ENDBRANCH  18  21
ENDBRANCH   2  15
TORSDOF 7
