REMARK  Name = ZINC50291422
REMARK  4 active torsions:
REMARK  status: ('A' for Active; 'I' for Inactive)
REMARK    1  A    between atoms: C_4  and  N_8
REMARK    2  A    between atoms: C_5  and  N_7
REMARK    3  A    between atoms: C_9  and  C_11
REMARK    4  A    between atoms: C_11  and  C_14
REMARK                            x       y       z     vdW  Elec       q    Type
REMARK                         _______ _______ _______ _____ _____    ______ ____
ROOT
ATOM      1  N   UNL     1       3.635  -0.641  -0.036  0.00  0.00    -0.283 N 
ATOM      2  C   UNL     1       4.786   0.051  -0.146  0.00  0.00    +0.234 C 
ATOM      3  O   UNL     1       4.767   1.264  -0.139  0.00  0.00    -0.274 OA
ATOM      4  H   UNL     1       3.656  -1.608   0.039  0.00  0.00    +0.155 HD
ENDROOT
BRANCH   1   8
ATOM      5  C   UNL     1      -0.019   1.375  -0.024  0.00  0.00    +0.002 A 
ATOM      6  C   UNL     1       1.087   1.947  -0.626  0.00  0.00    +0.002 A 
ATOM      7  C   UNL     1       2.299   1.282  -0.631  0.00  0.00    +0.025 A 
ATOM      8  C   UNL     1       2.408   0.036  -0.032  0.00  0.00    +0.054 A 
ATOM      9  C   UNL     1       1.293  -0.541   0.575  0.00  0.00    +0.046 A 
ATOM     10  C   UNL     1       0.081   0.134   0.576  0.00  0.00    +0.024 A 
BRANCH   9  11
ATOM     11  N   UNL     1       1.396  -1.798   1.181  0.00  0.00    -0.357 N 
ATOM     12  H   UNL     1       2.244  -2.269   1.180  0.00  0.00    +0.142 HD
ATOM     13  H   UNL     1       0.620  -2.198   1.603  0.00  0.00    +0.142 HD
ENDBRANCH   9  11
ENDBRANCH   1   8
BRANCH   2  14
ATOM     14  C   UNL     1       6.097  -0.681  -0.276  0.00  0.00    +0.148 C 
ATOM     15  C   UNL     1       7.073  -0.597   0.899  0.00  0.00    +0.029 C 
ATOM     16  C   UNL     1       7.368   0.162  -0.397  0.00  0.00    +0.029 C 
BRANCH  14  17
ATOM     17  C   UNL     1       6.044  -1.975  -1.046  0.00  0.00    +0.371 C 
ATOM     18  O   UNL     1       5.177  -2.151  -1.885  0.00  0.00    -0.245 OA
ATOM     19  O   UNL     1       6.868  -2.847  -0.831  0.00  0.00    -0.245 OA
ENDBRANCH  14  17
ENDBRANCH   2  14
TORSDOF 4
