REMARK  Name = ZINC22662463
REMARK  8 active torsions:
REMARK  status: ('A' for Active; 'I' for Inactive)
REMARK    1  A    between atoms: C_1  and  C_2
REMARK    2  A    between atoms: C_11  and  N_28
REMARK    3  A    between atoms: C_13  and  S_15
REMARK    4  A    between atoms: S_15  and  C_16
REMARK    5  A    between atoms: C_16  and  C_17
REMARK    6  A    between atoms: N_19  and  C_20
REMARK    7  A    between atoms: C_25  and  O_26
REMARK    8  A    between atoms: O_26  and  C_27
REMARK                            x       y       z     vdW  Elec       q    Type
REMARK                         _______ _______ _______ _____ _____    ______ ____
ROOT
ATOM      1  C   UNL     1     -11.255  -9.152  -1.131  0.00  0.00    +0.008 C 
ATOM      2  C   UNL     1      -9.994  -8.303  -1.306  0.00  0.00    -0.009 C 
ATOM      3  C   UNL     1     -10.052  -7.096  -0.365  0.00  0.00    +0.008 C 
ATOM      4  C   UNL     1      -8.927  -6.119  -0.704  0.00  0.00    +0.037 C 
ATOM      5  C   UNL     1      -7.603  -6.878  -0.720  0.00  0.00    -0.025 A 
ATOM      6  C   UNL     1      -7.580  -8.221  -0.833  0.00  0.00    -0.004 A 
ATOM      7  S   UNL     1      -5.863  -8.659  -0.807  0.00  0.00    -0.073 S 
ATOM      8  C   UNL     1      -5.174  -7.032  -0.644  0.00  0.00    +0.115 A 
ATOM      9  C   UNL     1      -6.310  -6.198  -0.615  0.00  0.00    +0.051 A 
ATOM     10  C   UNL     1      -6.045  -4.806  -0.487  0.00  0.00    +0.129 A 
ATOM     11  N   UNL     1      -4.793  -4.391  -0.400  0.00  0.00    -0.207 NA
ATOM     12  C   UNL     1      -3.766  -5.233  -0.440  0.00  0.00    +0.191 A 
ATOM     13  N   UNL     1      -3.953  -6.541  -0.558  0.00  0.00    -0.214 NA
ATOM     14  C   UNL     1      -8.757  -9.141  -0.955  0.00  0.00    +0.046 C 
ENDROOT
BRANCH  10  15
ATOM     15  N   UNL     1      -7.087  -3.897  -0.448  0.00  0.00    -0.343 N 
ATOM     16  H   UNL     1      -6.876  -2.822  -0.349  0.00  0.00    +0.144 HD
ATOM     17  H   UNL     1      -8.127  -4.249  -0.515  0.00  0.00    +0.144 HD
ENDBRANCH  10  15
BRANCH  12  18
ATOM     18  S   UNL     1      -2.125  -4.601  -0.326  0.00  0.00    -0.077 S 
BRANCH  18  19
ATOM     19  C   UNL     1      -2.479  -2.832  -0.189  0.00  0.00    +0.173 C 
BRANCH  19  20
ATOM     20  C   UNL     1      -1.184  -2.068  -0.077  0.00  0.00    +0.228 C 
ATOM     21  O   UNL     1      -0.127  -2.662  -0.089  0.00  0.00    -0.275 OA
ATOM     22  N   UNL     1      -1.202  -0.725   0.037  0.00  0.00    -0.282 N 
ATOM     23  H   UNL     1      -2.159  -0.194   0.140  0.00  0.00    +0.155 HD
BRANCH  22  24
ATOM     24  C   UNL     1       0.001  -0.005   0.023  0.00  0.00    +0.076 A 
ATOM     25  C   UNL     1       1.122  -0.537  -0.596  0.00  0.00    +0.027 A 
ATOM     26  C   UNL     1       2.307   0.175  -0.609  0.00  0.00    +0.002 A 
ATOM     27  C   UNL     1       2.377   1.417  -0.005  0.00  0.00    +0.004 A 
ATOM     28  C   UNL     1       1.263   1.953   0.614  0.00  0.00    +0.047 A 
ATOM     29  C   UNL     1       0.072   1.246   0.631  0.00  0.00    +0.141 A 
BRANCH  29  30
ATOM     30  O   UNL     1      -1.026   1.774   1.235  0.00  0.00    -0.493 OA
ATOM     31  C   UNL     1      -0.878   3.061   1.837  0.00  0.00    +0.277 C 
ENDBRANCH  29  30
ENDBRANCH  22  24
ENDBRANCH  19  20
ENDBRANCH  18  19
ENDBRANCH  12  18
TORSDOF 6
