REMARK  Name = ZINC36543940
REMARK  9 active torsions:
REMARK  status: ('A' for Active; 'I' for Inactive)
REMARK    1  A    between atoms: C_5  and  N_7
REMARK    2  A    between atoms: N_7  and  C_8
REMARK    3  A    between atoms: C_8  and  C_10
REMARK    4  A    between atoms: C_8  and  C_19
REMARK    5  A    between atoms: C_11  and  O_18
REMARK    6  A    between atoms: C_13  and  O_17
REMARK    7  A    between atoms: C_15  and  O_16
REMARK    8  A    between atoms: N_21  and  C_22
REMARK    9  A    between atoms: C_28  and  C_30
REMARK                            x       y       z     vdW  Elec       q    Type
REMARK                         _______ _______ _______ _____ _____    ______ ____
ROOT
ATOM      1  C   UNL     1       2.688  -1.686  -1.529  0.00  0.00    +0.205 C 
ENDROOT
BRANCH   1   2
ATOM      2  C   UNL     1       2.948  -2.797  -2.513  0.00  0.00    +0.065 A 
ATOM      3  C   UNL     1       2.599  -2.639  -3.846  0.00  0.00    +0.129 A 
ATOM      4  C   UNL     1       2.837  -3.662  -4.751  0.00  0.00    +0.091 A 
ATOM      5  C   UNL     1       3.426  -4.842  -4.324  0.00  0.00    +0.124 A 
ATOM      6  C   UNL     1       3.776  -5.000  -2.992  0.00  0.00    +0.091 A 
ATOM      7  C   UNL     1       3.541  -3.976  -2.087  0.00  0.00    +0.129 A 
BRANCH   7   8
ATOM      8  O   UNL     1       3.889  -4.129  -0.782  0.00  0.00    -0.506 OA
ATOM      9  H   UNL     1       3.563  -4.946  -0.382  0.00  0.00    +0.292 HD
ENDBRANCH   7   8
BRANCH   5  10
ATOM     10  O   UNL     1       3.659  -5.845  -5.212  0.00  0.00    -0.507 OA
ATOM     11  H   UNL     1       4.526  -5.798  -5.639  0.00  0.00    +0.292 HD
ENDBRANCH   5  10
BRANCH   3  12
ATOM     12  O   UNL     1       2.022  -1.482  -4.264  0.00  0.00    -0.506 OA
ATOM     13  H   UNL     1       2.647  -0.840  -4.627  0.00  0.00    +0.292 HD
ENDBRANCH   3  12
ENDBRANCH   1   2
BRANCH   1  14
ATOM     14  C   UNL     1       1.359  -1.911  -0.856  0.00  0.00    +0.239 C 
ATOM     15  O   UNL     1       1.166  -1.485   0.263  0.00  0.00    -0.273 OA
ATOM     16  N   UNL     1       0.385  -2.586  -1.497  0.00  0.00    -0.311 N 
ATOM     17  H   UNL     1       0.578  -3.038  -2.333  0.00  0.00    +0.149 HD
BRANCH  16  18
ATOM     18  C   UNL     1      -0.966  -2.637  -0.931  0.00  0.00    +0.073 C 
ATOM     19  C   UNL     1      -1.049  -3.776   0.087  0.00  0.00    +0.022 C 
ATOM     20  C   UNL     1      -2.459  -3.830   0.678  0.00  0.00    +0.002 C 
ATOM     21  C   UNL     1      -3.473  -4.072  -0.442  0.00  0.00    +0.000 C 
ATOM     22  C   UNL     1      -3.389  -2.933  -1.460  0.00  0.00    +0.002 C 
ATOM     23  C   UNL     1      -1.979  -2.880  -2.051  0.00  0.00    +0.022 C 
ENDBRANCH  16  18
ENDBRANCH   1  14
BRANCH   1  24
ATOM     24  N   UNL     1       3.750  -1.669  -0.520  0.00  0.00    -0.247 N 
ATOM     25  C   UNL     1       3.656  -2.456   0.570  0.00  0.00    +0.287 C 
ATOM     26  O   UNL     1       2.743  -3.254   0.667  0.00  0.00    -0.266 OA
BRANCH  24  31
ATOM     27  C   UNL     1       5.941   1.279  -0.353  0.00  0.00    +0.002 A 
ATOM     28  C   UNL     1       7.060   0.812  -1.020  0.00  0.00    +0.002 A 
ATOM     29  C   UNL     1       7.082  -0.476  -1.522  0.00  0.00    +0.022 A 
ATOM     30  C   UNL     1       5.986  -1.302  -1.358  0.00  0.00    +0.062 A 
ATOM     31  C   UNL     1       4.862  -0.836  -0.688  0.00  0.00    +0.056 A 
ATOM     32  C   UNL     1       4.843   0.459  -0.186  0.00  0.00    +0.025 A 
ATOM     33 CL   UNL     1       6.014  -2.919  -1.989  0.00  0.00    -0.082 Cl
ENDBRANCH  24  31
BRANCH  25  34
ATOM     34  C   UNL     1       4.655  -2.350   1.639  0.00  0.00    +0.190 A 
ATOM     35  C   UNL     1       4.681  -3.088   2.788  0.00  0.00    +0.054 A 
ATOM     36  C   UNL     1       5.802  -2.659   3.517  0.00  0.00    +0.042 A 
ATOM     37  C   UNL     1       6.403  -1.691   2.789  0.00  0.00    +0.196 A 
ATOM     38  O   UNL     1       5.712  -1.512   1.656  0.00  0.00    -0.458 OA
ENDBRANCH  25  34
ENDBRANCH   1  24
TORSDOF 9
