REMARK  Name = ZINC08053652
REMARK  8 active torsions:
REMARK  status: ('A' for Active; 'I' for Inactive)
REMARK    1  A    between atoms: C_1  and  O_2
REMARK    2  A    between atoms: O_2  and  C_3
REMARK    3  A    between atoms: C_6  and  C_9
REMARK    4  A    between atoms: C_10  and  C_11
REMARK    5  A    between atoms: N_13  and  C_14
REMARK    6  A    between atoms: C_14  and  N_16
REMARK    7  A    between atoms: N_16  and  C_17
REMARK    8  A    between atoms: C_18  and  C_25
REMARK                            x       y       z     vdW  Elec       q    Type
REMARK                         _______ _______ _______ _____ _____    ______ ____
ROOT
ATOM      1  C   UNL     1      -7.541  -6.619   0.050  0.00  0.00    +0.141 C 
ATOM      2  S   UNL     1      -8.989  -5.706   0.062  0.00  0.00    -0.018 S 
ENDROOT
BRANCH   1   5
ATOM      3  C   UNL     1      -6.296  -4.644   0.043  0.00  0.00    +0.242 C 
ATOM      4  O   UNL     1      -7.326  -3.995   0.052  0.00  0.00    -0.270 OA
ATOM      5  N   UNL     1      -6.349  -5.991   0.041  0.00  0.00    -0.264 N 
ATOM      6  H   UNL     1      -5.528  -6.508   0.034  0.00  0.00    +0.157 HD
BRANCH   3   8
ATOM      7  C   UNL     1      -4.951  -2.613   0.035  0.00  0.00    +0.013 C 
ATOM      8  C   UNL     1      -5.004  -3.963   0.034  0.00  0.00    +0.068 C 
BRANCH   7  12
ATOM      9  C   UNL     1      -1.199  -0.637   0.010  0.00  0.00    +0.120 A 
ATOM     10  C   UNL     1      -2.373   0.107   0.019  0.00  0.00    +0.046 A 
ATOM     11  C   UNL     1      -3.594  -0.530   0.028  0.00  0.00    +0.011 A 
ATOM     12  C   UNL     1      -3.651  -1.928   0.026  0.00  0.00    -0.025 A 
ATOM     13  C   UNL     1      -2.465  -2.672   0.016  0.00  0.00    +0.011 A 
ATOM     14  C   UNL     1      -1.250  -2.026   0.003  0.00  0.00    +0.046 A 
BRANCH   9  16
ATOM     15  C   UNL     1      -0.017   1.425   0.010  0.00  0.00    +0.277 C 
ATOM     16  O   UNL     1       0.002  -0.004   0.002  0.00  0.00    -0.495 OA
ENDBRANCH   9  16
ENDBRANCH   7  12
ENDBRANCH   3   8
ENDBRANCH   1   5
BRANCH   1  17
ATOM     17  N   UNL     1      -7.593  -7.966   0.048  0.00  0.00    -0.291 N 
ATOM     18  H   UNL     1      -6.773  -8.483   0.041  0.00  0.00    +0.154 HD
BRANCH  17  19
ATOM     19  C   UNL     1      -8.819  -8.611   0.057  0.00  0.00    +0.084 A 
ATOM     20  C   UNL     1      -9.063  -9.973   0.062  0.00  0.00    +0.068 A 
ATOM     21  C   UNL     1     -10.461 -10.402   0.072  0.00  0.00    -0.023 A 
ATOM     22  C   UNL     1     -11.346  -9.390   0.072  0.00  0.00    -0.004 A 
ATOM     23  S   UNL     1     -10.348  -7.922   0.070  0.00  0.00    -0.077 S 
ATOM     24  C   UNL     1     -12.767  -9.886   0.078  0.00  0.00    +0.043 C 
ATOM     25  C   UNL     1     -12.664 -11.367  -0.352  0.00  0.00    +0.010 C 
ATOM     26  C   UNL     1     -11.229 -11.723   0.084  0.00  0.00    +0.037 C 
BRANCH  20  27
ATOM     27  C   UNL     1      -7.966 -10.945   0.059  0.00  0.00    +0.244 C 
ATOM     28  O   UNL     1      -7.505 -11.345   1.111  0.00  0.00    -0.270 OA
ATOM     29  N   UNL     1      -7.469 -11.395  -1.110  0.00  0.00    -0.325 N 
ATOM     30  H   UNL     1      -7.837 -11.075  -1.949  0.00  0.00    +0.145 HD
ATOM     31  H   UNL     1      -6.743 -12.038  -1.113  0.00  0.00    +0.145 HD
ENDBRANCH  20  27
ENDBRANCH  17  19
ENDBRANCH   1  17
TORSDOF 7
