REMARK  Name = ZINC22795330
REMARK  6 active torsions:
REMARK  status: ('A' for Active; 'I' for Inactive)
REMARK    1  A    between atoms: C_1  and  N_2
REMARK    2  A    between atoms: N_5  and  C_8
REMARK    3  A    between atoms: C_8  and  C_10
REMARK    4  A    between atoms: C_8  and  C_17
REMARK    5  A    between atoms: C_18  and  O_30
REMARK    6  A    between atoms: C_23  and  C_25
REMARK                            x       y       z     vdW  Elec       q    Type
REMARK                         _______ _______ _______ _____ _____    ______ ____
ROOT
ATOM      1  C   UNL     1       1.453  -3.974  -0.034  0.00  0.00    +0.129 C 
ENDROOT
BRANCH   1   6
ATOM      2  C   UNL     1       1.801   1.474  -1.429  0.00  0.00    -0.096 C 
ATOM      3  N   UNL     1       1.856   0.006  -1.399  0.00  0.00    +0.379 N 
ATOM      4  C   UNL     1       2.702  -0.429  -0.280  0.00  0.00    -0.064 C 
ATOM      5  C   UNL     1       2.775  -1.957  -0.260  0.00  0.00    +0.067 C 
ATOM      6  N   UNL     1       1.420  -2.508  -0.115  0.00  0.00    -0.295 NA
ATOM      7  C   UNL     1       0.554  -2.060  -1.215  0.00  0.00    +0.067 C 
ATOM      8  C   UNL     1       0.500  -0.531  -1.228  0.00  0.00    -0.064 C 
ATOM      9  H   UNL     1       2.245  -0.333  -2.266  0.00  0.00    -0.082 HD
ENDBRANCH   1   6
BRANCH   1  10
ATOM     10  C   UNL     1       0.048  -4.502   0.100  0.00  0.00    +0.076 A 
ATOM     11  C   UNL     1      -0.581  -5.424  -0.638  0.00  0.00    +0.228 A 
ATOM     12  N   UNL     1      -1.878  -5.779  -0.360  0.00  0.00    -0.173 N 
ATOM     13  C   UNL     1      -2.484  -5.152   0.694  0.00  0.00    +0.200 A 
ATOM     14  S   UNL     1      -1.210  -4.066   1.290  0.00  0.00    -0.047 S 
ATOM     15  N   UNL     1      -3.702  -5.595   0.829  0.00  0.00    -0.197 NA
ATOM     16  C   UNL     1      -3.945  -6.516  -0.114  0.00  0.00    +0.218 A 
ATOM     17  N   UNL     1      -2.871  -6.663  -0.859  0.00  0.00    -0.138 NA
BRANCH  16  18
ATOM     18  C   UNL     1      -5.217  -7.250  -0.289  0.00  0.00    +0.173 A 
ATOM     19  C   UNL     1      -6.334  -7.101   0.470  0.00  0.00    +0.053 A 
ATOM     20  C   UNL     1      -7.298  -7.990  -0.047  0.00  0.00    +0.042 A 
ATOM     21  C   UNL     1      -6.726  -8.630  -1.086  0.00  0.00    +0.196 A 
ATOM     22  O   UNL     1      -5.471  -8.177  -1.232  0.00  0.00    -0.460 OA
ENDBRANCH  16  18
BRANCH  11  23
ATOM     23  O   UNL     1       0.071  -6.015  -1.675  0.00  0.00    -0.492 OA
ATOM     24  H   UNL     1      -0.459  -6.668  -2.153  0.00  0.00    +0.294 HD
ENDBRANCH  11  23
ENDBRANCH   1  10
BRANCH   1  25
ATOM     25  C   UNL     1       2.264  -4.393   1.165  0.00  0.00    -0.024 A 
ATOM     26  C   UNL     1       2.064  -3.773   2.385  0.00  0.00    +0.005 A 
ATOM     27  C   UNL     1       2.807  -4.157   3.486  0.00  0.00    +0.001 A 
ATOM     28  C   UNL     1       3.750  -5.160   3.368  0.00  0.00    +0.015 A 
ATOM     29  C   UNL     1       3.950  -5.781   2.148  0.00  0.00    +0.018 A 
ATOM     30  C   UNL     1       3.202  -5.400   1.048  0.00  0.00    +0.020 A 
ATOM     31 BR   UNL     1       5.240  -7.154   1.985  0.00  0.00    -0.050 Br
ENDBRANCH   1  25
TORSDOF 5
