REMARK  Name = ZINC59474564
REMARK  6 active torsions:
REMARK  status: ('A' for Active; 'I' for Inactive)
REMARK    1  A    between atoms: C_4  and  N_7
REMARK    2  A    between atoms: N_10  and  C_11
REMARK    3  A    between atoms: C_14  and  C_17
REMARK    4  A    between atoms: C_17  and  C_19
REMARK    5  A    between atoms: C_19  and  C_20
REMARK    6  A    between atoms: C_20  and  O_30
REMARK                            x       y       z     vdW  Elec       q    Type
REMARK                         _______ _______ _______ _____ _____    ______ ____
ROOT
ATOM      1  C   UNL     1       4.726  -4.037  -0.237  0.00  0.00    +0.035 A 
ATOM      2  C   UNL     1       3.525  -4.742  -0.232  0.00  0.00    +0.024 A 
ATOM      3  C   UNL     1       3.533  -6.107  -0.235  0.00  0.00    +0.013 A 
ATOM      4  C   UNL     1       4.751  -6.799  -0.243  0.00  0.00    +0.018 A 
ATOM      5  C   UNL     1       5.956  -6.086  -0.249  0.00  0.00    +0.013 A 
ATOM      6  C   UNL     1       5.939  -4.720  -0.251  0.00  0.00    +0.024 A 
ENDROOT
BRANCH   1  10
ATOM      7  N   UNL     1       5.721  -0.616  -0.800  0.00  0.00    -0.269 N 
ATOM      8  C   UNL     1       5.672  -1.960  -0.888  0.00  0.00    +0.308 C 
ATOM      9  O   UNL     1       6.494  -2.555  -1.559  0.00  0.00    -0.252 OA
ATOM     10  N   UNL     1       4.713  -2.644  -0.234  0.00  0.00    -0.269 N 
ATOM     11  H   UNL     1       5.114  -0.146  -0.206  0.00  0.00    +0.156 HD
ATOM     12  H   UNL     1       4.014  -2.166   0.239  0.00  0.00    +0.156 HD
BRANCH   7  16
ATOM     13  C   UNL     1       8.480   1.524  -3.074  0.00  0.00    +0.000 A 
ATOM     14  C   UNL     1       7.933   0.355  -3.572  0.00  0.00    +0.002 A 
ATOM     15  C   UNL     1       7.018  -0.356  -2.821  0.00  0.00    +0.023 A 
ATOM     16  C   UNL     1       6.648   0.102  -1.563  0.00  0.00    +0.035 A 
ATOM     17  C   UNL     1       7.200   1.276  -1.065  0.00  0.00    +0.023 A 
ATOM     18  C   UNL     1       8.113   1.983  -1.822  0.00  0.00    +0.002 A 
ENDBRANCH   7  16
ENDBRANCH   1  10
BRANCH   4  19
ATOM     19  C   UNL     1       4.764  -8.267  -0.246  0.00  0.00    +0.167 C 
ATOM     20  O   UNL     1       3.719  -8.883  -0.241  0.00  0.00    -0.292 OA
BRANCH  19  21
ATOM     21  C   UNL     1       6.076  -9.009  -0.255  0.00  0.00    +0.129 C 
BRANCH  21  22
ATOM     22  C   UNL     1       5.810 -10.515  -0.257  0.00  0.00    +0.175 C 
ATOM     23  C   UNL     1       7.096 -11.280  -0.047  0.00  0.00    +0.014 A 
ATOM     24  C   UNL     1       8.267 -11.360  -0.767  0.00  0.00    +0.009 A 
ATOM     25  C   UNL     1       9.300 -12.163  -0.319  0.00  0.00    +0.000 A 
ATOM     26  C   UNL     1       9.152 -12.885   0.852  0.00  0.00    +0.002 A 
ATOM     27  C   UNL     1       7.981 -12.807   1.576  0.00  0.00    +0.024 A 
ATOM     28  C   UNL     1       6.936 -12.000   1.131  0.00  0.00    +0.040 A 
ATOM     29  N   UNL     1       5.674 -11.758   1.675  0.00  0.00    -0.282 N 
ATOM     30  C   UNL     1       4.953 -10.904   0.930  0.00  0.00    +0.254 C 
ATOM     31  O   UNL     1       3.828 -10.516   1.163  0.00  0.00    -0.272 OA
ATOM     32  H   UNL     1       5.354 -12.160   2.498  0.00  0.00    +0.155 HD
BRANCH  22  33
ATOM     33  O   UNL     1       5.183 -10.911  -1.478  0.00  0.00    -0.374 OA
ATOM     34  H   UNL     1       4.338 -10.472  -1.646  0.00  0.00    +0.211 HD
ENDBRANCH  22  33
ENDBRANCH  21  22
ENDBRANCH  19  21
ENDBRANCH   4  19
TORSDOF 6
