REMARK  Name = ZINC02859205
REMARK  16 active torsions:
REMARK  status: ('A' for Active; 'I' for Inactive)
REMARK    1  A    between atoms: C_1  and  C_2
REMARK    2  A    between atoms: C_2  and  C_3
REMARK    3  A    between atoms: C_2  and  C_4
REMARK    4  A    between atoms: C_2  and  O_31
REMARK    5  A    between atoms: C_5  and  C_6
REMARK    6  A    between atoms: C_9  and  C_11
REMARK    7  A    between atoms: N_13  and  C_14
REMARK    8  A    between atoms: C_14  and  C_15
REMARK    9  A    between atoms: C_15  and  C_16
REMARK   10  A    between atoms: C_16  and  N_17
REMARK   11  A    between atoms: C_18  and  C_20
REMARK   12  A    between atoms: C_23  and  C_25
REMARK   13  A    between atoms: C_26  and  C_27
REMARK   14  A    between atoms: C_27  and  C_28
REMARK   15  A    between atoms: C_27  and  C_29
REMARK   16  A    between atoms: C_27  and  O_30
REMARK                            x       y       z     vdW  Elec       q    Type
REMARK                         _______ _______ _______ _____ _____    ______ ____
ROOT
ATOM      1  C   UNL     1      -0.734   1.954   1.269  0.00  0.00    +0.037 C 
ENDROOT
BRANCH   1   2
ATOM      2  C   UNL     1      -0.018   1.461   0.010  0.00  0.00    +0.106 C 
BRANCH   2   5
ATOM      3  C   UNL     1       0.585  -0.664  -1.018  0.00  0.00    +0.251 C 
ATOM      4  O   UNL     1       1.095  -0.044  -1.933  0.00  0.00    -0.270 OA
ATOM      5  N   UNL     1       0.002  -0.004   0.002  0.00  0.00    -0.311 N 
ATOM      6  H   UNL     1      -0.404  -0.499   0.731  0.00  0.00    +0.149 HD
BRANCH   3  10
ATOM      7  C   UNL     1       0.407  -4.791  -0.624  0.00  0.00    +0.063 A 
ATOM      8  C   UNL     1       1.048  -4.335  -1.768  0.00  0.00    +0.025 A 
ATOM      9  C   UNL     1       1.148  -2.989  -1.971  0.00  0.00    +0.022 A 
ATOM     10  C   UNL     1       0.605  -2.129  -1.026  0.00  0.00    +0.075 A 
ATOM     11  S   UNL     1      -0.056  -3.266   0.181  0.00  0.00    -0.075 S 
BRANCH   7  13
ATOM     12  C   UNL     1      -0.005  -7.244   0.155  0.00  0.00    -0.062 C 
ATOM     13  C   UNL     1       0.181  -6.139  -0.196  0.00  0.00    -0.056 C 
BRANCH  12  15
ATOM     14  C   UNL     1      -1.071  -9.365  -0.458  0.00  0.00    +0.055 C 
ATOM     15  C   UNL     1      -0.238  -8.629   0.594  0.00  0.00    +0.121 C 
ATOM     16  C   UNL     1       1.105  -9.341   0.770  0.00  0.00    +0.055 C 
BRANCH  15  17
ATOM     17  O   UNL     1      -0.940  -8.622   1.839  0.00  0.00    -0.377 OA
ATOM     18  H   UNL     1      -0.470  -8.171   2.553  0.00  0.00    +0.211 HD
ENDBRANCH  15  17
ENDBRANCH  12  15
ENDBRANCH   7  13
ENDBRANCH   3  10
ENDBRANCH   2   5
ENDBRANCH   1   2
BRANCH   1  19
ATOM     19  C   UNL     1      -0.755   3.484   1.277  0.00  0.00    +0.106 C 
BRANCH  19  20
ATOM     20  N   UNL     1      -1.440   3.957   2.483  0.00  0.00    -0.311 N 
ATOM     21  C   UNL     1      -1.579   5.279   2.704  0.00  0.00    +0.251 C 
ATOM     22  O   UNL     1      -1.135   6.080   1.903  0.00  0.00    -0.270 OA
ATOM     23  H   UNL     1      -1.794   3.318   3.121  0.00  0.00    +0.149 HD
BRANCH  21  24
ATOM     24  C   UNL     1      -2.265   5.751   3.909  0.00  0.00    +0.075 A 
ATOM     25  C   UNL     1      -2.510   7.054   4.319  0.00  0.00    +0.022 A 
ATOM     26  C   UNL     1      -3.176   7.259   5.493  0.00  0.00    +0.025 A 
ATOM     27  C   UNL     1      -3.582   6.155   6.231  0.00  0.00    +0.063 A 
ATOM     28  S   UNL     1      -3.007   4.798   5.224  0.00  0.00    -0.075 S 
BRANCH  27  29
ATOM     29  C   UNL     1      -4.287   6.116   7.477  0.00  0.00    -0.056 C 
ATOM     30  C   UNL     1      -4.864   6.083   8.499  0.00  0.00    -0.062 C 
BRANCH  30  31
ATOM     31  C   UNL     1      -5.588   6.043   9.780  0.00  0.00    +0.121 C 
ATOM     32  C   UNL     1      -4.767   6.760  10.853  0.00  0.00    +0.055 C 
ATOM     33  C   UNL     1      -6.942   6.738   9.623  0.00  0.00    +0.055 C 
BRANCH  31  34
ATOM     34  O   UNL     1      -5.794   4.683  10.168  0.00  0.00    -0.377 OA
ATOM     35  H   UNL     1      -6.308   4.166   9.533  0.00  0.00    +0.211 HD
ENDBRANCH  31  34
ENDBRANCH  30  31
ENDBRANCH  27  29
ENDBRANCH  21  24
ENDBRANCH  19  20
ENDBRANCH   1  19
TORSDOF 12
