REMARK  Name = ZINC35325789
REMARK  7 active torsions:
REMARK  status: ('A' for Active; 'I' for Inactive)
REMARK    1  A    between atoms: C_4  and  N_7
REMARK    2  A    between atoms: C_8  and  C_10
REMARK    3  A    between atoms: C_12  and  S_24
REMARK    4  A    between atoms: C_15  and  S_16
REMARK    5  A    between atoms: S_16  and  C_17
REMARK    6  A    between atoms: C_22  and  N_23
REMARK    7  A    between atoms: S_24  and  N_27
REMARK                            x       y       z     vdW  Elec       q    Type
REMARK                         _______ _______ _______ _____ _____    ______ ____
ROOT
ATOM      1  C   UNL     1       4.944  -2.722   0.020  0.00  0.00    +0.053 A 
ATOM      2  C   UNL     1       6.148  -2.017  -0.063  0.00  0.00    +0.042 A 
ATOM      3  C   UNL     1       7.346  -2.697  -0.025  0.00  0.00    +0.106 A 
ATOM      4  C   UNL     1       7.365  -4.078   0.095  0.00  0.00    +0.029 A 
ATOM      5  C   UNL     1       6.186  -4.788   0.179  0.00  0.00    +0.018 A 
ATOM      6  C   UNL     1       4.967  -4.120   0.148  0.00  0.00    +0.025 A 
ENDROOT
BRANCH   1   8
ATOM      7  N   UNL     1       3.643  -0.659  -0.141  0.00  0.00    -0.281 N 
ATOM      8  C   UNL     1       3.659  -2.001  -0.019  0.00  0.00    +0.249 C 
ATOM      9  O   UNL     1       2.614  -2.618   0.059  0.00  0.00    -0.270 OA
ATOM     10  H   UNL     1       4.472  -0.174  -0.271  0.00  0.00    +0.155 HD
BRANCH   7  14
ATOM     11  C   UNL     1       0.029   1.404   0.037  0.00  0.00    +0.000 A 
ATOM     12  C   UNL     1       1.173   1.970   0.568  0.00  0.00    +0.002 A 
ATOM     13  C   UNL     1       2.373   1.289   0.511  0.00  0.00    +0.023 A 
ATOM     14  C   UNL     1       2.429   0.033  -0.081  0.00  0.00    +0.034 A 
ATOM     15  C   UNL     1       1.278  -0.532  -0.613  0.00  0.00    +0.023 A 
ATOM     16  C   UNL     1       0.081   0.155  -0.553  0.00  0.00    +0.002 A 
ENDBRANCH   7  14
ENDBRANCH   1   8
BRANCH   3  17
ATOM     17  S   UNL     1       8.862  -1.805  -0.131  0.00  0.00    +0.061 S 
ATOM     18  O   UNL     1       9.835  -2.717  -0.622  0.00  0.00    -0.153 OA
ATOM     19  O   UNL     1       8.568  -0.579  -0.786  0.00  0.00    -0.153 OA
BRANCH  17  20
ATOM     20  N   UNL     1       9.312  -1.419   1.415  0.00  0.00    -0.172 NA
ATOM     21  C   UNL     1       8.871  -0.163   2.041  0.00  0.00    +0.137 C 
ATOM     22  C   UNL     1       8.271  -0.491   3.413  0.00  0.00    +0.177 C 
ATOM     23  O   UNL     1       9.202  -1.279   4.158  0.00  0.00    -0.377 OA
ATOM     24  C   UNL     1       9.502  -2.546   3.567  0.00  0.00    +0.177 C 
ATOM     25  C   UNL     1      10.160  -2.326   2.206  0.00  0.00    +0.137 C 
ENDBRANCH  17  20
ENDBRANCH   3  17
BRANCH   6  26
ATOM     26  S   UNL     1       3.458  -5.024   0.261  0.00  0.00    -0.087 S 
BRANCH  26  27
ATOM     27  C   UNL     1       3.977  -6.686   0.536  0.00  0.00    +0.033 A 
ATOM     28  C   UNL     1       3.891  -7.240   1.806  0.00  0.00    +0.017 A 
ATOM     29  C   UNL     1       4.297  -8.543   2.019  0.00  0.00    +0.001 A 
ATOM     30  C   UNL     1       4.791  -9.299   0.971  0.00  0.00    +0.002 A 
ATOM     31  C   UNL     1       4.880  -8.755  -0.297  0.00  0.00    +0.024 A 
ATOM     32  C   UNL     1       4.469  -7.450  -0.522  0.00  0.00    +0.038 A 
BRANCH  32  33
ATOM     33  N   UNL     1       4.554  -6.899  -1.806  0.00  0.00    -0.357 N 
ATOM     34  H   UNL     1       4.269  -5.984  -1.960  0.00  0.00    +0.142 HD
ATOM     35  H   UNL     1       4.896  -7.431  -2.540  0.00  0.00    +0.142 HD
ENDBRANCH  32  33
ENDBRANCH  26  27
ENDBRANCH   6  26
TORSDOF 7
