REMARK  Name = ZINC39534050
REMARK  6 active torsions:
REMARK  status: ('A' for Active; 'I' for Inactive)
REMARK    1  A    between atoms: C_4  and  O_26
REMARK    2  A    between atoms: C_5  and  C_7
REMARK    3  A    between atoms: C_10  and  C_13
REMARK    4  A    between atoms: C_13  and  C_15
REMARK    5  A    between atoms: C_13  and  N_18
REMARK    6  A    between atoms: C_15  and  N_16
REMARK                            x       y       z     vdW  Elec       q    Type
REMARK                         _______ _______ _______ _____ _____    ______ ____
ROOT
ATOM      1  C   UNL     1       1.378  -2.174  -0.310  0.00  0.00    -0.014 A 
ATOM      2  C   UNL     1       2.234  -2.935  -1.103  0.00  0.00    +0.009 A 
ATOM      3  C   UNL     1       2.211  -4.312  -1.014  0.00  0.00    +0.006 A 
ATOM      4  C   UNL     1       1.340  -4.936  -0.139  0.00  0.00    -0.029 A 
ATOM      5  C   UNL     1       0.488  -4.186   0.650  0.00  0.00    +0.006 A 
ATOM      6  C   UNL     1       0.506  -2.808   0.573  0.00  0.00    +0.009 A 
ENDROOT
BRANCH   1  11
ATOM      7  C   UNL     1       0.234   1.391  -0.649  0.00  0.00    +0.001 A 
ATOM      8  C   UNL     1       1.435   2.073  -0.573  0.00  0.00    +0.004 A 
ATOM      9  C   UNL     1       2.621   1.381  -0.412  0.00  0.00    +0.046 A 
ATOM     10  C   UNL     1       2.611  -0.002  -0.325  0.00  0.00    +0.125 A 
ATOM     11  C   UNL     1       1.398  -0.693  -0.402  0.00  0.00    +0.024 A 
ATOM     12  C   UNL     1       0.209   0.014  -0.565  0.00  0.00    +0.012 A 
BRANCH  10  13
ATOM     13  O   UNL     1       3.775  -0.683  -0.167  0.00  0.00    -0.506 OA
ATOM     14  H   UNL     1       4.026  -0.825   0.756  0.00  0.00    +0.292 HD
ENDBRANCH  10  13
ENDBRANCH   1  11
BRANCH   4  15
ATOM     15  C   UNL     1       1.319  -6.441  -0.046  0.00  0.00    +0.101 C 
BRANCH  15  16
ATOM     16  N   UNL     1       1.282  -6.844   1.366  0.00  0.00    -0.295 NA
ATOM     17  C   UNL     1       2.048  -8.080   1.581  0.00  0.00    +0.066 C 
ATOM     18  C   UNL     1       2.034  -8.432   3.070  0.00  0.00    -0.063 C 
ATOM     19  N   UNL     1       0.647  -8.610   3.518  0.00  0.00    +0.400 N 
ATOM     20  C   UNL     1      -0.098  -7.360   3.320  0.00  0.00    +0.116 C 
ATOM     21  C   UNL     1      -0.102  -6.999   1.833  0.00  0.00    +0.100 C 
ATOM     22  O   UNL     1      -1.443  -7.530   3.773  0.00  0.00    -0.251 OA
ATOM     23  H   UNL     1       0.213  -9.348   2.984  0.00  0.00    -0.082 HD
ATOM     24  H   UNL     1       0.639  -8.855   4.497  0.00  0.00    -0.082 HD
ENDBRANCH  15  16
BRANCH  15  25
ATOM     25  C   UNL     1       0.079  -6.979  -0.763  0.00  0.00    +0.115 C 
BRANCH  25  26
ATOM     26  N   UNL     1       0.026  -8.440  -0.620  0.00  0.00    -0.259 NA
ATOM     27  I   UNL     1      -1.621  -9.211  -1.565  0.00  0.00    +0.018 I 
ATOM     28  H   UNL     1       0.873  -8.868  -0.962  0.00  0.00    +0.134 HD
ENDBRANCH  25  26
ENDBRANCH  15  25
ENDBRANCH   4  15
TORSDOF 6
