REMARK  Name = ZINC61692328
REMARK  3 active torsions:
REMARK  status: ('A' for Active; 'I' for Inactive)
REMARK    1  A    between atoms: C_4  and  N_8
REMARK    2  A    between atoms: N_8  and  S_9
REMARK    3  A    between atoms: S_9  and  C_12
REMARK                            x       y       z     vdW  Elec       q    Type
REMARK                         _______ _______ _______ _____ _____    ______ ____
ROOT
ATOM      1  S   UNL     1       3.645  -2.307  -0.045  0.00  0.00    +0.092 S 
ATOM      2  O   UNL     1       3.113  -2.728   1.203  0.00  0.00    -0.148 OA
ATOM      3  O   UNL     1       3.088  -2.714  -1.288  0.00  0.00    -0.148 OA
ENDROOT
BRANCH   1   4
ATOM      4  C   UNL     1       5.336  -2.803  -0.065  0.00  0.00    +0.115 A 
ATOM      5  C   UNL     1       6.007  -2.990  -1.264  0.00  0.00    +0.048 A 
ATOM      6  C   UNL     1       7.332  -3.380  -1.241  0.00  0.00    +0.114 A 
ATOM      7  N   UNL     1       7.959  -3.573  -0.097  0.00  0.00    -0.243 NA
ATOM      8  C   UNL     1       7.353  -3.404   1.063  0.00  0.00    +0.131 A 
ATOM      9  C   UNL     1       6.028  -3.009   1.118  0.00  0.00    +0.069 A 
ATOM     10 CL   UNL     1       8.230  -3.672   2.537  0.00  0.00    -0.062 Cl
ENDBRANCH   1   4
BRANCH   1  11
ATOM     11  N   UNL     1       3.621  -0.651  -0.036  0.00  0.00    -0.096 NA
BRANCH  11  15
ATOM     12  C   UNL     1      -0.017   1.379   0.010  0.00  0.00    +0.017 A 
ATOM     13  C   UNL     1       1.170   2.090   0.002  0.00  0.00    +0.023 A 
ATOM     14  C   UNL     1       2.378   1.420  -0.013  0.00  0.00    +0.065 A 
ATOM     15  C   UNL     1       2.400   0.030  -0.021  0.00  0.00    +0.094 A 
ATOM     16  C   UNL     1       1.208  -0.680  -0.013  0.00  0.00    +0.043 A 
ATOM     17  C   UNL     1       0.002  -0.004   0.002  0.00  0.00    +0.020 A 
ATOM     18 BR   UNL     1      -1.623  -0.971   0.013  0.00  0.00    -0.050 Br
ATOM     19 CL   UNL     1       3.867   2.313  -0.023  0.00  0.00    -0.082 Cl
ENDBRANCH  11  15
ENDBRANCH   1  11
TORSDOF 3
