REMARK  Name = ZINC57990417
REMARK  7 active torsions:
REMARK  status: ('A' for Active; 'I' for Inactive)
REMARK    1  A    between atoms: C_1  and  C_2
REMARK    2  A    between atoms: C_2  and  N_3
REMARK    3  A    between atoms: N_3  and  C_4
REMARK    4  A    between atoms: N_3  and  C_6
REMARK    5  A    between atoms: C_4  and  C_5
REMARK    6  A    between atoms: C_9  and  C_12
REMARK    7  A    between atoms: N_21  and  C_24
REMARK                            x       y       z     vdW  Elec       q    Type
REMARK                         _______ _______ _______ _____ _____    ______ ____
ROOT
ATOM      1  C   UNL     1       0.364  -6.132  -1.473  0.00  0.00    +0.190 C 
ATOM      2  N   UNL     1      -0.838  -6.511  -2.236  0.00  0.00    -0.316 N 
ATOM      3  C   UNL     1      -2.028  -6.516  -1.549  0.00  0.00    +0.080 A 
ATOM      4  C   UNL     1      -2.091  -6.680  -0.157  0.00  0.00    +0.068 A 
ATOM      5  C   UNL     1      -3.424  -6.649   0.415  0.00  0.00    -0.027 A 
ATOM      6  C   UNL     1      -4.420  -6.473  -0.483  0.00  0.00    -0.021 A 
ATOM      7  S   UNL     1      -3.602  -6.350  -2.048  0.00  0.00    -0.080 S 
ATOM      8  C   UNL     1      -5.883  -6.406  -0.179  0.00  0.00    -0.036 C 
ATOM      9  N   UNL     1      -6.100  -6.935   1.181  0.00  0.00    +0.381 N 
ATOM     10  C   UNL     1      -5.177  -6.279   2.117  0.00  0.00    -0.074 C 
ATOM     11  C   UNL     1      -3.749  -6.792   1.896  0.00  0.00    +0.018 C 
ATOM     12  C   UNL     1      -7.484  -6.670   1.594  0.00  0.00    -0.096 C 
ATOM     13  C   UNL     1      -0.816  -6.873   0.572  0.00  0.00    +0.248 C 
ATOM     14  O   UNL     1      -0.799  -7.199   1.745  0.00  0.00    -0.270 OA
ATOM     15  N   UNL     1       0.325  -6.673  -0.118  0.00  0.00    -0.289 N 
ATOM     16  H   UNL     1      -0.792  -6.745  -3.176  0.00  0.00    +0.149 HD
ATOM     17  H   UNL     1       1.165  -6.901   0.309  0.00  0.00    +0.151 HD
ATOM     18  H   UNL     1      -5.932  -7.930   1.185  0.00  0.00    -0.082 HD
ENDROOT
BRANCH   1  22
ATOM     19  C   UNL     1       0.609  -1.872  -1.272  0.00  0.00    +0.013 A 
ATOM     20  C   UNL     1       1.141  -2.643  -0.256  0.00  0.00    +0.022 A 
ATOM     21  C   UNL     1       1.062  -4.022  -0.321  0.00  0.00    +0.009 A 
ATOM     22  C   UNL     1       0.450  -4.629  -1.402  0.00  0.00    -0.009 A 
ATOM     23  C   UNL     1      -0.082  -3.857  -2.418  0.00  0.00    +0.009 A 
ATOM     24  C   UNL     1      -0.007  -2.479  -2.351  0.00  0.00    +0.022 A 
BRANCH  19  25
ATOM     25  N   UNL     1       0.690  -0.478  -1.207  0.00  0.00    -0.394 NA
ATOM     26  H   UNL     1       0.251  -0.077  -2.022  0.00  0.00    +0.126 HD
BRANCH  25  28
ATOM     27  C   UNL     1      -0.019   1.526   0.010  0.00  0.00    +0.022 C 
ATOM     28  C   UNL     1       0.002  -0.004   0.002  0.00  0.00    +0.081 C 
ENDBRANCH  25  28
BRANCH  25  29
ATOM     29  C   UNL     1       2.100  -0.070  -1.159  0.00  0.00    +0.081 C 
ATOM     30  C   UNL     1       2.786  -0.454  -2.472  0.00  0.00    +0.022 C 
ENDBRANCH  25  29
ENDBRANCH  19  25
ENDBRANCH   1  22
TORSDOF 4
