REMARK  Name = ZINC39710546
REMARK  14 active torsions:
REMARK  status: ('A' for Active; 'I' for Inactive)
REMARK    1  A    between atoms: C_1  and  C_2
REMARK    2  A    between atoms: C_2  and  C_3
REMARK    3  A    between atoms: C_10  and  C_15
REMARK    4  A    between atoms: C_15  and  C_17
REMARK    5  A    between atoms: C_15  and  N_27
REMARK    6  A    between atoms: N_22  and  C_23
REMARK    7  A    between atoms: C_23  and  C_24
REMARK    8  A    between atoms: C_23  and  C_25
REMARK    9  A    between atoms: C_23  and  C_26
REMARK   10  A    between atoms: N_27  and  C_28
REMARK   11  A    between atoms: N_27  and  C_36
REMARK   12  A    between atoms: C_28  and  C_29
REMARK   13  A    between atoms: C_29  and  C_30
REMARK   14  A    between atoms: C_36  and  C_37
REMARK                            x       y       z     vdW  Elec       q    Type
REMARK                         _______ _______ _______ _____ _____    ______ ____
ROOT
ATOM      1  C   UNL     1       0.297  -3.496   6.237  0.00  0.00    +0.115 C 
ENDROOT
BRANCH   1   9
ATOM      2  C   UNL     1       5.140  -1.947   9.100  0.00  0.00    -0.047 A 
ATOM      3  C   UNL     1       4.402  -1.365  10.130  0.00  0.00    +0.005 A 
ATOM      4  C   UNL     1       3.068  -1.127  10.033  0.00  0.00    +0.024 A 
ATOM      5  C   UNL     1       2.365  -1.469   8.863  0.00  0.00    +0.040 A 
ATOM      6  N   UNL     1       1.056  -1.231   8.778  0.00  0.00    -0.284 N 
ATOM      7  C   UNL     1       0.336  -1.527   7.709  0.00  0.00    +0.226 C 
ATOM      8  O   UNL     1      -0.856  -1.286   7.691  0.00  0.00    -0.275 OA
ATOM      9  C   UNL     1       1.001  -2.165   6.510  0.00  0.00    +0.119 C 
ATOM     10  C   UNL     1       2.489  -2.437   6.601  0.00  0.00    -0.003 C 
ATOM     11  C   UNL     1       3.120  -2.086   7.758  0.00  0.00    -0.007 A 
ATOM     12  C   UNL     1       4.556  -2.308   7.928  0.00  0.00    +0.013 A 
ATOM     13  H   UNL     1       0.611  -0.822   9.537  0.00  0.00    +0.155 HD
BRANCH   2  15
ATOM     14  C   UNL     1       7.389  -0.942   8.813  0.00  0.00    +0.009 C 
ATOM     15  C   UNL     1       6.618  -2.175   9.288  0.00  0.00    +0.032 C 
ENDBRANCH   2  15
ENDBRANCH   1   9
BRANCH   1  16
ATOM     16  C   UNL     1       0.441  -4.409   7.456  0.00  0.00    +0.236 C 
ATOM     17  N   UNL     1       1.820  -4.901   7.569  0.00  0.00    -0.148 NA
ATOM     18  N   UNL     1       1.813  -6.131   7.484  0.00  0.00    -0.069 NA
ATOM     19  N   UNL     1       0.533  -6.655   7.312  0.00  0.00    -0.179 N 
ATOM     20  N   UNL     1      -0.378  -5.628   7.287  0.00  0.00    -0.179 NA
ATOM     21  H   UNL     1       0.319  -7.597   7.224  0.00  0.00    +0.191 HD
BRANCH  20  22
ATOM     22  C   UNL     1      -1.355  -5.761   8.376  0.00  0.00    +0.035 C 
ATOM     23  C   UNL     1      -2.283  -4.545   8.381  0.00  0.00    +0.029 C 
ATOM     24  C   UNL     1      -2.181  -7.032   8.167  0.00  0.00    +0.029 C 
ATOM     25  C   UNL     1      -0.619  -5.846   9.715  0.00  0.00    +0.029 C 
ENDBRANCH  20  22
ENDBRANCH   1  16
BRANCH   1  26
ATOM     26  N   UNL     1       0.908  -4.142   5.067  0.00  0.00    -0.290 NA
BRANCH  26  27
ATOM     27  C   UNL     1       1.116  -3.175   3.981  0.00  0.00    +0.090 C 
BRANCH  27  28
ATOM     28  C   UNL     1       2.001  -3.803   2.902  0.00  0.00    +0.050 C 
BRANCH  28  29
ATOM     29  C   UNL     1       2.320  -2.771   1.851  0.00  0.00    -0.046 A 
ATOM     30  C   UNL     1       1.487  -2.616   0.759  0.00  0.00    +0.003 A 
ATOM     31  C   UNL     1       1.780  -1.669  -0.205  0.00  0.00    +0.000 A 
ATOM     32  C   UNL     1       2.906  -0.878  -0.076  0.00  0.00    +0.000 A 
ATOM     33  C   UNL     1       3.739  -1.032   1.016  0.00  0.00    +0.000 A 
ATOM     34  C   UNL     1       3.443  -1.976   1.983  0.00  0.00    +0.003 A 
ENDBRANCH  28  29
ENDBRANCH  27  28
ENDBRANCH  26  27
BRANCH  26  35
ATOM     35  C   UNL     1       0.098  -5.279   4.611  0.00  0.00    +0.127 C 
BRANCH  35  36
ATOM     36  C   UNL     1      -1.225  -4.778   4.093  0.00  0.00    +0.004 A 
ATOM     37  C   UNL     1      -1.587  -4.484   2.820  0.00  0.00    +0.012 A 
ATOM     38  C   UNL     1      -2.871  -4.034   2.575  0.00  0.00    +0.008 A 
ATOM     39  C   UNL     1      -3.730  -3.901   3.615  0.00  0.00    +0.045 A 
ATOM     40  S   UNL     1      -2.725  -4.425   4.994  0.00  0.00    -0.100 S 
ENDBRANCH  35  36
ENDBRANCH  26  35
ENDBRANCH   1  26
TORSDOF 10
