REMARK  Name = ZINC58899977
REMARK  7 active torsions:
REMARK  status: ('A' for Active; 'I' for Inactive)
REMARK    1  A    between atoms: C_1  and  C_2
REMARK    2  A    between atoms: C_5  and  C_7
REMARK    3  A    between atoms: C_10  and  C_23
REMARK    4  A    between atoms: N_12  and  C_20
REMARK    5  A    between atoms: C_15  and  N_19
REMARK    6  A    between atoms: C_16  and  C_17
REMARK    7  A    between atoms: C_20  and  N_22
REMARK                            x       y       z     vdW  Elec       q    Type
REMARK                         _______ _______ _______ _____ _____    ______ ____
ROOT
ATOM      1  C   UNL     1       1.043  -4.062  -0.027  0.00  0.00    +0.108 C 
ATOM      2  C   UNL     1       1.893  -4.273  -1.253  0.00  0.00    +0.050 A 
ATOM      3  C   UNL     1       1.505  -4.400  -2.582  0.00  0.00    +0.068 A 
ATOM      4  N   UNL     1       2.581  -4.569  -3.311  0.00  0.00    -0.167 NA
ATOM      5  N   UNL     1       3.700  -4.555  -2.464  0.00  0.00    -0.179 N 
ATOM      6  C   UNL     1       3.254  -4.372  -1.198  0.00  0.00    +0.231 A 
ATOM      7  O   UNL     1       3.949  -4.292  -0.036  0.00  0.00    -0.423 OA
ATOM      8  C   UNL     1       3.252  -4.383   1.115  0.00  0.00    +0.200 C 
ATOM      9  C   UNL     1       1.905  -4.288   1.190  0.00  0.00    +0.099 C 
ATOM     10  C   UNL     1       0.089  -4.352  -3.096  0.00  0.00    +0.068 C 
ENDROOT
BRANCH   1  15
ATOM     11  C   UNL     1      -0.018   1.503   0.010  0.00  0.00    +0.051 C 
ATOM     12  C   UNL     1       0.002  -0.004   0.002  0.00  0.00    -0.013 A 
ATOM     13  C   UNL     1      -1.039  -0.872   0.002  0.00  0.00    +0.011 A 
ATOM     14  C   UNL     1      -0.780  -2.230  -0.007  0.00  0.00    +0.012 A 
ATOM     15  C   UNL     1       0.507  -2.653  -0.016  0.00  0.00    +0.003 A 
ATOM     16  S   UNL     1       1.404  -1.109  -0.018  0.00  0.00    -0.097 S 
ENDBRANCH   1  15
BRANCH   8  17
ATOM     17  N   UNL     1       3.951  -4.585   2.279  0.00  0.00    -0.328 N 
ATOM     18  H   UNL     1       4.918  -4.657   2.258  0.00  0.00    +0.145 HD
ATOM     19  H   UNL     1       3.478  -4.654   3.123  0.00  0.00    +0.145 HD
ENDBRANCH   8  17
BRANCH   9  20
ATOM     20  C   UNL     1       1.274  -4.405   2.470  0.00  0.00    +0.101 C 
ATOM     21  N   UNL     1       0.774  -4.498   3.486  0.00  0.00    -0.191 NA
ENDBRANCH   9  20
BRANCH   5  22
ATOM     22  C   UNL     1       4.986  -4.698  -2.841  0.00  0.00    +0.167 C 
ATOM     23  S   UNL     1       6.232  -4.656  -1.668  0.00  0.00    -0.014 S 
BRANCH  22  24
ATOM     24  N   UNL     1       5.291  -4.873  -4.142  0.00  0.00    -0.337 N 
ATOM     25  H   UNL     1       4.585  -4.897  -4.807  0.00  0.00    +0.144 HD
ATOM     26  H   UNL     1       6.216  -4.976  -4.414  0.00  0.00    +0.144 HD
ENDBRANCH  22  24
ENDBRANCH   5  22
TORSDOF 5
