REMARK  Name = ZINC33683483
REMARK  8 active torsions:
REMARK  status: ('A' for Active; 'I' for Inactive)
REMARK    1  A    between atoms: C_1  and  C_2
REMARK    2  A    between atoms: C_2  and  C_4
REMARK    3  A    between atoms: C_4  and  O_31
REMARK    4  A    between atoms: C_9  and  C_30
REMARK    5  A    between atoms: C_17  and  O_29
REMARK    6  A    between atoms: C_19  and  O_28
REMARK    7  A    between atoms: C_20  and  C_27
REMARK    8  A    between atoms: C_23  and  O_26
REMARK                            x       y       z     vdW  Elec       q    Type
REMARK                         _______ _______ _______ _____ _____    ______ ____
ROOT
ATOM      1  C   UNL     1      -1.832   3.770  -0.197  0.00  0.00    +0.129 C 
ATOM      2  C   UNL     1      -2.836   2.594  -0.190  0.00  0.00    +0.043 C 
ATOM      3  C   UNL     1      -2.157   1.432  -0.939  0.00  0.00    +0.008 C 
ATOM      4  C   UNL     1      -0.741   1.937  -1.330  0.00  0.00    +0.002 C 
ATOM      5  C   UNL     1      -0.927   3.460  -1.404  0.00  0.00    +0.007 C 
ATOM      6  C   UNL     1       0.378   4.220  -1.363  0.00  0.00    +0.010 C 
ATOM      7  C   UNL     1       1.207   3.815  -0.147  0.00  0.00    +0.005 C 
ATOM      8  C   UNL     1       1.503   2.310  -0.230  0.00  0.00    +0.001 C 
ATOM      9  C   UNL     1       0.192   1.540  -0.180  0.00  0.00    -0.001 C 
ATOM     10  C   UNL     1       0.415   0.029  -0.254  0.00  0.00    +0.038 C 
ATOM     11  C   UNL     1       1.630  -0.389   0.574  0.00  0.00    +0.147 C 
ATOM     12  C   UNL     1       1.876   0.678   1.633  0.00  0.00    +0.100 C 
ATOM     13  C   UNL     1       2.399   1.941   0.946  0.00  0.00    +0.002 C 
ATOM     14  C   UNL     1       2.492   3.062   1.976  0.00  0.00    +0.012 C 
ATOM     15  C   UNL     1       3.482   2.642   3.069  0.00  0.00    +0.032 C 
ATOM     16  C   UNL     1       3.026   1.340   3.727  0.00  0.00    +0.117 C 
ATOM     17  C   UNL     1       2.904   0.231   2.672  0.00  0.00    +0.069 C 
ATOM     18  C   UNL     1       3.801   1.657   0.401  0.00  0.00    +0.014 C 
ATOM     19  C   UNL     1      -1.680   3.816  -2.688  0.00  0.00    +0.015 C 
ENDROOT
BRANCH   1  21
ATOM     20  C   UNL     1      -1.882   6.372   0.001  0.00  0.00    +0.089 C 
ATOM     21  C   UNL     1      -2.550   5.080  -0.393  0.00  0.00    +0.162 C 
ATOM     22  O   UNL     1      -3.660   5.095  -0.868  0.00  0.00    -0.295 OA
ENDBRANCH   1  21
BRANCH  16  23
ATOM     23  O   UNL     1       3.980   0.950   4.716  0.00  0.00    -0.392 OA
ATOM     24  H   UNL     1       3.823   0.031   5.300  0.00  0.00    +0.210 HD
ENDBRANCH  16  23
BRANCH  12  25
ATOM     25  O   UNL     1       0.644   0.986   2.289  0.00  0.00    -0.385 OA
ATOM     26  H   UNL     1       0.621   1.740   3.090  0.00  0.00    +0.210 HD
ENDBRANCH  12  25
BRANCH  11  27
ATOM     27  O   UNL     1       1.373  -1.645   1.206  0.00  0.00    -0.389 OA
ATOM     28  H   UNL     1       2.140  -2.106   1.846  0.00  0.00    +0.210 HD
ENDBRANCH  11  27
BRANCH   1  29
ATOM     29  O   UNL     1      -1.069   3.789   1.012  0.00  0.00    -0.381 OA
ATOM     30  H   UNL     1      -0.483   2.906   1.306  0.00  0.00    +0.211 HD
ENDBRANCH   1  29
TORSDOF 5
