REMARK  Name = ZINC09671900
REMARK  4 active torsions:
REMARK  status: ('A' for Active; 'I' for Inactive)
REMARK    1  A    between atoms: C_3  and  C_6
REMARK    2  A    between atoms: C_11  and  C_12
REMARK    3  A    between atoms: C_11  and  N_42
REMARK    4  A    between atoms: N_14  and  C_15
REMARK                            x       y       z     vdW  Elec       q    Type
REMARK                         _______ _______ _______ _____ _____    ______ ____
ROOT
ATOM      1  C   UNL     1       3.972   2.876  -3.103  0.00  0.00    +0.201 C 
ATOM      2  O   UNL     1       4.517   3.814  -2.561  0.00  0.00    -0.278 OA
ATOM      3  N   UNL     1       3.986   2.774  -4.447  0.00  0.00    -0.286 N 
ATOM      4  H   UNL     1       3.622   1.985  -4.877  0.00  0.00    +0.155 HD
ENDROOT
BRANCH   3   5
ATOM      5  C   UNL     1       4.526   3.808  -5.223  0.00  0.00    +0.049 A 
ATOM      6  C   UNL     1       4.570   5.100  -4.720  0.00  0.00    +0.052 A 
ATOM      7  C   UNL     1       5.105   6.121  -5.489  0.00  0.00    +0.069 A 
ATOM      8  C   UNL     1       5.598   5.846  -6.767  0.00  0.00    +0.068 A 
ATOM      9  C   UNL     1       5.552   4.553  -7.264  0.00  0.00    +0.045 A 
ATOM     10  C   UNL     1       5.023   3.536  -6.492  0.00  0.00    +0.041 A 
ATOM     11 BR   UNL     1       4.968   1.771  -7.169  0.00  0.00    -0.048 Br
ATOM     12  N   UNL     1       6.063   7.054  -7.286  0.00  0.00    -0.306 N 
ATOM     13  H   UNL     1       6.464   7.179  -8.161  0.00  0.00    +0.170 HD
ATOM     14  C   UNL     1       5.862   8.017  -6.367  0.00  0.00    +0.325 A 
ATOM     15  O   UNL     1       6.156   9.190  -6.505  0.00  0.00    -0.247 OA
ATOM     16  N   UNL     1       5.285   7.486  -5.272  0.00  0.00    -0.306 N 
ATOM     17  H   UNL     1       5.038   7.970  -4.470  0.00  0.00    +0.170 HD
ENDBRANCH   3   5
BRANCH   1  18
ATOM     18  C   UNL     1       3.281   1.824  -2.275  0.00  0.00    +0.020 C 
BRANCH  18  23
ATOM     19  C   UNL     1       2.542   1.287  -0.018  0.00  0.00    -0.030 C 
ATOM     20  C   UNL     1       3.156   1.365   1.397  0.00  0.00    -0.012 C 
ATOM     21  C   UNL     1       4.630   1.761   1.172  0.00  0.00    -0.020 C 
ATOM     22  C   UNL     1       4.782   1.888  -0.359  0.00  0.00    -0.077 C 
ATOM     23  N   UNL     1       3.420   2.146  -0.819  0.00  0.00    +0.390 N 
ATOM     24  H   UNL     1       3.180   3.133  -0.668  0.00  0.00    -0.080 HD
BRANCH  19  27
ATOM     25  C   UNL     1      -1.232   1.805   0.005  0.00  0.00    +0.008 A 
ATOM     26  C   UNL     1      -0.037   1.111  -0.001  0.00  0.00    +0.009 A 
ATOM     27  C   UNL     1       1.127   1.805  -0.006  0.00  0.00    -0.024 A 
ATOM     28  S   UNL     1       0.549   3.494   0.006  0.00  0.00    -0.103 S 
ATOM     29  C   UNL     1      -1.205   3.160   0.017  0.00  0.00    +0.045 A 
ENDBRANCH  19  27
ENDBRANCH  18  23
ENDBRANCH   1  18
TORSDOF 4
