REMARK  Name = ZINC00644825
REMARK  7 active torsions:
REMARK  status: ('A' for Active; 'I' for Inactive)
REMARK    1  A    between atoms: C_3  and  C_9
REMARK    2  A    between atoms: C_9  and  S_10
REMARK    3  A    between atoms: S_10  and  C_13
REMARK    4  A    between atoms: C_13  and  C_19
REMARK    5  A    between atoms: C_14  and  N_15
REMARK    6  A    between atoms: N_15  and  C_16
REMARK    7  A    between atoms: C_16  and  N_18
REMARK                            x       y       z     vdW  Elec       q    Type
REMARK                         _______ _______ _______ _____ _____    ______ ____
ROOT
ATOM      1  C   UNL     1       4.517  -0.106  -1.577  0.00  0.00    +0.111 C 
ATOM      2  C   UNL     1       4.623  -1.377  -1.972  0.00  0.00    +0.101 C 
ENDROOT
BRANCH   1   3
ATOM      3  C   UNL     1       5.569   0.495  -0.735  0.00  0.00    +0.019 A 
ATOM      4  C   UNL     1       6.359   1.534  -1.233  0.00  0.00    +0.013 A 
ATOM      5  C   UNL     1       7.341   2.091  -0.441  0.00  0.00    +0.021 A 
ATOM      6  C   UNL     1       7.546   1.623   0.847  0.00  0.00    +0.042 A 
ATOM      7  C   UNL     1       6.767   0.594   1.347  0.00  0.00    +0.040 A 
ATOM      8  C   UNL     1       5.777   0.031   0.567  0.00  0.00    +0.051 A 
ATOM      9 CL   UNL     1       4.796  -1.255   1.199  0.00  0.00    -0.083 Cl
ATOM     10 CL   UNL     1       8.784   2.330   1.836  0.00  0.00    -0.083 Cl
ENDBRANCH   1   3
BRANCH   1  11
ATOM     11  S   UNL     1       3.121   0.854  -2.060  0.00  0.00    +0.003 S 
ATOM     12  O   UNL     1       2.343  -0.019  -2.868  0.00  0.00    -0.169 OA
ATOM     13  O   UNL     1       3.671   2.046  -2.604  0.00  0.00    -0.169 OA
BRANCH  11  14
ATOM     14  C   UNL     1       2.247   1.219  -0.513  0.00  0.00    +0.208 C 
BRANCH  14  17
ATOM     15  C   UNL     1      -1.306   2.179  -1.353  0.00  0.00    +0.020 A 
ATOM     16  C   UNL     1      -0.183   1.422  -1.074  0.00  0.00    +0.008 A 
ATOM     17  C   UNL     1       1.022   2.045  -0.810  0.00  0.00    -0.008 A 
ATOM     18  C   UNL     1       1.105   3.426  -0.819  0.00  0.00    +0.047 A 
ATOM     19  C   UNL     1      -0.019   4.184  -1.092  0.00  0.00    +0.040 A 
ATOM     20  C   UNL     1      -1.226   3.560  -1.356  0.00  0.00    +0.042 A 
ATOM     21 CL   UNL     1      -2.638   4.511  -1.698  0.00  0.00    -0.083 Cl
ATOM     22 CL   UNL     1       2.619   4.207  -0.489  0.00  0.00    -0.083 Cl
ENDBRANCH  14  17
ENDBRANCH  11  14
ENDBRANCH   1  11
BRANCH   2  23
ATOM     23  N   UNL     1       5.776  -2.096  -1.695  0.00  0.00    -0.302 N 
ATOM     24  H   UNL     1       6.488  -1.690  -1.176  0.00  0.00    +0.153 HD
BRANCH  23  25
ATOM     25  C   UNL     1       5.908  -3.359  -2.146  0.00  0.00    +0.132 C 
ATOM     26  S   UNL     1       4.603  -4.122  -2.950  0.00  0.00    -0.019 S 
BRANCH  25  27
ATOM     27  N   UNL     1       7.067  -4.022  -1.965  0.00  0.00    -0.340 N 
ATOM     28  H   UNL     1       7.781  -3.619  -1.447  0.00  0.00    +0.144 HD
ATOM     29  H   UNL     1       7.188  -4.904  -2.352  0.00  0.00    +0.144 HD
ENDBRANCH  25  27
ENDBRANCH  23  25
ENDBRANCH   2  23
TORSDOF 7
