REMARK  Name = ZINC64817272
REMARK  13 active torsions:
REMARK  status: ('A' for Active; 'I' for Inactive)
REMARK    1  A    between atoms: C_1  and  C_2
REMARK    2  A    between atoms: C_2  and  C_3
REMARK    3  A    between atoms: C_7  and  N_9
REMARK    4  A    between atoms: C_10  and  C_12
REMARK    5  A    between atoms: C_12  and  S_13
REMARK    6  A    between atoms: S_13  and  C_14
REMARK    7  A    between atoms: C_17  and  C_35
REMARK    8  A    between atoms: N_19  and  C_33
REMARK    9  A    between atoms: N_23  and  C_24
REMARK   10  A    between atoms: C_24  and  C_25
REMARK   11  A    between atoms: C_30  and  O_31
REMARK   12  A    between atoms: O_31  and  C_32
REMARK   13  A    between atoms: C_33  and  C_34
REMARK                            x       y       z     vdW  Elec       q    Type
REMARK                         _______ _______ _______ _____ _____    ______ ____
ROOT
ATOM      1  C   UNL     1      -0.063  -3.475   9.586  0.00  0.00    +0.173 A 
ATOM      2  N   UNL     1      -1.348  -3.229   9.490  0.00  0.00    -0.220 NA
ATOM      3  C   UNL     1      -2.190  -3.512  10.513  0.00  0.00    +0.119 A 
ATOM      4  C   UNL     1      -3.578  -3.364  10.699  0.00  0.00    +0.086 A 
ATOM      5  N   UNL     1      -3.891  -3.800  11.889  0.00  0.00    -0.174 NA
ATOM      6  N   UNL     1      -2.735  -4.252  12.539  0.00  0.00    -0.257 N 
ATOM      7  C   UNL     1      -1.678  -4.074  11.688  0.00  0.00    +0.152 A 
ATOM      8  C   UNL     1      -0.292  -4.331  11.771  0.00  0.00    +0.281 A 
ATOM      9  O   UNL     1       0.192  -4.821  12.777  0.00  0.00    -0.265 OA
ATOM     10  N   UNL     1       0.485  -4.027  10.708  0.00  0.00    -0.282 N 
ATOM     11  C   UNL     1      -4.543  -2.796   9.690  0.00  0.00    +0.070 C 
ENDROOT
BRANCH   6  12
ATOM     12  C   UNL     1      -2.670  -4.815  13.890  0.00  0.00    +0.141 C 
ATOM     13  C   UNL     1      -2.859  -6.332  13.820  0.00  0.00    +0.029 C 
ENDBRANCH   6  12
BRANCH   1  14
ATOM     14  S   UNL     1       0.986  -3.086   8.225  0.00  0.00    -0.078 S 
BRANCH  14  15
ATOM     15  C   UNL     1      -0.142  -2.390   6.986  0.00  0.00    +0.173 C 
BRANCH  15  17
ATOM     16  N   UNL     1       0.002  -1.469   4.695  0.00  0.00    -0.285 N 
ATOM     17  C   UNL     1       0.637  -2.010   5.754  0.00  0.00    +0.227 C 
ATOM     18  O   UNL     1       1.836  -2.192   5.714  0.00  0.00    -0.275 OA
ATOM     19  H   UNL     1      -0.942  -1.253   4.754  0.00  0.00    +0.155 HD
BRANCH  16  24
ATOM     20  C   UNL     1       1.063   0.115   1.551  0.00  0.00    -0.046 A 
ATOM     21  C   UNL     1       2.093  -0.725   1.169  0.00  0.00    +0.004 A 
ATOM     22  C   UNL     1       2.431  -1.811   1.955  0.00  0.00    +0.002 A 
ATOM     23  C   UNL     1       1.740  -2.061   3.125  0.00  0.00    +0.023 A 
ATOM     24  C   UNL     1       0.705  -1.219   3.511  0.00  0.00    +0.034 A 
ATOM     25  C   UNL     1       0.372  -0.126   2.722  0.00  0.00    +0.027 A 
BRANCH  20  27
ATOM     26  C   UNL     1       1.518   2.515   1.125  0.00  0.00    +0.009 C 
ATOM     27  C   UNL     1       0.699   1.298   0.692  0.00  0.00    +0.032 C 
ENDBRANCH  20  27
ENDBRANCH  16  24
ENDBRANCH  15  17
ENDBRANCH  14  15
ENDBRANCH   1  14
BRANCH  10  28
ATOM     28  C   UNL     1       1.926  -4.287  10.761  0.00  0.00    +0.166 C 
BRANCH  28  29
ATOM     29  C   UNL     1       2.634  -3.078  11.315  0.00  0.00    +0.014 A 
ATOM     30  C   UNL     1       3.255  -2.188  10.459  0.00  0.00    +0.009 A 
ATOM     31  C   UNL     1       3.905  -1.079  10.967  0.00  0.00    +0.001 A 
ATOM     32  C   UNL     1       3.936  -0.856  12.331  0.00  0.00    +0.004 A 
ATOM     33  C   UNL     1       3.317  -1.743  13.191  0.00  0.00    +0.046 A 
ATOM     34  C   UNL     1       2.659  -2.854  12.684  0.00  0.00    +0.125 A 
BRANCH  34  35
ATOM     35  O   UNL     1       2.045  -3.725  13.527  0.00  0.00    -0.495 OA
ATOM     36  C   UNL     1       2.111  -3.431  14.924  0.00  0.00    +0.277 C 
ENDBRANCH  34  35
ENDBRANCH  28  29
ENDBRANCH  10  28
TORSDOF 9
