REMARK  Name = ZINC08986296
REMARK  4 active torsions:
REMARK  status: ('A' for Active; 'I' for Inactive)
REMARK    1  A    between atoms: C_3  and  N_9
REMARK    2  A    between atoms: C_13  and  C_14
REMARK    3  A    between atoms: N_18  and  C_19
REMARK    4  A    between atoms: C_22  and  O_25
REMARK                            x       y       z     vdW  Elec       q    Type
REMARK                         _______ _______ _______ _____ _____    ______ ____
ROOT
ATOM      1  N   UNL     1      -2.170   5.774   0.434  0.00  0.00    -0.188 N 
ATOM      2  C   UNL     1      -2.830   5.630  -0.733  0.00  0.00    +0.264 C 
ATOM      3  O   UNL     1      -2.342   5.001  -1.653  0.00  0.00    -0.269 OA
ATOM      4  C   UNL     1      -4.158   6.252  -0.863  0.00  0.00    +0.102 C 
ATOM      5  C   UNL     1      -4.898   6.145  -2.036  0.00  0.00    +0.044 C 
ATOM      6  C   UNL     1      -4.670   6.993   0.303  0.00  0.00    +0.257 C 
ATOM      7  O   UNL     1      -5.759   7.535   0.271  0.00  0.00    -0.270 OA
ATOM      8  N   UNL     1      -3.898   7.055   1.408  0.00  0.00    -0.235 N 
ATOM      9  C   UNL     1      -2.698   6.459   1.458  0.00  0.00    +0.320 C 
ATOM     10  O   UNL     1      -2.054   6.548   2.485  0.00  0.00    -0.251 OA
ATOM     11  H   UNL     1      -4.220   7.539   2.184  0.00  0.00    +0.159 HD
ENDROOT
BRANCH   1  14
ATOM     12  C   UNL     1       1.483   5.327   0.387  0.00  0.00    +0.003 A 
ATOM     13  C   UNL     1       0.236   5.905   0.241  0.00  0.00    +0.025 A 
ATOM     14  C   UNL     1      -0.904   5.190   0.582  0.00  0.00    +0.065 A 
ATOM     15  C   UNL     1      -0.788   3.892   1.064  0.00  0.00    +0.081 A 
ATOM     16  C   UNL     1       0.463   3.321   1.214  0.00  0.00    +0.061 A 
ATOM     17  C   UNL     1       1.597   4.038   0.873  0.00  0.00    +0.021 A 
ATOM     18 CL   UNL     1       0.610   1.702   1.823  0.00  0.00    -0.082 Cl
ATOM     19 CL   UNL     1      -2.211   2.991   1.485  0.00  0.00    -0.080 Cl
ENDBRANCH   1  14
BRANCH   5  20
ATOM     20  C   UNL     1      -6.223   6.608  -2.075  0.00  0.00    +0.047 A 
ATOM     21  C   UNL     1      -6.740   7.554  -2.954  0.00  0.00    +0.027 A 
ATOM     22  C   UNL     1      -8.089   7.708  -2.641  0.00  0.00    +0.020 A 
ATOM     23  C   UNL     1      -8.376   6.886  -1.597  0.00  0.00    +0.092 A 
ATOM     24  N   UNL     1      -7.253   6.213  -1.243  0.00  0.00    -0.316 N 
BRANCH  24  25
ATOM     25  C   UNL     1      -7.155   5.274  -0.207  0.00  0.00    +0.047 A 
ATOM     26  C   UNL     1      -6.632   4.012  -0.461  0.00  0.00    +0.030 A 
ATOM     27  C   UNL     1      -6.531   3.090   0.561  0.00  0.00    +0.047 A 
ATOM     28  C   UNL     1      -6.961   3.418   1.839  0.00  0.00    +0.117 A 
ATOM     29  C   UNL     1      -7.489   4.677   2.091  0.00  0.00    +0.047 A 
ATOM     30  C   UNL     1      -7.586   5.602   1.071  0.00  0.00    +0.030 A 
BRANCH  28  31
ATOM     31  O   UNL     1      -6.867   2.507   2.843  0.00  0.00    -0.507 OA
ATOM     32  H   UNL     1      -7.647   1.944   2.938  0.00  0.00    +0.292 HD
ENDBRANCH  28  31
ENDBRANCH  24  25
ENDBRANCH   5  20
TORSDOF 4
