REMARK  Name = ZINC26354093
REMARK  6 active torsions:
REMARK  status: ('A' for Active; 'I' for Inactive)
REMARK    1  A    between atoms: C_1  and  C_2
REMARK    2  A    between atoms: N_4  and  C_5
REMARK    3  A    between atoms: C_14  and  C_17
REMARK    4  A    between atoms: C_18  and  C_19
REMARK    5  A    between atoms: N_21  and  C_22
REMARK    6  A    between atoms: C_25  and  N_28
REMARK                            x       y       z     vdW  Elec       q    Type
REMARK                         _______ _______ _______ _____ _____    ______ ____
ROOT
ATOM      1  C   UNL     1      -7.055   6.351  -1.813  0.00  0.00    +0.033 C 
ATOM      2  C   UNL     1      -6.845   5.080  -1.400  0.00  0.00    +0.069 C 
ENDROOT
BRANCH   1   9
ATOM      3  C   UNL     1     -13.158   3.634  -1.564  0.00  0.00    +0.110 C 
ATOM      4  C   UNL     1     -11.866   4.402  -1.677  0.00  0.00    +0.223 C 
ATOM      5  O   UNL     1     -10.814   3.862  -1.409  0.00  0.00    -0.275 OA
ATOM      6  N   UNL     1     -11.880   5.690  -2.075  0.00  0.00    -0.216 N 
ATOM      7  C   UNL     1     -10.689   6.398  -2.179  0.00  0.00    +0.172 A 
ATOM      8  N   UNL     1      -9.458   5.994  -1.941  0.00  0.00    -0.225 NA
ATOM      9  C   UNL     1      -8.418   6.816  -2.088  0.00  0.00    +0.073 A 
ATOM     10  C   UNL     1      -8.646   8.107  -2.509  0.00  0.00    +0.076 A 
ATOM     11  S   UNL     1     -10.425   8.094  -2.677  0.00  0.00    -0.059 S 
BRANCH   6  12
ATOM     12  C   UNL     1     -13.096   6.314  -2.385  0.00  0.00    +0.078 A 
ATOM     13  C   UNL     1     -13.590   6.272  -3.682  0.00  0.00    +0.027 A 
ATOM     14  C   UNL     1     -14.789   6.888  -3.984  0.00  0.00    +0.002 A 
ATOM     15  C   UNL     1     -15.498   7.546  -2.997  0.00  0.00    +0.003 A 
ATOM     16  C   UNL     1     -15.012   7.591  -1.704  0.00  0.00    +0.040 A 
ATOM     17  C   UNL     1     -13.814   6.973  -1.393  0.00  0.00    +0.145 A 
ATOM     18  F   UNL     1     -13.341   7.012  -0.128  0.00  0.00    -0.204 F 
ENDBRANCH   6  12
ENDBRANCH   1   9
BRANCH   2  19
ATOM     19  C   UNL     1      -5.528   4.631  -1.134  0.00  0.00    +0.241 C 
ATOM     20  O   UNL     1      -4.586   5.389  -1.277  0.00  0.00    -0.270 OA
ATOM     21  N   UNL     1      -5.319   3.365  -0.723  0.00  0.00    -0.282 N 
ATOM     22  H   UNL     1      -6.174   2.703  -0.520  0.00  0.00    +0.155 HD
BRANCH  21  23
ATOM     23  C   UNL     1      -4.012   2.891  -0.552  0.00  0.00    +0.034 A 
ATOM     24  C   UNL     1      -3.019   3.744  -0.088  0.00  0.00    +0.025 A 
ATOM     25  C   UNL     1      -1.731   3.277   0.079  0.00  0.00    +0.025 A 
ATOM     26  C   UNL     1      -1.428   1.955  -0.217  0.00  0.00    +0.035 A 
ATOM     27  C   UNL     1      -2.419   1.103  -0.686  0.00  0.00    +0.025 A 
ATOM     28  C   UNL     1      -3.708   1.569  -0.849  0.00  0.00    +0.025 A 
BRANCH  26  29
ATOM     29  N   UNL     1      -0.120   1.481  -0.047  0.00  0.00    -0.270 N 
ATOM     30  C   UNL     1       0.638   1.943   0.968  0.00  0.00    +0.301 C 
ATOM     31  O   UNL     1       0.216   2.827   1.688  0.00  0.00    -0.253 OA
ATOM     32  N   UNL     1       1.863   1.424   1.184  0.00  0.00    -0.313 N 
ATOM     33  H   UNL     1       0.288   0.733  -0.742  0.00  0.00    +0.156 HD
ATOM     34  H   UNL     1       2.481   1.801   2.012  0.00  0.00    +0.146 HD
ATOM     35  H   UNL     1       2.244   0.625   0.532  0.00  0.00    +0.146 HD
ENDBRANCH  26  29
ENDBRANCH  21  23
ENDBRANCH   2  19
TORSDOF 5
