REMARK  Name = ZINC09408875
REMARK  13 active torsions:
REMARK  status: ('A' for Active; 'I' for Inactive)
REMARK    1  A    between atoms: C_1  and  C_2
REMARK    2  A    between atoms: C_2  and  N_3
REMARK    3  A    between atoms: N_3  and  C_4
REMARK    4  A    between atoms: N_3  and  C_6
REMARK    5  A    between atoms: C_4  and  C_5
REMARK    6  A    between atoms: C_9  and  C_12
REMARK    7  A    between atoms: C_20  and  O_21
REMARK    8  A    between atoms: C_23  and  C_36
REMARK    9  A    between atoms: C_23  and  O_37
REMARK   10  A    between atoms: C_24  and  C_26
REMARK   11  A    between atoms: C_26  and  O_28
REMARK   12  A    between atoms: O_28  and  C_29
REMARK   13  A    between atoms: C_29  and  C_30
REMARK                            x       y       z     vdW  Elec       q    Type
REMARK                         _______ _______ _______ _____ _____    ______ ____
ROOT
ATOM      1  C   UNL     1      -0.044  -5.953  -1.695  0.00  0.00    +0.072 C 
ATOM      2  C   UNL     1      -1.511  -6.285  -1.809  0.00  0.00    +0.044 A 
ATOM      3  C   UNL     1      -2.020  -7.199  -2.674  0.00  0.00    +0.046 A 
ATOM      4  N   UNL     1      -3.352  -7.232  -2.504  0.00  0.00    -0.278 N 
ATOM      5  H   UNL     1      -3.975  -7.794  -2.990  0.00  0.00    +0.189 HD
ATOM      6  N   UNL     1      -3.681  -6.310  -1.499  0.00  0.00    -0.136 NA
ATOM      7  C   UNL     1      -2.573  -5.742  -1.082  0.00  0.00    +0.235 A 
ATOM      8  C   UNL     1      -1.186  -8.009  -3.635  0.00  0.00    +0.090 C 
ATOM      9  C   UNL     1       0.278  -7.938  -3.185  0.00  0.00    +0.082 C 
ATOM     10  C   UNL     1       0.670  -6.477  -2.947  0.00  0.00    +0.141 C 
ATOM     11  C   UNL     1       1.175  -8.536  -4.271  0.00  0.00    +0.042 C 
ENDROOT
BRANCH   1  15
ATOM     12  C   UNL     1       0.457  -1.720  -1.421  0.00  0.00    +0.013 A 
ATOM     13  C   UNL     1       0.911  -2.537  -0.403  0.00  0.00    +0.022 A 
ATOM     14  C   UNL     1       0.749  -3.907  -0.491  0.00  0.00    +0.006 A 
ATOM     15  C   UNL     1       0.132  -4.459  -1.598  0.00  0.00    -0.039 A 
ATOM     16  C   UNL     1      -0.323  -3.642  -2.616  0.00  0.00    +0.006 A 
ATOM     17  C   UNL     1      -0.165  -2.272  -2.526  0.00  0.00    +0.022 A 
BRANCH  12  18
ATOM     18  N   UNL     1       0.621  -0.334  -1.331  0.00  0.00    -0.394 NA
ATOM     19  H   UNL     1       0.231   0.104  -2.152  0.00  0.00    +0.126 HD
BRANCH  18  21
ATOM     20  C   UNL     1      -1.579  -0.035  -0.297  0.00  0.00    +0.022 C 
ATOM     21  C   UNL     1      -0.070   0.164  -0.135  0.00  0.00    +0.081 C 
ENDBRANCH  18  21
BRANCH  18  22
ATOM     22  C   UNL     1       2.052  -0.015  -1.239  0.00  0.00    +0.081 C 
ATOM     23  C   UNL     1       2.749  -0.420  -2.539  0.00  0.00    +0.022 C 
ENDBRANCH  18  22
ENDBRANCH  12  18
ENDBRANCH   1  15
BRANCH   7  25
ATOM     24  H   UNL     1      -2.543  -3.886  -0.443  0.00  0.00    +0.294 HD
ATOM     25  O   UNL     1      -2.476  -4.793  -0.114  0.00  0.00    -0.491 OA
ENDBRANCH   7  25
BRANCH  10  26
ATOM     26  C   UNL     1       2.161  -6.382  -2.752  0.00  0.00    +0.314 C 
ATOM     27  O   UNL     1       2.642  -6.585  -1.662  0.00  0.00    -0.250 OA
BRANCH  26  28
ATOM     28  O   UNL     1       2.956  -6.071  -3.788  0.00  0.00    -0.460 OA
BRANCH  28  29
ATOM     29  C   UNL     1       4.359  -5.998  -3.531  0.00  0.00    +0.267 C 
BRANCH  29  30
ATOM     30  C   UNL     1       5.085  -5.640  -4.802  0.00  0.00    -0.010 A 
ATOM     31  C   UNL     1       5.522  -6.638  -5.653  0.00  0.00    +0.007 A 
ATOM     32  C   UNL     1       6.188  -6.310  -6.819  0.00  0.00    +0.000 A 
ATOM     33  C   UNL     1       6.417  -4.983  -7.134  0.00  0.00    +0.000 A 
ATOM     34  C   UNL     1       5.979  -3.985  -6.284  0.00  0.00    +0.000 A 
ATOM     35  C   UNL     1       5.309  -4.314  -5.120  0.00  0.00    +0.007 A 
ENDBRANCH  29  30
ENDBRANCH  28  29
ENDBRANCH  26  28
ENDBRANCH  10  26
BRANCH   9  36
ATOM     36  O   UNL     1       0.441  -8.677  -1.973  0.00  0.00    -0.388 OA
ATOM     37  H   UNL     1       0.211  -9.614  -2.050  0.00  0.00    +0.210 HD
ENDBRANCH   9  36
TORSDOF 10
