REMARK  Name = ZINC22712004
REMARK  13 active torsions:
REMARK  status: ('A' for Active; 'I' for Inactive)
REMARK    1  A    between atoms: C_1  and  C_2
REMARK    2  A    between atoms: C_2  and  C_3
REMARK    3  A    between atoms: C_2  and  C_4
REMARK    4  A    between atoms: C_2  and  C_5
REMARK    5  A    between atoms: C_12  and  N_17
REMARK    6  A    between atoms: C_13  and  C_14
REMARK    7  A    between atoms: N_17  and  C_18
REMARK    8  A    between atoms: C_18  and  N_20
REMARK    9  A    between atoms: C_21  and  C_23
REMARK   10  A    between atoms: C_24  and  O_31
REMARK   11  A    between atoms: C_28  and  O_29
REMARK   12  A    between atoms: O_29  and  C_30
REMARK   13  A    between atoms: O_31  and  C_32
REMARK                            x       y       z     vdW  Elec       q    Type
REMARK                         _______ _______ _______ _____ _____    ______ ____
ROOT
ATOM      1  C   UNL     1      -3.567  -1.650  -3.482  0.00  0.00    -0.000 C 
ATOM      2  C   UNL     1      -2.045  -1.717  -3.638  0.00  0.00    +0.009 C 
ATOM      3  C   UNL     1      -1.376  -0.799  -2.613  0.00  0.00    +0.037 C 
ATOM      4  C   UNL     1      -1.919  -1.128  -1.228  0.00  0.00    -0.023 A 
ATOM      5  C   UNL     1      -3.070  -1.820  -1.079  0.00  0.00    -0.004 A 
ATOM      6  S   UNL     1      -3.285  -1.968   0.672  0.00  0.00    -0.077 S 
ATOM      7  C   UNL     1      -1.865  -1.129   1.201  0.00  0.00    +0.084 A 
ATOM      8  C   UNL     1      -1.257  -0.754   0.010  0.00  0.00    +0.068 A 
ATOM      9  C   UNL     1      -3.960  -2.337  -2.166  0.00  0.00    +0.046 C 
ENDROOT
BRANCH   8  10
ATOM     10  C   UNL     1       0.002  -0.004   0.002  0.00  0.00    +0.244 C 
ATOM     11  O   UNL     1       1.064  -0.598  -0.011  0.00  0.00    -0.270 OA
ATOM     12  N   UNL     1      -0.016   1.344   0.009  0.00  0.00    -0.325 N 
ATOM     13  H   UNL     1       0.929   1.907   0.003  0.00  0.00    +0.145 HD
ATOM     14  H   UNL     1      -0.976   1.881   0.021  0.00  0.00    +0.145 HD
ENDBRANCH   8  10
BRANCH   1  16
ATOM     15  C   UNL     1      -5.755  -2.315  -4.489  0.00  0.00    +0.011 C 
ATOM     16  C   UNL     1      -4.235  -2.369  -4.656  0.00  0.00    -0.035 C 
ATOM     17  C   UNL     1      -3.841  -1.681  -5.965  0.00  0.00    +0.011 C 
ATOM     18  C   UNL     1      -3.776  -3.828  -4.688  0.00  0.00    +0.011 C 
ENDBRANCH   1  16
BRANCH   7  19
ATOM     19  N   UNL     1      -1.438  -0.889   2.497  0.00  0.00    -0.291 N 
ATOM     20  H   UNL     1      -0.504  -0.336   2.676  0.00  0.00    +0.154 HD
BRANCH  19  21
ATOM     21  C   UNL     1      -2.168  -1.335   3.539  0.00  0.00    +0.141 C 
ATOM     22  S   UNL     1      -3.621  -2.196   3.261  0.00  0.00    -0.018 S 
BRANCH  21  23
ATOM     23  N   UNL     1      -1.753  -1.102   4.800  0.00  0.00    -0.263 N 
ATOM     24  C   UNL     1      -2.482  -1.547   5.843  0.00  0.00    +0.257 C 
ATOM     25  O   UNL     1      -3.515  -2.159   5.645  0.00  0.00    -0.270 OA
ATOM     26  H   UNL     1      -0.819  -0.549   4.979  0.00  0.00    +0.157 HD
BRANCH  24  27
ATOM     27  C   UNL     1      -2.030  -1.293   7.220  0.00  0.00    +0.120 A 
ATOM     28  C   UNL     1      -2.427  -0.127   7.890  0.00  0.00    +0.136 A 
ATOM     29  C   UNL     1      -1.999   0.099   9.188  0.00  0.00    +0.046 A 
ATOM     30  C   UNL     1      -1.174  -0.814   9.819  0.00  0.00    +0.007 A 
ATOM     31  C   UNL     1      -0.772  -1.964   9.165  0.00  0.00    +0.046 A 
ATOM     32  C   UNL     1      -1.193  -2.213   7.869  0.00  0.00    +0.136 A 
BRANCH  32  33
ATOM     33  O   UNL     1      -0.797  -3.343   7.231  0.00  0.00    -0.494 OA
ATOM     34  C   UNL     1       0.054  -4.233   7.954  0.00  0.00    +0.277 C 
ENDBRANCH  32  33
BRANCH  28  35
ATOM     35  O   UNL     1      -3.231   0.774   7.272  0.00  0.00    -0.494 OA
ATOM     36  C   UNL     1      -3.594   1.938   8.016  0.00  0.00    +0.277 C 
ENDBRANCH  28  35
ENDBRANCH  24  27
ENDBRANCH  21  23
ENDBRANCH  19  21
ENDBRANCH   7  19
TORSDOF 8
