REMARK  Name = ZINC62166177
REMARK  5 active torsions:
REMARK  status: ('A' for Active; 'I' for Inactive)
REMARK    1  A    between atoms: C_4  and  N_7
REMARK    2  A    between atoms: C_9  and  C_14
REMARK    3  A    between atoms: C_20  and  C_22
REMARK    4  A    between atoms: N_27  and  S_28
REMARK    5  A    between atoms: S_28  and  C_31
REMARK                            x       y       z     vdW  Elec       q    Type
REMARK                         _______ _______ _______ _____ _____    ______ ____
ROOT
ATOM      1  C   UNL     1       5.202  -2.721  -1.912  0.00  0.00    +0.224 A 
ATOM      2  N   UNL     1       4.825  -1.917  -2.864  0.00  0.00    -0.111 NA
ATOM      3  N   UNL     1       4.971  -2.500  -4.002  0.00  0.00    -0.092 NA
ATOM      4  C   UNL     1       5.449  -3.705  -3.813  0.00  0.00    +0.314 A 
ATOM      5  O   UNL     1       5.610  -3.868  -2.487  0.00  0.00    -0.409 OA
ATOM      6  N   UNL     1       5.740  -4.637  -4.798  0.00  0.00    -0.237 N 
ATOM      7  C   UNL     1       5.532  -4.335  -6.095  0.00  0.00    +0.239 C 
ATOM      8  O   UNL     1       5.091  -3.247  -6.401  0.00  0.00    -0.274 OA
ATOM      9  H   UNL     1       6.093  -5.507  -4.554  0.00  0.00    +0.159 HD
ENDROOT
BRANCH   1  12
ATOM     10  N   UNL     1       3.622  -0.651  -0.037  0.00  0.00    -0.271 N 
ATOM     11  C   UNL     1       3.757  -2.109   0.053  0.00  0.00    +0.127 C 
ATOM     12  C   UNL     1       5.189  -2.421  -0.436  0.00  0.00    +0.103 C 
ATOM     13  C   UNL     1       5.921  -1.092  -0.134  0.00  0.00    +0.110 C 
ATOM     14  C   UNL     1       4.821  -0.054  -0.144  0.00  0.00    +0.221 C 
ATOM     15  O   UNL     1       4.997   1.143  -0.232  0.00  0.00    -0.275 OA
BRANCH  10  19
ATOM     16  C   UNL     1      -0.017   1.379   0.010  0.00  0.00    +0.000 A 
ATOM     17  C   UNL     1       1.170   2.089   0.016  0.00  0.00    +0.002 A 
ATOM     18  C   UNL     1       2.377   1.419   0.001  0.00  0.00    +0.023 A 
ATOM     19  C   UNL     1       2.400   0.031  -0.021  0.00  0.00    +0.036 A 
ATOM     20  C   UNL     1       1.206  -0.680  -0.028  0.00  0.00    +0.023 A 
ATOM     21  C   UNL     1       0.002  -0.004  -0.012  0.00  0.00    +0.002 A 
ENDBRANCH  10  19
ENDBRANCH   1  12
BRANCH   7  22
ATOM     22  C   UNL     1       5.848  -5.348  -7.165  0.00  0.00    +0.166 C 
ATOM     23  C   UNL     1       4.974  -6.605  -6.973  0.00  0.00    +0.031 C 
ATOM     24  C   UNL     1       3.802  -6.368  -7.961  0.00  0.00    +0.019 C 
ATOM     25  C   UNL     1       4.523  -5.656  -9.133  0.00  0.00    +0.110 C 
ATOM     26  N   UNL     1       5.533  -4.792  -8.489  0.00  0.00    -0.164 NA
BRANCH  26  27
ATOM     27  S   UNL     1       6.198  -3.424  -9.145  0.00  0.00    +0.068 S 
ATOM     28  O   UNL     1       5.271  -2.944 -10.109  0.00  0.00    -0.152 OA
ATOM     29  O   UNL     1       6.646  -2.628  -8.056  0.00  0.00    -0.152 OA
BRANCH  27  30
ATOM     30  C   UNL     1       7.637  -3.919 -10.033  0.00  0.00    +0.143 A 
ATOM     31  C   UNL     1       7.754  -4.287 -11.332  0.00  0.00    +0.036 A 
ATOM     32  C   UNL     1       8.998  -4.639 -11.820  0.00  0.00    +0.010 A 
ATOM     33  C   UNL     1      10.065  -4.606 -10.984  0.00  0.00    +0.047 A 
ATOM     34  S   UNL     1       9.321  -4.058  -9.457  0.00  0.00    -0.077 S 
ENDBRANCH  27  30
ENDBRANCH  26  27
ENDBRANCH   7  22
TORSDOF 5
