REMARK  Name = ZINC04558342
REMARK  7 active torsions:
REMARK  status: ('A' for Active; 'I' for Inactive)
REMARK    1  A    between atoms: C_1  and  C_2
REMARK    2  A    between atoms: N_4  and  C_5
REMARK    3  A    between atoms: C_11  and  C_32
REMARK    4  A    between atoms: C_21  and  C_31
REMARK    5  A    between atoms: C_24  and  O_27
REMARK    6  A    between atoms: O_27  and  C_28
REMARK    7  A    between atoms: C_28  and  C_30
REMARK                            x       y       z     vdW  Elec       q    Type
REMARK                         _______ _______ _______ _____ _____    ______ ____
ROOT
ATOM      1  C   UNL     1      -9.226   5.065  -2.266  0.00  0.00    +0.079 C 
ATOM      2  C   UNL     1      -9.777   3.617  -2.321  0.00  0.00    +0.023 C 
ATOM      3  C   UNL     1      -8.578   2.676  -2.029  0.00  0.00    +0.006 C 
ATOM      4  C   UNL     1      -7.508   3.627  -1.473  0.00  0.00    +0.000 C 
ATOM      5  C   UNL     1      -7.697   4.878  -2.352  0.00  0.00    -0.011 C 
ATOM      6  C   UNL     1      -6.875   6.038  -1.853  0.00  0.00    +0.009 C 
ATOM      7  C   UNL     1      -5.565   5.548  -1.212  0.00  0.00    +0.005 C 
ATOM      8  C   UNL     1      -5.117   4.238  -1.842  0.00  0.00    +0.003 C 
ATOM      9  C   UNL     1      -6.099   3.123  -1.453  0.00  0.00    +0.000 C 
ATOM     10  C   UNL     1      -5.827   1.938  -2.379  0.00  0.00    +0.031 C 
ATOM     11  C   UNL     1      -4.385   1.545  -2.178  0.00  0.00    -0.027 C 
ATOM     12  C   UNL     1      -3.480   2.358  -1.725  0.00  0.00    -0.064 C 
ATOM     13  C   UNL     1      -3.715   3.820  -1.427  0.00  0.00    -0.008 C 
ATOM     14  C   UNL     1      -3.441   4.071   0.050  0.00  0.00    +0.015 C 
ATOM     15  C   UNL     1      -2.879   2.806   0.700  0.00  0.00    +0.046 C 
ATOM     16  C   UNL     1      -1.669   2.270  -0.059  0.00  0.00    +0.180 C 
ATOM     17  C   UNL     1      -2.078   1.832  -1.470  0.00  0.00    +0.075 C 
ATOM     18  C   UNL     1      -2.720   4.641  -2.254  0.00  0.00    +0.016 C 
ATOM     19  C   UNL     1      -7.384   4.598  -3.828  0.00  0.00    +0.013 C 
ENDROOT
BRANCH   1  23
ATOM     20  C   UNL     1     -11.154   7.059   0.364  0.00  0.00    +0.109 C 
ATOM     21  C   UNL     1     -10.759   6.399  -0.932  0.00  0.00    +0.210 C 
ATOM     22  O   UNL     1     -11.478   6.495  -1.904  0.00  0.00    -0.276 OA
ATOM     23  N   UNL     1      -9.608   5.703  -1.010  0.00  0.00    -0.312 N 
ATOM     24  H   UNL     1      -9.033   5.627  -0.233  0.00  0.00    +0.149 HD
ENDBRANCH   1  23
BRANCH  16  25
ATOM     25  O   UNL     1      -0.645   3.296  -0.140  0.00  0.00    -0.461 OA
BRANCH  25  26
ATOM     26  C   UNL     1       0.631   2.882  -0.173  0.00  0.00    +0.304 C 
ATOM     27  O   UNL     1       0.885   1.701  -0.135  0.00  0.00    -0.251 OA
ATOM     28  C   UNL     1       1.748   3.889  -0.264  0.00  0.00    +0.136 C 
ENDBRANCH  25  26
ENDBRANCH  16  25
TORSDOF 3
