REMARK  Name = ZINC13207690
REMARK  6 active torsions:
REMARK  status: ('A' for Active; 'I' for Inactive)
REMARK    1  A    between atoms: C_4  and  C_7
REMARK    2  A    between atoms: C_10  and  C_13
REMARK    3  A    between atoms: C_14  and  C_21
REMARK    4  A    between atoms: N_22  and  N_23
REMARK    5  A    between atoms: N_23  and  C_24
REMARK    6  A    between atoms: C_24  and  N_26
REMARK                            x       y       z     vdW  Elec       q    Type
REMARK                         _______ _______ _______ _____ _____    ______ ____
ROOT
ATOM      1  C   UNL     1       3.853   2.573  -0.017  0.00  0.00    +0.099 A 
ATOM      2  C   UNL     1       3.691   1.220  -0.253  0.00  0.00    +0.090 A 
ATOM      3  N   UNL     1       2.315   0.952  -0.146  0.00  0.00    -0.317 N 
ATOM      4  C   UNL     1       1.736   2.147   0.144  0.00  0.00    +0.170 A 
ATOM      5  N   UNL     1       2.637   3.095   0.220  0.00  0.00    -0.221 NA
ATOM      6  S   UNL     1      -0.011   1.848   0.289  0.00  0.00    -0.086 S 
ATOM      7  C   UNL     1      -0.032   0.048  -0.046  0.00  0.00    +0.099 C 
ATOM      8  C   UNL     1       1.463  -0.229  -0.270  0.00  0.00    +0.135 C 
ENDROOT
BRANCH   1  12
ATOM      9  C   UNL     1       7.535   4.700  -0.038  0.00  0.00    -0.018 A 
ATOM     10  C   UNL     1       6.402   5.262  -0.626  0.00  0.00    +0.009 A 
ATOM     11  C   UNL     1       5.210   4.574  -0.620  0.00  0.00    +0.011 A 
ATOM     12  C   UNL     1       5.134   3.313  -0.025  0.00  0.00    +0.003 A 
ATOM     13  C   UNL     1       6.268   2.753   0.569  0.00  0.00    +0.011 A 
ATOM     14  C   UNL     1       7.461   3.440   0.557  0.00  0.00    +0.009 A 
BRANCH   9  18
ATOM     15  C   UNL     1      11.217   6.825  -0.059  0.00  0.00    +0.000 A 
ATOM     16  C   UNL     1      11.146   5.577   0.532  0.00  0.00    +0.001 A 
ATOM     17  C   UNL     1       9.953   4.882   0.542  0.00  0.00    +0.008 A 
ATOM     18  C   UNL     1       8.819   5.441  -0.045  0.00  0.00    -0.018 A 
ATOM     19  C   UNL     1       8.898   6.698  -0.644  0.00  0.00    +0.008 A 
ATOM     20  C   UNL     1      10.095   7.385  -0.643  0.00  0.00    +0.001 A 
ENDBRANCH   9  18
ENDBRANCH   1  12
BRANCH   2  21
ATOM     21  C   UNL     1       4.746   0.255  -0.554  0.00  0.00    +0.158 C 
ATOM     22  N   UNL     1       4.461  -1.012  -0.654  0.00  0.00    -0.187 NA
BRANCH  22  23
ATOM     23  N   UNL     1       5.486  -1.949  -0.839  0.00  0.00    -0.219 N 
ATOM     24  H   UNL     1       6.400  -1.649  -0.964  0.00  0.00    +0.176 HD
BRANCH  23  25
ATOM     25  C   UNL     1       5.203  -3.267  -0.841  0.00  0.00    +0.147 C 
ATOM     26  S   UNL     1       6.470  -4.415  -0.937  0.00  0.00    -0.017 S 
BRANCH  25  27
ATOM     27  N   UNL     1       3.923  -3.681  -0.768  0.00  0.00    -0.339 N 
ATOM     28  H   UNL     1       3.201  -3.033  -0.787  0.00  0.00    +0.144 HD
ATOM     29  H   UNL     1       3.722  -4.627  -0.697  0.00  0.00    +0.144 HD
ENDBRANCH  25  27
ENDBRANCH  23  25
ENDBRANCH  22  23
ENDBRANCH   2  21
TORSDOF 6
