REMARK  Name = ZINC58725286
REMARK  7 active torsions:
REMARK  status: ('A' for Active; 'I' for Inactive)
REMARK    1  A    between atoms: C_1  and  C_2
REMARK    2  A    between atoms: C_2  and  C_4
REMARK    3  A    between atoms: C_2  and  N_19
REMARK    4  A    between atoms: N_6  and  C_7
REMARK    5  A    between atoms: C_10  and  S_13
REMARK    6  A    between atoms: S_13  and  C_14
REMARK    7  A    between atoms: N_22  and  C_23
REMARK                            x       y       z     vdW  Elec       q    Type
REMARK                         _______ _______ _______ _____ _____    ______ ____
ROOT
ATOM      1  C   UNL     1       0.715  -0.150   1.323  0.00  0.00    +0.237 C 
ATOM      2  O   UNL     1       0.212  -0.984   2.046  0.00  0.00    -0.273 OA
ATOM      3  N   UNL     1       1.954   0.310   1.585  0.00  0.00    -0.284 N 
ATOM      4  H   UNL     1       2.383   0.926   0.970  0.00  0.00    +0.155 HD
ENDROOT
BRANCH   3   5
ATOM      5  C   UNL     1       2.623  -0.101   2.746  0.00  0.00    +0.034 A 
ATOM      6  C   UNL     1       3.444   0.789   3.426  0.00  0.00    +0.024 A 
ATOM      7  C   UNL     1       4.104   0.385   4.569  0.00  0.00    +0.016 A 
ATOM      8  C   UNL     1       3.945  -0.913   5.040  0.00  0.00    +0.008 A 
ATOM      9  C   UNL     1       3.123  -1.803   4.360  0.00  0.00    +0.016 A 
ATOM     10  C   UNL     1       2.461  -1.396   3.219  0.00  0.00    +0.024 A 
BRANCH   8  11
ATOM     11  S   UNL     1       4.787  -1.430   6.500  0.00  0.00    -0.122 S 
BRANCH  11  12
ATOM     12  C   UNL     1       4.279  -3.159   6.710  0.00  0.00    +0.051 C 
ATOM     13  C   UNL     1       2.780  -3.230   7.063  0.00  0.00    +0.014 C 
ATOM     14  C   UNL     1       2.684  -4.395   8.079  0.00  0.00    +0.001 C 
ATOM     15  C   UNL     1       3.975  -4.225   8.917  0.00  0.00    +0.001 C 
ATOM     16  C   UNL     1       5.040  -3.791   7.889  0.00  0.00    +0.014 C 
ENDBRANCH  11  12
ENDBRANCH   8  11
ENDBRANCH   3   5
BRANCH   1  18
ATOM     17  C   UNL     1      -0.234   1.884   0.268  0.00  0.00    +0.038 C 
ATOM     18  C   UNL     1      -0.046   0.371   0.131  0.00  0.00    +0.158 C 
BRANCH  18  19
ATOM     19  N   UNL     1      -1.356  -0.280   0.066  0.00  0.00    -0.288 N 
ATOM     20  C   UNL     1      -1.999  -0.383  -1.114  0.00  0.00    +0.304 C 
ATOM     21  O   UNL     1      -1.491   0.064  -2.125  0.00  0.00    -0.252 OA
ATOM     22  N   UNL     1      -3.205  -0.983  -1.175  0.00  0.00    -0.269 N 
ATOM     23  H   UNL     1      -1.762  -0.637   0.872  0.00  0.00    +0.151 HD
ATOM     24  H   UNL     1      -3.644  -1.272  -0.360  0.00  0.00    +0.156 HD
BRANCH  22  25
ATOM     25  C   UNL     1      -3.824  -1.186  -2.413  0.00  0.00    +0.035 A 
ATOM     26  C   UNL     1      -5.207  -1.124  -2.519  0.00  0.00    +0.023 A 
ATOM     27  C   UNL     1      -5.814  -1.325  -3.743  0.00  0.00    +0.002 A 
ATOM     28  C   UNL     1      -5.047  -1.589  -4.862  0.00  0.00    +0.000 A 
ATOM     29  C   UNL     1      -3.669  -1.652  -4.761  0.00  0.00    +0.002 A 
ATOM     30  C   UNL     1      -3.055  -1.446  -3.541  0.00  0.00    +0.023 A 
ENDBRANCH  22  25
ENDBRANCH  18  19
ENDBRANCH   1  18
TORSDOF 6
