REMARK  Name = ZINC37561316
REMARK  3 active torsions:
REMARK  status: ('A' for Active; 'I' for Inactive)
REMARK    1  A    between atoms: C_6  and  C_8
REMARK    2  A    between atoms: N_10  and  C_11
REMARK    3  A    between atoms: C_14  and  C_17
REMARK                            x       y       z     vdW  Elec       q    Type
REMARK                         _______ _______ _______ _____ _____    ______ ____
ROOT
ATOM      1  C   UNL     1      -0.093  -0.519  -1.411  0.00  0.00    +0.234 C 
ATOM      2  O   UNL     1       0.908  -0.883  -1.992  0.00  0.00    -0.274 OA
ATOM      3  N   UNL     1      -1.289  -0.575  -2.029  0.00  0.00    -0.311 N 
ATOM      4  H   UNL     1      -2.089  -0.284  -1.564  0.00  0.00    +0.149 HD
ENDROOT
BRANCH   1  10
ATOM      5  C   UNL     1      -0.019   1.541   0.011  0.00  0.00    +0.041 C 
ATOM      6  C   UNL     1       1.490   1.876  -0.002  0.00  0.00    +0.098 C 
ATOM      7  C   UNL     1       2.147   0.654   0.600  0.00  0.00    +0.214 C 
ATOM      8  O   UNL     1       3.282   0.614   1.026  0.00  0.00    -0.276 OA
ATOM      9  N   UNL     1       1.290  -0.381   0.595  0.00  0.00    -0.304 N 
ATOM     10  C   UNL     1       0.002  -0.004   0.002  0.00  0.00    +0.159 C 
ATOM     11  H   UNL     1       1.497  -1.265   0.939  0.00  0.00    +0.149 HD
ENDBRANCH   1  10
BRANCH   3  12
ATOM     12  C   UNL     1      -1.381  -1.076  -3.403  0.00  0.00    +0.073 C 
ATOM     13  C   UNL     1      -1.485  -2.602  -3.383  0.00  0.00    +0.023 C 
ATOM     14  C   UNL     1      -1.581  -3.125  -4.818  0.00  0.00    +0.016 C 
ATOM     15  C   UNL     1      -2.822  -2.538  -5.492  0.00  0.00    +0.102 C 
ATOM     16  C   UNL     1      -2.719  -1.012  -5.512  0.00  0.00    +0.016 C 
ATOM     17  C   UNL     1      -2.623  -0.489  -4.077  0.00  0.00    +0.023 C 
BRANCH  15  18
ATOM     18  C   UNL     1      -2.917  -3.053  -6.906  0.00  0.00    +0.359 C 
ATOM     19  O   UNL     1      -4.001  -3.363  -7.370  0.00  0.00    -0.246 OA
ATOM     20  O   UNL     1      -1.910  -3.161  -7.584  0.00  0.00    -0.246 OA
ENDBRANCH  15  18
ENDBRANCH   3  12
TORSDOF 3
