REMARK  Name = ZINC59385790
REMARK  6 active torsions:
REMARK  status: ('A' for Active; 'I' for Inactive)
REMARK    1  A    between atoms: C_1  and  C_2
REMARK    2  A    between atoms: C_3  and  C_17
REMARK    3  A    between atoms: C_4  and  C_10
REMARK    4  A    between atoms: C_13  and  O_16
REMARK    5  A    between atoms: N_19  and  N_20
REMARK    6  A    between atoms: C_21  and  C_22
REMARK                            x       y       z     vdW  Elec       q    Type
REMARK                         _______ _______ _______ _____ _____    ______ ____
ROOT
ATOM      1  C   UNL     1      -0.041   1.493   0.085  0.00  0.00    +0.061 C 
ATOM      2  C   UNL     1      -0.011  -0.013   0.026  0.00  0.00    +0.019 C 
ATOM      3  C   UNL     1      -1.171  -0.701   0.032  0.00  0.00    +0.057 C 
ATOM      4  C   UNL     1      -1.095  -2.213  -0.028  0.00  0.00    +0.142 C 
ATOM      5  N   UNL     1       0.249  -2.812  -0.087  0.00  0.00    -0.288 N 
ATOM      6  C   UNL     1       1.318  -1.991  -0.085  0.00  0.00    +0.304 C 
ATOM      7  O   UNL     1       2.432  -2.476  -0.134  0.00  0.00    -0.252 OA
ATOM      8  N   UNL     1       1.192  -0.659  -0.037  0.00  0.00    -0.273 N 
ATOM      9  H   UNL     1       0.362  -3.775  -0.127  0.00  0.00    +0.151 HD
ATOM     10  H   UNL     1       2.001  -0.122  -0.042  0.00  0.00    +0.156 HD
ENDROOT
BRANCH   4  11
ATOM     11  C   UNL     1      -1.794  -2.762   1.189  0.00  0.00    -0.022 A 
ATOM     12  C   UNL     1      -1.185  -2.684   2.428  0.00  0.00    +0.009 A 
ATOM     13  C   UNL     1      -1.824  -3.186   3.546  0.00  0.00    +0.046 A 
ATOM     14  C   UNL     1      -3.076  -3.770   3.424  0.00  0.00    +0.117 A 
ATOM     15  C   UNL     1      -3.685  -3.847   2.179  0.00  0.00    +0.046 A 
ATOM     16  C   UNL     1      -3.045  -3.338   1.066  0.00  0.00    +0.009 A 
BRANCH  14  17
ATOM     17  O   UNL     1      -3.706  -4.266   4.521  0.00  0.00    -0.507 OA
ATOM     18  H   UNL     1      -4.268  -3.623   4.976  0.00  0.00    +0.292 HD
ENDBRANCH  14  17
ENDBRANCH   4  11
BRANCH   3  19
ATOM     19  C   UNL     1      -2.419  -0.033   0.091  0.00  0.00    +0.263 C 
ATOM     20  O   UNL     1      -3.079   0.117  -0.921  0.00  0.00    -0.269 OA
ATOM     21  N   UNL     1      -2.875   0.438   1.269  0.00  0.00    -0.203 N 
ATOM     22  H   UNL     1      -2.318   0.386   2.061  0.00  0.00    +0.178 HD
BRANCH  21  23
ATOM     23  N   UNL     1      -4.155   1.002   1.349  0.00  0.00    -0.187 NA
ATOM     24  C   UNL     1      -4.595   1.455   2.483  0.00  0.00    +0.139 C 
BRANCH  24  25
ATOM     25  C   UNL     1      -5.941   2.050   2.567  0.00  0.00    +0.013 A 
ATOM     26  C   UNL     1      -6.416   2.543   3.785  0.00  0.00    +0.012 A 
ATOM     27  C   UNL     1      -7.676   3.098   3.857  0.00  0.00    +0.021 A 
ATOM     28  C   UNL     1      -8.473   3.166   2.725  0.00  0.00    +0.042 A 
ATOM     29  C   UNL     1      -8.010   2.679   1.515  0.00  0.00    +0.040 A 
ATOM     30  C   UNL     1      -6.747   2.126   1.427  0.00  0.00    +0.051 A 
ATOM     31 CL   UNL     1      -6.166   1.522  -0.092  0.00  0.00    -0.083 Cl
ATOM     32 CL   UNL     1     -10.058   3.865   2.826  0.00  0.00    -0.083 Cl
ENDBRANCH  24  25
ENDBRANCH  21  23
ENDBRANCH   3  19
TORSDOF 5
