REMARK  Name = ZINC16881149
REMARK  7 active torsions:
REMARK  status: ('A' for Active; 'I' for Inactive)
REMARK    1  A    between atoms: C_1  and  C_2
REMARK    2  A    between atoms: C_5  and  C_9
REMARK    3  A    between atoms: C_6  and  C_8
REMARK    4  A    between atoms: C_9  and  C_10
REMARK    5  A    between atoms: C_11  and  O_29
REMARK    6  A    between atoms: N_14  and  C_17
REMARK    7  A    between atoms: C_17  and  C_18
REMARK                            x       y       z     vdW  Elec       q    Type
REMARK                         _______ _______ _______ _____ _____    ______ ____
ROOT
ATOM      1  C   UNL     1      -2.505   6.855   3.542  0.00  0.00    +0.083 A 
ATOM      2  C   UNL     1      -3.142   5.675   3.887  0.00  0.00    +0.224 A 
ATOM      3  N   UNL     1      -3.325   4.725   2.965  0.00  0.00    -0.181 NA
ATOM      4  C   UNL     1      -2.914   4.890   1.725  0.00  0.00    +0.199 A 
ATOM      5  N   UNL     1      -2.278   6.028   1.336  0.00  0.00    -0.276 N 
ATOM      6  C   UNL     1      -2.065   7.022   2.224  0.00  0.00    +0.263 A 
ATOM      7  O   UNL     1      -1.499   8.048   1.883  0.00  0.00    -0.267 OA
ATOM      8  N   UNL     1      -3.127   3.894   0.810  0.00  0.00    -0.329 N 
ATOM      9  H   UNL     1      -2.751   3.966  -0.082  0.00  0.00    +0.145 HD
ATOM     10  H   UNL     1      -3.652   3.116   1.053  0.00  0.00    +0.145 HD
ENDROOT
BRANCH   2  11
ATOM     11  O   UNL     1      -3.579   5.484   5.154  0.00  0.00    -0.492 OA
ATOM     12  H   UNL     1      -4.011   4.631   5.297  0.00  0.00    +0.294 HD
ENDBRANCH   2  11
BRANCH   1  13
ATOM     13  C   UNL     1      -2.289   7.939   4.567  0.00  0.00    +0.081 C 
BRANCH  13  18
ATOM     14  C   UNL     1       2.967   7.367   6.899  0.00  0.00    +0.044 C 
ATOM     15  C   UNL     1       1.596   7.515   6.291  0.00  0.00    -0.050 A 
ATOM     16  C   UNL     1       1.124   6.562   5.407  0.00  0.00    +0.003 A 
ATOM     17  C   UNL     1      -0.133   6.699   4.850  0.00  0.00    +0.004 A 
ATOM     18  C   UNL     1      -0.919   7.789   5.175  0.00  0.00    -0.040 A 
ATOM     19  C   UNL     1      -0.445   8.745   6.054  0.00  0.00    -0.047 A 
ATOM     20  C   UNL     1       0.810   8.605   6.616  0.00  0.00    +0.007 A 
ATOM     21  C   UNL     1      -1.299   9.936   6.404  0.00  0.00    +0.044 C 
ENDBRANCH  13  18
ENDBRANCH   1  13
BRANCH   5  22
ATOM     22  C   UNL     1      -1.827   6.177  -0.051  0.00  0.00    +0.163 C 
BRANCH  22  23
ATOM     23  C   UNL     1      -0.475   5.532  -0.211  0.00  0.00    -0.020 A 
ATOM     24  C   UNL     1       0.181   5.037   0.874  0.00  0.00    +0.006 A 
ATOM     25  C   UNL     1       1.431   4.437   0.745  0.00  0.00    +0.001 A 
ATOM     26  C   UNL     1       2.034   4.328  -0.471  0.00  0.00    +0.008 A 
ATOM     27  C   UNL     1       1.388   4.828  -1.614  0.00  0.00    -0.018 A 
ATOM     28  C   UNL     1       0.116   5.439  -1.483  0.00  0.00    -0.013 A 
ATOM     29  C   UNL     1      -0.530   5.939  -2.626  0.00  0.00    +0.009 A 
ATOM     30  C   UNL     1       0.076   5.836  -3.841  0.00  0.00    +0.001 A 
ATOM     31  C   UNL     1       1.324   5.230  -3.971  0.00  0.00    +0.001 A 
ATOM     32  C   UNL     1       1.979   4.734  -2.886  0.00  0.00    +0.008 A 
ENDBRANCH  22  23
ENDBRANCH   5  22
TORSDOF 5
