REMARK  Name = ZINC40793281
REMARK  5 active torsions:
REMARK  status: ('A' for Active; 'I' for Inactive)
REMARK    1  A    between atoms: C_10  and  C_11
REMARK    2  A    between atoms: N_13  and  N_14
REMARK    3  A    between atoms: C_16  and  N_33
REMARK    4  A    between atoms: C_17  and  O_21
REMARK    5  A    between atoms: O_21  and  C_22
REMARK                            x       y       z     vdW  Elec       q    Type
REMARK                         _______ _______ _______ _____ _____    ______ ____
ROOT
ATOM      1  N   UNL     1       7.335   0.211  -0.158  0.00  0.00    -0.246 N 
ATOM      2  C   UNL     1       8.541  -0.471  -0.058  0.00  0.00    +0.163 A 
ATOM      3  C   UNL     1       9.747   0.229   0.030  0.00  0.00    +0.129 A 
ATOM      4  C   UNL     1      10.928  -0.505   0.128  0.00  0.00    +0.246 A 
ATOM      5  N   UNL     1      10.863  -1.833   0.135  0.00  0.00    -0.199 NA
ATOM      6  C   UNL     1       9.705  -2.456   0.051  0.00  0.00    +0.227 A 
ATOM      7  N   UNL     1       8.565  -1.801  -0.039  0.00  0.00    -0.217 NA
ATOM      8  H   UNL     1       7.326   1.181  -0.171  0.00  0.00    +0.172 HD
ENDROOT
BRANCH   1  11
ATOM      9  C   UNL     1       4.961   0.160  -0.336  0.00  0.00    +0.261 C 
ATOM     10  O   UNL     1       4.950   1.376  -0.352  0.00  0.00    -0.269 OA
ATOM     11  N   UNL     1       6.131  -0.502  -0.239  0.00  0.00    -0.231 N 
ATOM     12  H   UNL     1       6.140  -1.471  -0.226  0.00  0.00    +0.173 HD
BRANCH   9  22
ATOM     13  C   UNL     1      -0.000   1.385  -0.353  0.00  0.00    +0.001 A 
ATOM     14  C   UNL     1       1.183   2.115  -0.270  0.00  0.00    +0.001 A 
ATOM     15  C   UNL     1       2.394   1.490  -0.291  0.00  0.00    +0.009 A 
ATOM     16  C   UNL     1       2.453   0.094  -0.397  0.00  0.00    -0.006 A 
ATOM     17  C   UNL     1       1.251  -0.650  -0.481  0.00  0.00    -0.017 A 
ATOM     18  C   UNL     1       0.020   0.028  -0.457  0.00  0.00    +0.008 A 
ATOM     19  C   UNL     1       1.309  -2.050  -0.587  0.00  0.00    +0.008 A 
ATOM     20  C   UNL     1       2.514  -2.685  -0.608  0.00  0.00    +0.001 A 
ATOM     21  C   UNL     1       3.704  -1.973  -0.527  0.00  0.00    +0.014 A 
ATOM     22  C   UNL     1       3.694  -0.590  -0.421  0.00  0.00    +0.046 A 
ENDBRANCH   9  22
ENDBRANCH   1  11
BRANCH   3  23
ATOM     23  N   UNL     1       9.769   1.632   0.018  0.00  0.00    -0.351 N 
ATOM     24  H   UNL     1       8.939   2.130  -0.051  0.00  0.00    +0.143 HD
ATOM     25  H   UNL     1      10.614   2.105   0.080  0.00  0.00    +0.143 HD
ENDBRANCH   3  23
BRANCH   4  26
ATOM     26  O   UNL     1      12.126   0.127   0.215  0.00  0.00    -0.434 OA
BRANCH  26  27
ATOM     27  C   UNL     1      13.250  -0.635   0.203  0.00  0.00    +0.156 A 
ATOM     28  C   UNL     1      13.829  -1.035   1.386  0.00  0.00    +0.049 A 
ATOM     29  C   UNL     1      14.982  -1.815   1.389  0.00  0.00    +0.019 A 
ATOM     30  C   UNL     1      15.568  -2.203   0.222  0.00  0.00    +0.027 A 
ATOM     31  C   UNL     1      15.007  -1.814  -1.006  0.00  0.00    +0.018 A 
ATOM     32  C   UNL     1      13.831  -1.025  -1.022  0.00  0.00    +0.114 A 
ATOM     33  N   UNL     1      13.291  -0.657  -2.188  0.00  0.00    -0.251 NA
ATOM     34  C   UNL     1      13.826  -1.016  -3.329  0.00  0.00    +0.111 A 
ATOM     35  C   UNL     1      14.979  -1.797  -3.385  0.00  0.00    +0.020 A 
ATOM     36  C   UNL     1      15.588  -2.196  -2.230  0.00  0.00    +0.013 A 
ATOM     37 BR   UNL     1      17.135  -3.261   0.254  0.00  0.00    -0.050 Br
ENDBRANCH  26  27
ENDBRANCH   4  26
TORSDOF 5
