REMARK  Name = ZINC66072314
REMARK  10 active torsions:
REMARK  status: ('A' for Active; 'I' for Inactive)
REMARK    1  A    between atoms: C_1  and  C_2
REMARK    2  A    between atoms: C_2  and  C_3
REMARK    3  A    between atoms: C_2  and  N_4
REMARK    4  A    between atoms: C_5  and  C_7
REMARK    5  A    between atoms: C_10  and  N_13
REMARK    6  A    between atoms: C_14  and  C_16
REMARK    7  A    between atoms: C_16  and  N_17
REMARK    8  A    between atoms: N_17  and  C_18
REMARK    9  A    between atoms: C_22  and  C_24
REMARK   10  A    between atoms: N_26  and  C_27
REMARK                            x       y       z     vdW  Elec       q    Type
REMARK                         _______ _______ _______ _____ _____    ______ ____
ROOT
ATOM      1  N   UNL     1      -8.699  -6.638  -1.787  0.00  0.00    -0.335 N 
ATOM      2  H   UNL     1      -7.878  -7.056  -2.092  0.00  0.00    +0.147 HD
ENDROOT
BRANCH   1   3
ATOM      3  C   UNL     1      -9.925  -7.278  -1.986  0.00  0.00    +0.028 A 
ATOM      4  C   UNL     1     -11.101  -6.677  -1.553  0.00  0.00    +0.024 A 
ATOM      5  C   UNL     1     -12.316  -7.305  -1.746  0.00  0.00    +0.022 A 
ATOM      6  C   UNL     1     -12.371  -8.536  -2.373  0.00  0.00    +0.053 A 
ATOM      7  C   UNL     1     -11.195  -9.148  -2.813  0.00  0.00    +0.057 A 
ATOM      8  C   UNL     1      -9.969  -8.509  -2.621  0.00  0.00    +0.037 A 
ATOM      9 CL   UNL     1     -13.901  -9.320  -2.614  0.00  0.00    -0.083 Cl
BRANCH   7  10
ATOM     10  C   UNL     1     -11.249 -10.463  -3.483  0.00  0.00    +0.246 C 
ATOM     11  O   UNL     1     -12.319 -11.015  -3.654  0.00  0.00    -0.270 OA
ATOM     12  N   UNL     1     -10.113 -11.052  -3.906  0.00  0.00    -0.308 N 
ATOM     13  H   UNL     1      -9.259 -10.611  -3.771  0.00  0.00    +0.149 HD
BRANCH  12  14
ATOM     14  C   UNL     1     -10.167 -12.356  -4.571  0.00  0.00    +0.073 C 
ATOM     15  C   UNL     1     -10.176 -13.465  -3.518  0.00  0.00    +0.022 C 
ATOM     16  C   UNL     1     -10.232 -14.828  -4.212  0.00  0.00    +0.002 C 
ATOM     17  C   UNL     1      -9.007 -14.991  -5.115  0.00  0.00    +0.000 C 
ATOM     18  C   UNL     1      -8.998 -13.882  -6.168  0.00  0.00    +0.002 C 
ATOM     19  C   UNL     1      -8.942 -12.519  -5.474  0.00  0.00    +0.022 C 
ENDBRANCH  12  14
ENDBRANCH   7  10
ENDBRANCH   1   3
BRANCH   1  20
ATOM     20  C   UNL     1      -8.652  -5.337  -1.116  0.00  0.00    +0.198 C 
BRANCH  20  22
ATOM     21  N   UNL     1      -6.936  -3.687  -0.445  0.00  0.00    -0.284 N 
ATOM     22  C   UNL     1      -7.223  -4.868  -1.027  0.00  0.00    +0.234 C 
ATOM     23  O   UNL     1      -6.331  -5.553  -1.480  0.00  0.00    -0.274 OA
ATOM     24  H   UNL     1      -7.638  -3.175  -0.015  0.00  0.00    +0.155 HD
BRANCH  21  28
ATOM     25  C   UNL     1      -3.032  -2.235  -0.491  0.00  0.00    +0.037 A 
ATOM     26  C   UNL     1      -3.514  -2.982  -1.569  0.00  0.00    +0.015 A 
ATOM     27  C   UNL     1      -4.804  -3.461  -1.551  0.00  0.00    +0.024 A 
ATOM     28  C   UNL     1      -5.629  -3.201  -0.460  0.00  0.00    +0.033 A 
ATOM     29  C   UNL     1      -5.152  -2.458   0.615  0.00  0.00    +0.024 A 
ATOM     30  C   UNL     1      -3.860  -1.981   0.605  0.00  0.00    +0.015 A 
BRANCH  25  32
ATOM     31  N   UNL     1      -0.851  -1.967  -1.566  0.00  0.00    -0.309 N 
ATOM     32  C   UNL     1      -1.648  -1.721  -0.508  0.00  0.00    +0.244 C 
ATOM     33  O   UNL     1      -1.229  -1.075   0.433  0.00  0.00    -0.270 OA
ATOM     34  H   UNL     1      -1.185  -2.482  -2.316  0.00  0.00    +0.149 HD
BRANCH  31  36
ATOM     35  C   UNL     1       1.381  -2.330  -2.499  0.00  0.00    +0.027 C 
ATOM     36  C   UNL     1       0.523  -1.456  -1.582  0.00  0.00    +0.067 C 
ATOM     37  C   UNL     1       0.525  -0.017  -2.101  0.00  0.00    +0.027 C 
ENDBRANCH  31  36
ENDBRANCH  25  32
ENDBRANCH  21  28
ENDBRANCH  20  22
ENDBRANCH   1  20
TORSDOF 8
