REMARK  Name = ZINC16161848
REMARK  9 active torsions:
REMARK  status: ('A' for Active; 'I' for Inactive)
REMARK    1  A    between atoms: C_1  and  C_2
REMARK    2  A    between atoms: C_2  and  C_3
REMARK    3  A    between atoms: C_6  and  N_9
REMARK    4  A    between atoms: N_9  and  C_10
REMARK    5  A    between atoms: C_16  and  C_17
REMARK    6  A    between atoms: C_19  and  O_25
REMARK    7  A    between atoms: C_20  and  O_24
REMARK    8  A    between atoms: O_25  and  C_26
REMARK    9  A    between atoms: C_26  and  C_27
REMARK                            x       y       z     vdW  Elec       q    Type
REMARK                         _______ _______ _______ _____ _____    ______ ____
ROOT
ATOM      1  C   UNL     1       1.367   4.295   5.049  0.00  0.00    +0.224 C 
ATOM      2  N   UNL     1       0.755   4.789   6.293  0.00  0.00    -0.284 N 
ATOM      3  C   UNL     1      -0.527   4.543   6.497  0.00  0.00    +0.252 C 
ATOM      4  O   UNL     1      -1.073   4.932   7.512  0.00  0.00    -0.270 OA
ATOM      5  C   UNL     1      -1.288   3.792   5.483  0.00  0.00    +0.073 C 
ATOM      6  C   UNL     1      -2.595   3.438   5.497  0.00  0.00    +0.029 C 
ATOM      7  S   UNL     1      -0.054   3.460   4.235  0.00  0.00    -0.078 S 
ATOM      8  H   UNL     1       1.278   5.280   6.946  0.00  0.00    +0.152 HD
ENDROOT
BRANCH   6   9
ATOM      9  C   UNL     1      -3.205   2.833   4.304  0.00  0.00    -0.006 A 
ATOM     10  C   UNL     1      -2.588   2.969   3.055  0.00  0.00    +0.058 A 
ATOM     11  C   UNL     1      -3.166   2.397   1.938  0.00  0.00    +0.162 A 
ATOM     12  C   UNL     1      -4.363   1.691   2.055  0.00  0.00    +0.160 A 
ATOM     13  C   UNL     1      -4.972   1.550   3.293  0.00  0.00    +0.065 A 
ATOM     14  C   UNL     1      -4.403   2.118   4.415  0.00  0.00    +0.029 A 
ATOM     15 BR   UNL     1      -5.241   1.929   6.099  0.00  0.00    -0.050 Br
BRANCH  12  16
ATOM     16  O   UNL     1      -4.931   1.134   0.953  0.00  0.00    -0.503 OA
ATOM     17  H   UNL     1      -4.642   0.229   0.777  0.00  0.00    +0.292 HD
ENDBRANCH  12  16
BRANCH  11  18
ATOM     18  O   UNL     1      -2.570   2.527   0.723  0.00  0.00    -0.489 OA
BRANCH  18  19
ATOM     19  C   UNL     1      -1.349   3.268   0.675  0.00  0.00    +0.226 C 
ATOM     20  C   UNL     1      -0.832   3.307  -0.764  0.00  0.00    +0.048 C 
ENDBRANCH  18  19
ENDBRANCH  11  18
ENDBRANCH   6   9
BRANCH   1  21
ATOM     21  N   UNL     1       2.438   3.337   5.336  0.00  0.00    -0.317 N 
ATOM     22  H   UNL     1       2.514   2.945   6.220  0.00  0.00    +0.149 HD
BRANCH  21  26
ATOM     23  C   UNL     1       5.153   2.296   2.356  0.00  0.00    -0.048 A 
ATOM     24  C   UNL     1       5.263   1.736   3.615  0.00  0.00    +0.005 A 
ATOM     25  C   UNL     1       4.364   2.080   4.606  0.00  0.00    +0.023 A 
ATOM     26  C   UNL     1       3.349   2.988   4.336  0.00  0.00    +0.029 A 
ATOM     27  C   UNL     1       3.238   3.544   3.068  0.00  0.00    +0.023 A 
ATOM     28  C   UNL     1       4.143   3.201   2.083  0.00  0.00    +0.005 A 
BRANCH  23  30
ATOM     29  C   UNL     1       5.606   0.708   0.506  0.00  0.00    +0.009 C 
ATOM     30  C   UNL     1       6.135   1.919   1.277  0.00  0.00    +0.032 C 
ENDBRANCH  23  30
ENDBRANCH  21  26
ENDBRANCH   1  21
TORSDOF 7
