REMARK  Name = ZINC03897368
REMARK  0 active torsions:
REMARK  status: ('A' for Active; 'I' for Inactive)
REMARK                            x       y       z     vdW  Elec       q    Type
REMARK                         _______ _______ _______ _____ _____    ______ ____
ROOT
ATOM      1  C   UNL     1      -2.810   0.330   4.540  0.00  0.00    +0.131 C 
ATOM      2  C   UNL     1      -2.227  -0.792   3.679  0.00  0.00    +0.178 C 
ATOM      3  O   UNL     1      -2.023  -0.313   2.348  0.00  0.00    -0.377 OA
ATOM      4  C   UNL     1      -1.486  -1.290   1.454  0.00  0.00    +0.178 C 
ATOM      5  C   UNL     1      -1.315  -0.672   0.065  0.00  0.00    +0.131 C 
ATOM      6  N   UNL     1       0.002  -0.004   0.002  0.00  0.00    -0.324 N 
ATOM      7  C   UNL     1      -0.016   1.359   0.009  0.00  0.00    +0.130 C 
ATOM      8  S   UNL     1      -1.494   2.224   0.021  0.00  0.00    -0.019 S 
ATOM      9  N   UNL     1       1.181   2.011   0.002  0.00  0.00    -0.324 N 
ATOM     10  C   UNL     1       1.116   3.488   0.001  0.00  0.00    +0.131 C 
ATOM     11  C   UNL     1       1.620   4.002   1.351  0.00  0.00    +0.178 C 
ATOM     12  O   UNL     1       0.545   4.005   2.292  0.00  0.00    -0.377 OA
ATOM     13  C   UNL     1       0.925   4.407   3.609  0.00  0.00    +0.178 C 
ATOM     14  C   UNL     1      -0.315   4.452   4.506  0.00  0.00    +0.131 C 
ATOM     15  N   UNL     1      -0.505   3.121   5.119  0.00  0.00    -0.324 N 
ATOM     16  C   UNL     1      -1.518   2.365   4.607  0.00  0.00    +0.130 C 
ATOM     17  S   UNL     1      -2.532   2.968   3.366  0.00  0.00    -0.019 S 
ATOM     18  N   UNL     1      -1.697   1.113   5.117  0.00  0.00    -0.324 N 
ATOM     19  H   UNL     1       0.831  -0.506  -0.042  0.00  0.00    +0.148 HD
ATOM     20  H   UNL     1       2.025   1.534  -0.003  0.00  0.00    +0.148 HD
ATOM     21  H   UNL     1       0.057   2.804   5.843  0.00  0.00    +0.148 HD
ATOM     22  H   UNL     1      -1.128   0.758   5.817  0.00  0.00    +0.148 HD
ENDROOT
TORSDOF 0
