REMARK  Name = ZINC07047738
REMARK  10 active torsions:
REMARK  status: ('A' for Active; 'I' for Inactive)
REMARK    1  A    between atoms: C_1  and  C_2
REMARK    2  A    between atoms: C_4  and  N_26
REMARK    3  A    between atoms: C_6  and  S_8
REMARK    4  A    between atoms: S_8  and  C_9
REMARK    5  A    between atoms: C_9  and  C_10
REMARK    6  A    between atoms: C_13  and  C_16
REMARK    7  A    between atoms: C_16  and  S_17
REMARK    8  A    between atoms: S_17  and  C_18
REMARK    9  A    between atoms: C_20  and  C_25
REMARK   10  A    between atoms: C_22  and  N_24
REMARK                            x       y       z     vdW  Elec       q    Type
REMARK                         _______ _______ _______ _____ _____    ______ ____
ROOT
ATOM      1  C   UNL     1       0.093  -5.461   3.466  0.00  0.00    -0.037 A 
ATOM      2  C   UNL     1       1.298  -5.830   4.034  0.00  0.00    +0.005 A 
ATOM      3  C   UNL     1       1.314  -6.611   5.175  0.00  0.00    +0.005 A 
ATOM      4  C   UNL     1       0.125  -7.022   5.747  0.00  0.00    -0.037 A 
ATOM      5  C   UNL     1      -1.080  -6.652   5.180  0.00  0.00    +0.005 A 
ATOM      6  C   UNL     1      -1.096  -5.867   4.042  0.00  0.00    +0.005 A 
ENDROOT
BRANCH   1   7
ATOM      7  C   UNL     1       0.076  -4.610   2.222  0.00  0.00    +0.112 C 
BRANCH   7   8
ATOM      8  S   UNL     1       0.054  -2.857   2.690  0.00  0.00    -0.081 S 
BRANCH   8  14
ATOM      9  C   UNL     1      -0.018   1.503   0.010  0.00  0.00    +0.066 C 
ATOM     10  C   UNL     1       0.002  -0.004   0.002  0.00  0.00    +0.044 A 
ATOM     11  C   UNL     1       0.006  -0.696  -1.194  0.00  0.00    +0.066 A 
ATOM     12  C   UNL     1       0.026  -2.091  -1.157  0.00  0.00    +0.121 A 
ATOM     13  N   UNL     1       0.040  -2.705   0.022  0.00  0.00    -0.207 NA
ATOM     14  C   UNL     1       0.035  -2.005   1.147  0.00  0.00    +0.190 A 
ATOM     15  N   UNL     1       0.022  -0.679   1.141  0.00  0.00    -0.227 NA
BRANCH  12  16
ATOM     16  N   UNL     1       0.030  -2.826  -2.331  0.00  0.00    -0.343 N 
ATOM     17  H   UNL     1       0.019  -2.371  -3.188  0.00  0.00    +0.144 HD
ATOM     18  H   UNL     1       0.043  -3.795  -2.297  0.00  0.00    +0.144 HD
ENDBRANCH  12  16
ENDBRANCH   8  14
ENDBRANCH   7   8
ENDBRANCH   1   7
BRANCH   4  19
ATOM     19  C   UNL     1       0.142  -7.874   6.990  0.00  0.00    +0.112 C 
BRANCH  19  20
ATOM     20  S   UNL     1       0.128  -6.805   8.456  0.00  0.00    -0.081 S 
BRANCH  20  21
ATOM     21  C   UNL     1       0.150  -7.936   9.808  0.00  0.00    +0.190 A 
ATOM     22  N   UNL     1       0.140  -7.463  11.046  0.00  0.00    -0.227 NA
ATOM     23  C   UNL     1       0.156  -8.281  12.088  0.00  0.00    +0.044 A 
ATOM     24  C   UNL     1       0.184  -9.646  11.875  0.00  0.00    +0.066 A 
ATOM     25  C   UNL     1       0.194 -10.115  10.559  0.00  0.00    +0.121 A 
ATOM     26  N   UNL     1       0.171  -9.237   9.561  0.00  0.00    -0.207 NA
ATOM     27  C   UNL     1       0.144  -7.729  13.490  0.00  0.00    +0.066 C 
BRANCH  25  28
ATOM     28  N   UNL     1       0.223 -11.475  10.299  0.00  0.00    -0.343 N 
ATOM     29  H   UNL     1       0.236 -12.109  11.033  0.00  0.00    +0.144 HD
ATOM     30  H   UNL     1       0.230 -11.793   9.382  0.00  0.00    +0.144 HD
ENDBRANCH  25  28
ENDBRANCH  20  21
ENDBRANCH  19  20
ENDBRANCH   4  19
TORSDOF 8
