REMARK  Name = ZINC08870947
REMARK  11 active torsions:
REMARK  status: ('A' for Active; 'I' for Inactive)
REMARK    1  A    between atoms: C_1  and  N_2
REMARK    2  A    between atoms: N_2  and  C_3
REMARK    3  A    between atoms: C_6  and  O_9
REMARK    4  A    between atoms: O_9  and  C_10
REMARK    5  A    between atoms: C_10  and  C_11
REMARK    6  A    between atoms: C_11  and  C_13
REMARK    7  A    between atoms: C_11  and  O_29
REMARK    8  A    between atoms: C_13  and  N_14
REMARK    9  A    between atoms: C_16  and  C_23
REMARK   10  A    between atoms: N_24  and  N_25
REMARK   11  A    between atoms: C_30  and  C_32
REMARK                            x       y       z     vdW  Elec       q    Type
REMARK                         _______ _______ _______ _____ _____    ______ ____
ROOT
ATOM      1  C   UNL     1      -2.602   3.613  -1.498  0.00  0.00    +0.171 C 
ENDROOT
BRANCH   1   2
ATOM      2  O   UNL     1      -3.112   4.026  -0.228  0.00  0.00    -0.387 OA
ATOM      3  H   UNL     1      -2.595   4.726   0.194  0.00  0.00    +0.210 HD
ENDBRANCH   1   2
BRANCH   1   4
ATOM      4  C   UNL     1      -1.177   3.083  -1.327  0.00  0.00    +0.262 C 
BRANCH   4   5
ATOM      5  O   UNL     1      -1.202   1.899  -0.527  0.00  0.00    -0.489 OA
BRANCH   5   9
ATOM      6  C   UNL     1       2.421   0.066   0.219  0.00  0.00    +0.036 A 
ATOM      7  C   UNL     1       1.251  -0.470   0.740  0.00  0.00    +0.027 A 
ATOM      8  C   UNL     1       0.040   0.145   0.492  0.00  0.00    +0.047 A 
ATOM      9  C   UNL     1      -0.008   1.298  -0.278  0.00  0.00    +0.121 A 
ATOM     10  C   UNL     1       1.161   1.833  -0.800  0.00  0.00    +0.047 A 
ATOM     11  C   UNL     1       2.373   1.220  -0.552  0.00  0.00    +0.027 A 
BRANCH   6  13
ATOM     12  C   UNL     1       3.688  -1.857   1.145  0.00  0.00    +0.138 C 
ATOM     13  N   UNL     1       3.650  -0.557   0.470  0.00  0.00    -0.271 N 
ATOM     14  C   UNL     1       4.798   0.038   0.090  0.00  0.00    +0.251 C 
ATOM     15  O   UNL     1       4.776   1.165  -0.367  0.00  0.00    -0.270 OA
BRANCH  14  16
ATOM     16  C   UNL     1       6.083  -0.678   0.229  0.00  0.00    +0.037 A 
ATOM     17  C   UNL     1       6.104  -2.071   0.318  0.00  0.00    +0.013 A 
ATOM     18  C   UNL     1       7.308  -2.733   0.441  0.00  0.00    +0.001 A 
ATOM     19  C   UNL     1       8.492  -2.020   0.488  0.00  0.00    +0.000 A 
ATOM     20  C   UNL     1       8.478  -0.639   0.406  0.00  0.00    +0.001 A 
ATOM     21  C   UNL     1       7.282   0.036   0.276  0.00  0.00    +0.013 A 
ENDBRANCH  14  16
ENDBRANCH   6  13
ENDBRANCH   5   9
ENDBRANCH   4   5
ENDBRANCH   1   4
BRANCH   1  22
ATOM     22  C   UNL     1      -2.592   4.806  -2.455  0.00  0.00    +0.156 C 
BRANCH  22  23
ATOM     23  N   UNL     1      -3.968   5.239  -2.712  0.00  0.00    -0.343 N 
ATOM     24  C   UNL     1      -4.722   4.847  -3.778  0.00  0.00    +0.096 A 
ATOM     25  C   UNL     1      -5.949   5.429  -3.710  0.00  0.00    +0.020 A 
ATOM     26  C   UNL     1      -5.952   6.264  -2.496  0.00  0.00    +0.008 A 
ATOM     27  C   UNL     1      -4.684   6.104  -1.912  0.00  0.00    +0.050 A 
ATOM     28  C   UNL     1      -4.384   6.781  -0.735  0.00  0.00    +0.026 A 
ATOM     29  C   UNL     1      -5.328   7.599  -0.153  0.00  0.00    +0.002 A 
ATOM     30  C   UNL     1      -6.579   7.757  -0.730  0.00  0.00    +0.001 A 
ATOM     31  C   UNL     1      -6.896   7.095  -1.896  0.00  0.00    +0.010 A 
BRANCH  25  32
ATOM     32  C   UNL     1      -7.057   5.263  -4.666  0.00  0.00    +0.140 C 
ATOM     33  N   UNL     1      -8.178   5.889  -4.476  0.00  0.00    -0.186 NA
BRANCH  33  34
ATOM     34  N   UNL     1      -9.232   5.731  -5.385  0.00  0.00    -0.191 N 
ATOM     35  C   UNL     1     -10.396   6.381  -5.188  0.00  0.00    +0.317 C 
ATOM     36  O   UNL     1     -11.311   6.243  -5.978  0.00  0.00    -0.251 OA
ATOM     37  N   UNL     1     -10.546   7.184  -4.116  0.00  0.00    -0.312 N 
ATOM     38  H   UNL     1      -9.124   5.153  -6.157  0.00  0.00    +0.179 HD
ATOM     39  H   UNL     1      -9.817   7.293  -3.486  0.00  0.00    +0.147 HD
ATOM     40  H   UNL     1     -11.384   7.652  -3.974  0.00  0.00    +0.147 HD
ENDBRANCH  33  34
ENDBRANCH  25  32
ENDBRANCH  22  23
ENDBRANCH   1  22
TORSDOF 10
