REMARK  Name = ZINC21323288
REMARK  7 active torsions:
REMARK  status: ('A' for Active; 'I' for Inactive)
REMARK    1  A    between atoms: C_1  and  C_2
REMARK    2  A    between atoms: C_2  and  C_20
REMARK    3  A    between atoms: N_3  and  N_4
REMARK    4  A    between atoms: C_8  and  S_11
REMARK    5  A    between atoms: N_9  and  N_10
REMARK    6  A    between atoms: S_11  and  C_12
REMARK    7  A    between atoms: C_12  and  C_13
REMARK                            x       y       z     vdW  Elec       q    Type
REMARK                         _______ _______ _______ _____ _____    ______ ____
ROOT
ATOM      1  N   UNL     1       1.701  -1.706  -0.023  0.00  0.00    -0.204 N 
ATOM      2  C   UNL     1       1.254  -0.392  -0.012  0.00  0.00    +0.254 A 
ATOM      3  N   UNL     1       0.002  -0.004   0.002  0.00  0.00    -0.109 NA
ATOM      4  N   UNL     1      -0.017   1.397   0.010  0.00  0.00    -0.119 NA
ATOM      5  C   UNL     1       1.225   1.819   0.000  0.00  0.00    +0.210 A 
ATOM      6  N   UNL     1       2.043   0.725  -0.014  0.00  0.00    -0.211 N 
ATOM      7  H   UNL     1       2.780  -1.919  -0.034  0.00  0.00    +0.178 HD
ENDROOT
BRANCH   1  10
ATOM      8  C   UNL     1       2.674  -4.282  -0.046  0.00  0.00    +0.068 C 
ATOM      9  C   UNL     1       1.196  -3.989  -0.031  0.00  0.00    +0.063 C 
ATOM     10  N   UNL     1       0.778  -2.759  -0.021  0.00  0.00    -0.184 NA
BRANCH   9  11
ATOM     11  C   UNL     1       0.225  -5.098  -0.029  0.00  0.00    -0.002 A 
ATOM     12  C   UNL     1       0.671  -6.422  -0.046  0.00  0.00    +0.012 A 
ATOM     13  C   UNL     1      -0.242  -7.455  -0.036  0.00  0.00    +0.039 A 
ATOM     14  C   UNL     1      -1.601  -7.182  -0.023  0.00  0.00    +0.123 A 
ATOM     15  C   UNL     1      -2.050  -5.871  -0.012  0.00  0.00    +0.039 A 
ATOM     16  C   UNL     1      -1.147  -4.829  -0.015  0.00  0.00    +0.012 A 
ATOM     17  F   UNL     1      -2.491  -8.198  -0.020  0.00  0.00    -0.205 F 
ENDBRANCH   9  11
ENDBRANCH   1  10
BRANCH   6  18
ATOM     18  N   UNL     1       3.409   0.744  -0.026  0.00  0.00    -0.294 N 
ATOM     19  H   UNL     1       3.945   1.704  -0.026  0.00  0.00    +0.163 HD
ATOM     20  H   UNL     1       3.971  -0.201  -0.037  0.00  0.00    +0.163 HD
ENDBRANCH   6  18
BRANCH   5  21
ATOM     21  S   UNL     1       1.747   3.502   0.003  0.00  0.00    -0.080 S 
BRANCH  21  22
ATOM     22  C   UNL     1       0.196   4.442   0.023  0.00  0.00    +0.112 C 
BRANCH  22  23
ATOM     23  C   UNL     1       0.502   5.918   0.027  0.00  0.00    -0.037 A 
ATOM     24  C   UNL     1       0.649   6.590   1.226  0.00  0.00    +0.006 A 
ATOM     25  C   UNL     1       0.936   7.942   1.230  0.00  0.00    +0.020 A 
ATOM     26  C   UNL     1       1.066   8.625   0.034  0.00  0.00    +0.041 A 
ATOM     27  C   UNL     1       0.913   7.953  -1.166  0.00  0.00    +0.020 A 
ATOM     28  C   UNL     1       0.631   6.600  -1.169  0.00  0.00    +0.006 A 
ATOM     29 CL   UNL     1       1.420  10.324   0.039  0.00  0.00    -0.084 Cl
ENDBRANCH  22  23
ENDBRANCH  21  22
ENDBRANCH   5  21
TORSDOF 6
