REMARK  Name = ZINC40980766
REMARK  16 active torsions:
REMARK  status: ('A' for Active; 'I' for Inactive)
REMARK    1  A    between atoms: C_1  and  C_2
REMARK    2  A    between atoms: C_2  and  C_3
REMARK    3  A    between atoms: C_3  and  S_4
REMARK    4  A    between atoms: S_4  and  C_5
REMARK    5  A    between atoms: C_10  and  C_22
REMARK    6  A    between atoms: C_12  and  C_16
REMARK    7  A    between atoms: C_13  and  C_15
REMARK    8  A    between atoms: C_16  and  O_18
REMARK    9  A    between atoms: O_18  and  C_19
REMARK   10  A    between atoms: C_19  and  C_20
REMARK   11  A    between atoms: C_19  and  C_21
REMARK   12  A    between atoms: C_25  and  O_30
REMARK   13  A    between atoms: C_26  and  O_28
REMARK   14  A    between atoms: O_28  and  C_29
REMARK   15  A    between atoms: O_30  and  C_31
REMARK   16  A    between atoms: C_31  and  C_32
REMARK                            x       y       z     vdW  Elec       q    Type
REMARK                         _______ _______ _______ _____ _____    ______ ____
ROOT
ATOM      1  C   UNL     1      -3.198  -2.599  -0.411  0.00  0.00    +0.210 A 
ATOM      2  N   UNL     1      -4.280  -1.812  -0.328  0.00  0.00    -0.187 NA
ATOM      3  C   UNL     1      -5.342  -2.548  -0.142  0.00  0.00    +0.219 A 
ATOM      4  N   UNL     1      -4.953  -3.847  -0.107  0.00  0.00    -0.220 N 
ATOM      5  N   UNL     1      -3.570  -3.854  -0.284  0.00  0.00    -0.141 NA
ATOM      6  C   UNL     1      -5.877  -4.962   0.077  0.00  0.00    +0.179 C 
ATOM      7  C   UNL     1      -7.220  -4.435   0.508  0.00  0.00    +0.082 C 
ATOM      8  C   UNL     1      -7.548  -3.135   0.455  0.00  0.00    +0.020 C 
ATOM      9  N   UNL     1      -6.671  -2.178   0.008  0.00  0.00    -0.287 N 
ATOM     10  C   UNL     1      -8.924  -2.712   0.899  0.00  0.00    +0.061 C 
ATOM     11  H   UNL     1      -6.969  -1.277  -0.194  0.00  0.00    +0.155 HD
ENDROOT
BRANCH   6  12
ATOM     12  C   UNL     1      -6.025  -5.711  -1.223  0.00  0.00    -0.015 A 
ATOM     13  C   UNL     1      -6.500  -5.057  -2.345  0.00  0.00    +0.010 A 
ATOM     14  C   UNL     1      -6.638  -5.740  -3.539  0.00  0.00    +0.050 A 
ATOM     15  C   UNL     1      -6.299  -7.081  -3.614  0.00  0.00    +0.162 A 
ATOM     16  C   UNL     1      -5.821  -7.739  -2.485  0.00  0.00    +0.162 A 
ATOM     17  C   UNL     1      -5.681  -7.048  -1.292  0.00  0.00    +0.055 A 
BRANCH  16  18
ATOM     18  O   UNL     1      -5.487  -9.055  -2.553  0.00  0.00    -0.491 OA
ATOM     19  C   UNL     1      -5.003  -9.665  -1.355  0.00  0.00    +0.277 C 
ENDBRANCH  16  18
BRANCH  15  20
ATOM     20  O   UNL     1      -6.435  -7.754  -4.788  0.00  0.00    -0.484 OA
BRANCH  20  21
ATOM     21  C   UNL     1      -6.932  -7.015  -5.906  0.00  0.00    +0.264 C 
BRANCH  21  22
ATOM     22  C   UNL     1      -7.014  -7.918  -7.109  0.00  0.00    -0.010 A 
ATOM     23  C   UNL     1      -5.929  -8.038  -7.958  0.00  0.00    +0.007 A 
ATOM     24  C   UNL     1      -6.004  -8.866  -9.062  0.00  0.00    +0.000 A 
ATOM     25  C   UNL     1      -7.163  -9.576  -9.317  0.00  0.00    +0.000 A 
ATOM     26  C   UNL     1      -8.247  -9.457  -8.467  0.00  0.00    +0.000 A 
ATOM     27  C   UNL     1      -8.171  -8.632  -7.361  0.00  0.00    +0.007 A 
ENDBRANCH  21  22
ENDBRANCH  20  21
ENDBRANCH  15  20
ENDBRANCH   6  12
BRANCH   7  28
ATOM     28  C   UNL     1      -8.179  -5.352   0.992  0.00  0.00    +0.339 C 
ATOM     29  O   UNL     1      -8.124  -5.740   2.144  0.00  0.00    -0.245 OA
BRANCH  28  30
ATOM     30  O   UNL     1      -9.158  -5.798   0.176  0.00  0.00    -0.459 OA
BRANCH  30  31
ATOM     31  C   UNL     1     -10.094  -6.723   0.731  0.00  0.00    +0.171 C 
ATOM     32  C   UNL     1     -11.270  -5.957   1.340  0.00  0.00    +0.052 C 
ATOM     33  C   UNL     1     -10.607  -7.653  -0.370  0.00  0.00    +0.052 C 
ENDBRANCH  30  31
ENDBRANCH  28  30
ENDBRANCH   7  28
BRANCH   1  34
ATOM     34  S   UNL     1      -1.544  -2.042  -0.659  0.00  0.00    -0.084 S 
BRANCH  34  35
ATOM     35  C   UNL     1      -1.698  -0.237  -0.753  0.00  0.00    +0.077 C 
BRANCH  35  37
ATOM     36  C   UNL     1      -0.446   1.904  -1.050  0.00  0.00    +0.004 C 
ATOM     37  C   UNL     1      -0.316   0.382  -0.970  0.00  0.00    +0.008 C 
ENDBRANCH  35  37
ENDBRANCH  34  35
ENDBRANCH   1  34
TORSDOF 11
