REMARK  Name = ZINC36587167
REMARK  13 active torsions:
REMARK  status: ('A' for Active; 'I' for Inactive)
REMARK    1  A    between atoms: C_1  and  C_2
REMARK    2  A    between atoms: C_2  and  C_3
REMARK    3  A    between atoms: C_2  and  C_4
REMARK    4  A    between atoms: C_2  and  N_5
REMARK    5  A    between atoms: N_5  and  C_6
REMARK    6  A    between atoms: C_6  and  C_8
REMARK    7  A    between atoms: C_6  and  C_17
REMARK    8  A    between atoms: C_9  and  O_16
REMARK    9  A    between atoms: C_11  and  O_15
REMARK   10  A    between atoms: C_13  and  O_14
REMARK   11  A    between atoms: N_19  and  C_20
REMARK   12  A    between atoms: C_26  and  C_28
REMARK   13  A    between atoms: C_28  and  C_29
REMARK                            x       y       z     vdW  Elec       q    Type
REMARK                         _______ _______ _______ _____ _____    ______ ____
ROOT
ATOM      1  C   UNL     1       2.297   0.260  -1.417  0.00  0.00    +0.200 C 
ENDROOT
BRANCH   1   2
ATOM      2  C   UNL     1       1.829   1.536  -0.768  0.00  0.00    +0.065 A 
ATOM      3  C   UNL     1       1.195   1.495   0.465  0.00  0.00    +0.129 A 
ATOM      4  C   UNL     1       0.763   2.670   1.062  0.00  0.00    +0.091 A 
ATOM      5  C   UNL     1       0.966   3.886   0.427  0.00  0.00    +0.124 A 
ATOM      6  C   UNL     1       1.601   3.927  -0.805  0.00  0.00    +0.091 A 
ATOM      7  C   UNL     1       2.036   2.753  -1.400  0.00  0.00    +0.129 A 
BRANCH   7   8
ATOM      8  O   UNL     1       2.662   2.793  -2.606  0.00  0.00    -0.506 OA
ATOM      9  H   UNL     1       2.064   2.726  -3.362  0.00  0.00    +0.292 HD
ENDBRANCH   7   8
BRANCH   5  10
ATOM     10  O   UNL     1       0.543   5.037   1.012  0.00  0.00    -0.507 OA
ATOM     11  H   UNL     1       1.201   5.452   1.587  0.00  0.00    +0.292 HD
ENDBRANCH   5  10
BRANCH   3  12
ATOM     12  O   UNL     1       0.996   0.304   1.087  0.00  0.00    -0.506 OA
ATOM     13  H   UNL     1       1.680   0.078   1.733  0.00  0.00    +0.292 HD
ENDBRANCH   3  12
ENDBRANCH   1   2
BRANCH   1  14
ATOM     14  C   UNL     1       3.116  -0.534  -0.431  0.00  0.00    +0.239 C 
ATOM     15  O   UNL     1       2.629  -1.495   0.126  0.00  0.00    -0.273 OA
ATOM     16  N   UNL     1       4.388  -0.176  -0.169  0.00  0.00    -0.311 N 
ATOM     17  H   UNL     1       4.777   0.593  -0.615  0.00  0.00    +0.149 HD
BRANCH  16  18
ATOM     18  C   UNL     1       5.184  -0.948   0.789  0.00  0.00    +0.073 C 
ATOM     19  C   UNL     1       4.905  -0.444   2.207  0.00  0.00    +0.022 C 
ATOM     20  C   UNL     1       5.735  -1.249   3.207  0.00  0.00    +0.002 C 
ATOM     21  C   UNL     1       7.222  -1.080   2.889  0.00  0.00    +0.000 C 
ATOM     22  C   UNL     1       7.501  -1.584   1.472  0.00  0.00    +0.002 C 
ATOM     23  C   UNL     1       6.671  -0.778   0.471  0.00  0.00    +0.022 C 
ENDBRANCH  16  18
ENDBRANCH   1  14
BRANCH   1  24
ATOM     24  N   UNL     1       1.137  -0.530  -1.836  0.00  0.00    -0.280 N 
ATOM     25  C   UNL     1      -0.109  -0.068  -1.610  0.00  0.00    +0.221 C 
ATOM     26  O   UNL     1      -0.272   1.059  -1.194  0.00  0.00    -0.275 OA
BRANCH  24  28
ATOM     27  C   UNL     1       2.823  -2.155  -2.541  0.00  0.00    +0.031 C 
ATOM     28  C   UNL     1       1.330  -1.822  -2.499  0.00  0.00    +0.030 C 
ATOM     29  C   UNL     1       0.784  -1.748  -3.927  0.00  0.00    +0.031 C 
ATOM     30  C   UNL     1       0.585  -2.910  -1.724  0.00  0.00    +0.031 C 
ENDBRANCH  24  28
BRANCH  25  31
ATOM     31  C   UNL     1      -1.300  -0.953  -1.875  0.00  0.00    +0.132 C 
BRANCH  31  32
ATOM     32  C   UNL     1      -2.544  -0.107  -1.967  0.00  0.00    -0.019 A 
ATOM     33  C   UNL     1      -3.339   0.077  -0.851  0.00  0.00    +0.005 A 
ATOM     34  C   UNL     1      -4.480   0.853  -0.934  0.00  0.00    +0.002 A 
ATOM     35  C   UNL     1      -4.828   1.445  -2.133  0.00  0.00    +0.021 A 
ATOM     36  C   UNL     1      -4.034   1.263  -3.251  0.00  0.00    +0.060 A 
ATOM     37  C   UNL     1      -2.888   0.490  -3.166  0.00  0.00    +0.063 A 
ATOM     38 CL   UNL     1      -1.886   0.266  -4.566  0.00  0.00    -0.082 Cl
ATOM     39 CL   UNL     1      -4.471   2.006  -4.758  0.00  0.00    -0.082 Cl
ENDBRANCH  31  32
ENDBRANCH  25  31
ENDBRANCH   1  24
TORSDOF 10
