REMARK  Name = ZINC02321769
REMARK  7 active torsions:
REMARK  status: ('A' for Active; 'I' for Inactive)
REMARK    1  A    between atoms: C_6  and  C_7
REMARK    2  A    between atoms: C_7  and  C_24
REMARK    3  A    between atoms: C_9  and  C_11
REMARK    4  A    between atoms: N_13  and  N_14
REMARK    5  A    between atoms: C_15  and  C_16
REMARK    6  A    between atoms: C_19  and  O_23
REMARK    7  A    between atoms: C_21  and  O_22
REMARK                            x       y       z     vdW  Elec       q    Type
REMARK                         _______ _______ _______ _____ _____    ______ ____
ROOT
ATOM      1  C   UNL     1       9.555   5.478   3.557  0.00  0.00    +0.033 C 
ATOM      2  C   UNL     1       8.974   6.638   2.746  0.00  0.00    +0.031 C 
ATOM      3  C   UNL     1       9.020   5.231   2.145  0.00  0.00    +0.093 C 
ENDROOT
BRANCH   1   9
ATOM      4  C   UNL     1       8.253   5.833   5.665  0.00  0.00    +0.006 A 
ATOM      5  C   UNL     1       7.499   5.357   6.721  0.00  0.00    +0.020 A 
ATOM      6  C   UNL     1       7.239   4.002   6.829  0.00  0.00    +0.041 A 
ATOM      7  C   UNL     1       7.729   3.126   5.878  0.00  0.00    +0.020 A 
ATOM      8  C   UNL     1       8.478   3.604   4.819  0.00  0.00    +0.006 A 
ATOM      9  C   UNL     1       8.738   4.957   4.711  0.00  0.00    -0.036 A 
ATOM     10 CL   UNL     1       6.297   3.403   8.159  0.00  0.00    -0.084 Cl
ENDBRANCH   1   9
BRANCH   1  11
ATOM     11  C   UNL     1      11.049   5.444   3.751  0.00  0.00    -0.036 A 
ATOM     12  C   UNL     1      11.873   5.067   2.707  0.00  0.00    +0.006 A 
ATOM     13  C   UNL     1      13.244   5.041   2.882  0.00  0.00    +0.020 A 
ATOM     14  C   UNL     1      13.791   5.383   4.106  0.00  0.00    +0.041 A 
ATOM     15  C   UNL     1      12.966   5.755   5.152  0.00  0.00    +0.020 A 
ATOM     16  C   UNL     1      11.595   5.785   4.974  0.00  0.00    +0.006 A 
ATOM     17 CL   UNL     1      15.512   5.344   4.329  0.00  0.00    -0.084 Cl
ENDBRANCH   1  11
BRANCH   3  18
ATOM     18  C   UNL     1       7.717   4.487   2.015  0.00  0.00    +0.236 C 
ATOM     19  O   UNL     1       6.665   5.090   2.069  0.00  0.00    -0.274 OA
ATOM     20  N   UNL     1       7.718   3.151   1.838  0.00  0.00    -0.207 N 
ATOM     21  H   UNL     1       8.559   2.668   1.794  0.00  0.00    +0.177 HD
BRANCH  20  22
ATOM     22  N   UNL     1       6.506   2.459   1.717  0.00  0.00    -0.188 NA
ATOM     23  C   UNL     1       6.508   1.172   1.546  0.00  0.00    +0.142 C 
BRANCH  23  24
ATOM     24  C   UNL     1       5.233   0.444   1.419  0.00  0.00    +0.036 A 
ATOM     25  C   UNL     1       5.232  -0.941   1.235  0.00  0.00    +0.016 A 
ATOM     26  C   UNL     1       4.038  -1.618   1.117  0.00  0.00    +0.046 A 
ATOM     27  C   UNL     1       2.833  -0.927   1.178  0.00  0.00    +0.120 A 
ATOM     28  C   UNL     1       2.824   0.448   1.354  0.00  0.00    +0.091 A 
ATOM     29  C   UNL     1       4.017   1.139   1.481  0.00  0.00    +0.129 A 
BRANCH  29  30
ATOM     30  O   UNL     1       4.009   2.485   1.659  0.00  0.00    -0.506 OA
ATOM     31  H   UNL     1       4.029   2.991   0.836  0.00  0.00    +0.292 HD
ENDBRANCH  29  30
BRANCH  27  32
ATOM     32  O   UNL     1       1.660  -1.602   1.059  0.00  0.00    -0.507 OA
ATOM     33  H   UNL     1       1.298  -1.913   1.901  0.00  0.00    +0.292 HD
ENDBRANCH  27  32
ENDBRANCH  23  24
ENDBRANCH  20  22
ENDBRANCH   3  18
TORSDOF 7
