REMARK  Name = ZINC20939854
REMARK  5 active torsions:
REMARK  status: ('A' for Active; 'I' for Inactive)
REMARK    1  A    between atoms: C_1  and  C_2
REMARK    2  A    between atoms: C_2  and  C_23
REMARK    3  A    between atoms: C_5  and  S_12
REMARK    4  A    between atoms: S_12  and  N_15
REMARK    5  A    between atoms: N_15  and  C_16
REMARK                            x       y       z     vdW  Elec       q    Type
REMARK                         _______ _______ _______ _____ _____    ______ ____
ROOT
ATOM      1  C   UNL     1       5.301  -0.087  -2.391  0.00  0.00    +0.025 C 
ATOM      2  C   UNL     1       4.120  -0.274  -3.346  0.00  0.00    +0.068 C 
ATOM      3  C   UNL     1       2.933  -0.854  -2.613  0.00  0.00    -0.010 A 
ATOM      4  C   UNL     1       2.736  -2.038  -1.938  0.00  0.00    +0.035 A 
ATOM      5  C   UNL     1       1.510  -2.303  -1.352  0.00  0.00    +0.109 A 
ATOM      6  C   UNL     1       0.488  -1.376  -1.447  0.00  0.00    +0.030 A 
ATOM      7  C   UNL     1       0.682  -0.190  -2.123  0.00  0.00    +0.025 A 
ATOM      8  C   UNL     1       1.914   0.084  -2.716  0.00  0.00    +0.038 A 
ATOM      9  N   UNL     1       2.350   1.193  -3.442  0.00  0.00    -0.285 N 
ATOM     10  C   UNL     1       3.625   1.066  -3.847  0.00  0.00    +0.227 C 
ATOM     11  O   UNL     1       4.260   1.873  -4.492  0.00  0.00    -0.275 OA
ATOM     12  C   UNL     1       4.516  -1.172  -4.520  0.00  0.00    +0.025 C 
ATOM     13  H   UNL     1       1.667   2.037  -3.620  0.00  0.00    +0.155 HD
ENDROOT
BRANCH   5  14
ATOM     14  S   UNL     1       1.254  -3.816  -0.486  0.00  0.00    +0.072 S 
ATOM     15  O   UNL     1       2.518  -4.207   0.032  0.00  0.00    -0.150 OA
ATOM     16  O   UNL     1       0.117  -3.621   0.344  0.00  0.00    -0.150 OA
BRANCH  14  17
ATOM     17  N   UNL     1       0.829  -4.956  -1.609  0.00  0.00    -0.216 N 
ATOM     18  H   UNL     1       1.472  -5.833  -1.773  0.00  0.00    +0.174 HD
BRANCH  17  19
ATOM     19  C   UNL     1      -0.347  -4.805  -2.349  0.00  0.00    +0.048 A 
ATOM     20  C   UNL     1      -1.578  -5.057  -1.758  0.00  0.00    +0.026 A 
ATOM     21  C   UNL     1      -2.739  -4.900  -2.490  0.00  0.00    +0.022 A 
ATOM     22  C   UNL     1      -2.675  -4.505  -3.814  0.00  0.00    +0.041 A 
ATOM     23  C   UNL     1      -1.450  -4.258  -4.407  0.00  0.00    +0.022 A 
ATOM     24  C   UNL     1      -0.286  -4.408  -3.679  0.00  0.00    +0.026 A 
ATOM     25 CL   UNL     1      -4.136  -4.316  -4.733  0.00  0.00    -0.084 Cl
ENDBRANCH  17  19
ENDBRANCH  14  17
ENDBRANCH   5  14
TORSDOF 3
