REMARK  Name = ZINC13112868
REMARK  11 active torsions:
REMARK  status: ('A' for Active; 'I' for Inactive)
REMARK    1  A    between atoms: C_1  and  C_2
REMARK    2  A    between atoms: C_2  and  C_4
REMARK    3  A    between atoms: C_2  and  N_14
REMARK    4  A    between atoms: C_7  and  S_10
REMARK    5  A    between atoms: S_10  and  N_13
REMARK    6  A    between atoms: N_14  and  C_15
REMARK    7  A    between atoms: C_15  and  C_16
REMARK    8  A    between atoms: N_18  and  C_19
REMARK    9  A    between atoms: C_22  and  O_25
REMARK   10  A    between atoms: O_25  and  C_26
REMARK   11  A    between atoms: C_26  and  C_27
REMARK                            x       y       z     vdW  Elec       q    Type
REMARK                         _______ _______ _______ _____ _____    ______ ____
ROOT
ATOM      1  C   UNL     1       2.856  -1.034   2.200  0.00  0.00    +0.231 C 
ATOM      2  O   UNL     1       2.207  -1.320   3.183  0.00  0.00    -0.274 OA
ATOM      3  N   UNL     1       4.198  -1.158   2.218  0.00  0.00    -0.284 N 
ATOM      4  H   UNL     1       4.711  -0.993   1.411  0.00  0.00    +0.155 HD
ENDROOT
BRANCH   3   5
ATOM      5  C   UNL     1       4.852  -1.525   3.401  0.00  0.00    +0.034 A 
ATOM      6  C   UNL     1       6.098  -0.992   3.700  0.00  0.00    +0.027 A 
ATOM      7  C   UNL     1       6.742  -1.353   4.867  0.00  0.00    +0.047 A 
ATOM      8  C   UNL     1       6.143  -2.249   5.741  0.00  0.00    +0.121 A 
ATOM      9  C   UNL     1       4.897  -2.782   5.443  0.00  0.00    +0.047 A 
ATOM     10  C   UNL     1       4.250  -2.417   4.279  0.00  0.00    +0.027 A 
BRANCH   8  11
ATOM     11  O   UNL     1       6.777  -2.605   6.890  0.00  0.00    -0.487 OA
BRANCH  11  12
ATOM     12  C   UNL     1       6.103  -3.532   7.743  0.00  0.00    +0.264 C 
BRANCH  12  13
ATOM     13  C   UNL     1       6.951  -3.805   8.958  0.00  0.00    -0.010 A 
ATOM     14  C   UNL     1       7.870  -4.838   8.941  0.00  0.00    +0.007 A 
ATOM     15  C   UNL     1       8.649  -5.089  10.055  0.00  0.00    +0.000 A 
ATOM     16  C   UNL     1       8.508  -4.307  11.187  0.00  0.00    +0.000 A 
ATOM     17  C   UNL     1       7.589  -3.275  11.204  0.00  0.00    +0.000 A 
ATOM     18  C   UNL     1       6.814  -3.021  10.088  0.00  0.00    +0.007 A 
ENDBRANCH  12  13
ENDBRANCH  11  12
ENDBRANCH   8  11
ENDBRANCH   3   5
BRANCH   1  19
ATOM     19  C   UNL     1       2.162  -0.539   0.957  0.00  0.00    +0.178 C 
BRANCH  19  20
ATOM     20  N   UNL     1       0.713  -0.493   1.191  0.00  0.00    -0.302 NA
ATOM     21  H   UNL     1       0.494   0.076   1.995  0.00  0.00    +0.123 HD
BRANCH  20  23
ATOM     22  C   UNL     1      -0.017   1.516  -0.005  0.00  0.00    +0.029 C 
ATOM     23  C   UNL     1       0.001  -0.014  -0.002  0.00  0.00    +0.081 C 
BRANCH  23  24
ATOM     24  C   UNL     1      -1.413  -0.534   0.014  0.00  0.00    -0.031 A 
ATOM     25  C   UNL     1      -2.123  -0.570   1.199  0.00  0.00    +0.007 A 
ATOM     26  C   UNL     1      -3.421  -1.046   1.214  0.00  0.00    +0.029 A 
ATOM     27  C   UNL     1      -4.008  -1.487   0.043  0.00  0.00    +0.105 A 
ATOM     28  C   UNL     1      -3.299  -1.450  -1.143  0.00  0.00    +0.029 A 
ATOM     29  C   UNL     1      -2.003  -0.970  -1.158  0.00  0.00    +0.007 A 
BRANCH  27  30
ATOM     30  S   UNL     1      -5.662  -2.095   0.062  0.00  0.00    +0.056 S 
ATOM     31  O   UNL     1      -5.791  -2.954  -1.063  0.00  0.00    -0.153 OA
ATOM     32  O   UNL     1      -5.918  -2.534   1.389  0.00  0.00    -0.153 OA
BRANCH  30  33
ATOM     33  N   UNL     1      -6.662  -0.804  -0.211  0.00  0.00    -0.204 NA
ATOM     34  H   UNL     1      -6.287   0.081  -0.343  0.00  0.00    +0.144 HD
ATOM     35  H   UNL     1      -7.623  -0.932  -0.239  0.00  0.00    +0.144 HD
ENDBRANCH  30  33
ENDBRANCH  27  30
ENDBRANCH  23  24
ENDBRANCH  20  23
ENDBRANCH  19  20
ENDBRANCH   1  19
TORSDOF 10
