REMARK  Name = ZINC39083243
REMARK  4 active torsions:
REMARK  status: ('A' for Active; 'I' for Inactive)
REMARK    1  A    between atoms: C_1  and  C_2
REMARK    2  A    between atoms: C_2  and  C_11
REMARK    3  A    between atoms: C_5  and  C_7
REMARK    4  A    between atoms: C_5  and  N_10
REMARK                            x       y       z     vdW  Elec       q    Type
REMARK                         _______ _______ _______ _____ _____    ______ ____
ROOT
ATOM      1  C   UNL     1      -0.019   1.526   0.010  0.00  0.00    +0.023 C 
ATOM      2  C   UNL     1       0.002  -0.004   0.002  0.00  0.00    +0.068 C 
ATOM      3  C   UNL     1      -1.434  -0.567   0.145  0.00  0.00    +0.017 C 
ATOM      4  C   UNL     1      -1.689  -0.470   1.670  0.00  0.00    -0.001 C 
ATOM      5  C   UNL     1      -0.331  -0.837   2.304  0.00  0.00    +0.034 C 
ATOM      6  C   UNL     1       0.744  -0.541   1.244  0.00  0.00    +0.016 C 
ENDROOT
BRANCH   5   7
ATOM      7  N   UNL     1      -0.310  -2.263   2.657  0.00  0.00    +0.389 N 
ATOM      8  H   UNL     1      -0.472  -2.817   1.830  0.00  0.00    -0.088 HD
ATOM      9  H   UNL     1       0.589  -2.499   3.049  0.00  0.00    -0.088 HD
ATOM     10  H   UNL     1      -1.032  -2.452   3.336  0.00  0.00    -0.088 HD
ENDBRANCH   5   7
BRANCH   5  11
ATOM     11  C   UNL     1      -0.091   0.003   3.531  0.00  0.00    +0.345 C 
ATOM     12  O   UNL     1       0.085  -0.533   4.612  0.00  0.00    -0.248 OA
ATOM     13  O   UNL     1      -0.072   1.219   3.444  0.00  0.00    -0.248 OA
ENDBRANCH   5  11
BRANCH   2  14
ATOM     14  C   UNL     1       0.648  -0.515  -1.260  0.00  0.00    +0.362 C 
ATOM     15  O   UNL     1       1.075   0.272  -2.088  0.00  0.00    -0.246 OA
ATOM     16  O   UNL     1       0.745  -1.714  -1.453  0.00  0.00    -0.246 OA
ENDBRANCH   2  14
TORSDOF 3
