REMARK  Name = ZINC36490996
REMARK  13 active torsions:
REMARK  status: ('A' for Active; 'I' for Inactive)
REMARK    1  A    between atoms: C_1  and  C_2
REMARK    2  A    between atoms: C_2  and  C_3
REMARK    3  A    between atoms: C_2  and  C_4
REMARK    4  A    between atoms: C_2  and  N_5
REMARK    5  A    between atoms: C_6  and  C_8
REMARK    6  A    between atoms: C_8  and  C_10
REMARK    7  A    between atoms: C_8  and  N_19
REMARK    8  A    between atoms: C_11  and  O_18
REMARK    9  A    between atoms: C_13  and  O_17
REMARK   10  A    between atoms: C_15  and  O_16
REMARK   11  A    between atoms: N_19  and  C_20
REMARK   12  A    between atoms: C_26  and  C_28
REMARK   13  A    between atoms: C_32  and  N_34
REMARK                            x       y       z     vdW  Elec       q    Type
REMARK                         _______ _______ _______ _____ _____    ______ ____
ROOT
ATOM      1  C   UNL     1       2.665  -0.778  -2.092  0.00  0.00    +0.200 C 
ENDROOT
BRANCH   1   2
ATOM      2  C   UNL     1       1.244  -0.297  -2.236  0.00  0.00    +0.065 A 
ATOM      3  C   UNL     1       0.494  -0.669  -3.341  0.00  0.00    +0.129 A 
ATOM      4  C   UNL     1      -0.814  -0.227  -3.473  0.00  0.00    +0.091 A 
ATOM      5  C   UNL     1      -1.371   0.588  -2.499  0.00  0.00    +0.124 A 
ATOM      6  C   UNL     1      -0.622   0.959  -1.393  0.00  0.00    +0.091 A 
ATOM      7  C   UNL     1       0.684   0.513  -1.259  0.00  0.00    +0.129 A 
BRANCH   7   8
ATOM      8  O   UNL     1       1.417   0.873  -0.173  0.00  0.00    -0.506 OA
ATOM      9  H   UNL     1       1.823   1.748  -0.244  0.00  0.00    +0.292 HD
ENDBRANCH   7   8
BRANCH   5  10
ATOM     10  O   UNL     1      -2.652   1.022  -2.629  0.00  0.00    -0.507 OA
ATOM     11  H   UNL     1      -3.309   0.434  -2.233  0.00  0.00    +0.292 HD
ENDBRANCH   5  10
BRANCH   3  12
ATOM     12  O   UNL     1       1.041  -1.467  -4.296  0.00  0.00    -0.506 OA
ATOM     13  H   UNL     1       0.980  -2.412  -4.100  0.00  0.00    +0.292 HD
ENDBRANCH   3  12
ENDBRANCH   1   2
BRANCH   1  15
ATOM     14  N   UNL     1       2.938  -0.236   0.306  0.00  0.00    -0.309 N 
ATOM     15  C   UNL     1       3.336  -0.035  -0.966  0.00  0.00    +0.239 C 
ATOM     16  O   UNL     1       4.234   0.745  -1.204  0.00  0.00    -0.273 OA
ATOM     17  H   UNL     1       2.219  -0.859   0.496  0.00  0.00    +0.149 HD
BRANCH  14  19
ATOM     18  C   UNL     1       3.416   1.993   1.192  0.00  0.00    +0.031 C 
ATOM     19  C   UNL     1       3.590   0.487   1.400  0.00  0.00    +0.026 C 
ATOM     20  C   UNL     1       5.081   0.144   1.421  0.00  0.00    +0.031 C 
ATOM     21  C   UNL     1       2.954   0.079   2.731  0.00  0.00    +0.031 C 
ENDBRANCH  14  19
ENDBRANCH   1  15
BRANCH   1  22
ATOM     22  N   UNL     1       3.392  -0.533  -3.340  0.00  0.00    -0.279 N 
ATOM     23  C   UNL     1       4.183  -1.493  -3.859  0.00  0.00    +0.248 C 
ATOM     24  O   UNL     1       4.204  -2.600  -3.357  0.00  0.00    -0.270 OA
BRANCH  22  25
ATOM     25  C   UNL     1       3.258   0.755  -4.025  0.00  0.00    +0.077 C 
ATOM     26  C   UNL     1       4.079   1.813  -3.284  0.00  0.00    +0.022 C 
ATOM     27  C   UNL     1       3.939   3.159  -3.999  0.00  0.00    +0.002 C 
ATOM     28  C   UNL     1       2.467   3.576  -4.019  0.00  0.00    +0.000 C 
ATOM     29  C   UNL     1       1.647   2.518  -4.760  0.00  0.00    +0.002 C 
ATOM     30  C   UNL     1       1.786   1.172  -4.045  0.00  0.00    +0.022 C 
ENDBRANCH  22  25
BRANCH  23  31
ATOM     31  C   UNL     1       5.024  -1.200  -5.039  0.00  0.00    +0.039 A 
ATOM     32  C   UNL     1       5.555   0.078  -5.221  0.00  0.00    +0.013 A 
ATOM     33  C   UNL     1       6.340   0.344  -6.323  0.00  0.00    +0.003 A 
ATOM     34  C   UNL     1       6.601  -0.652  -7.248  0.00  0.00    +0.033 A 
ATOM     35  C   UNL     1       6.078  -1.920  -7.074  0.00  0.00    +0.127 A 
ATOM     36  C   UNL     1       5.296  -2.202  -5.972  0.00  0.00    +0.045 A 
BRANCH  35  37
ATOM     37  N   UNL     1       6.362  -2.979  -8.068  0.00  0.00    +0.056 N 
ATOM     38  O   UNL     1       7.050  -2.735  -9.031  0.00  0.00    -0.126 OA
ATOM     39  O   UNL     1       5.905  -4.088  -7.917  0.00  0.00    -0.126 OA
ENDBRANCH  35  37
ENDBRANCH  23  31
ENDBRANCH   1  22
TORSDOF 10
