REMARK  Name = ZINC21124198
REMARK  11 active torsions:
REMARK  status: ('A' for Active; 'I' for Inactive)
REMARK    1  A    between atoms: C_1  and  C_2
REMARK    2  A    between atoms: C_4  and  C_26
REMARK    3  A    between atoms: C_6  and  C_8
REMARK    4  A    between atoms: N_10  and  C_11
REMARK    5  A    between atoms: C_11  and  C_12
REMARK    6  A    between atoms: N_14  and  N_15
REMARK    7  A    between atoms: N_15  and  C_16
REMARK    8  A    between atoms: C_16  and  N_18
REMARK    9  A    between atoms: N_18  and  C_19
REMARK   10  A    between atoms: C_19  and  C_20
REMARK   11  A    between atoms: C_20  and  C_21
REMARK                            x       y       z     vdW  Elec       q    Type
REMARK                         _______ _______ _______ _____ _____    ______ ____
ROOT
ATOM      1  C   UNL     1       8.243  -0.758  -1.475  0.00  0.00    +0.246 C 
ATOM      2  O   UNL     1       8.804  -0.957  -2.532  0.00  0.00    -0.273 OA
ATOM      3  N   UNL     1       6.974  -0.304  -1.461  0.00  0.00    -0.234 N 
ATOM      4  H   UNL     1       6.465  -0.124  -0.503  0.00  0.00    +0.173 HD
ENDROOT
BRANCH   3   5
ATOM      5  N   UNL     1       6.303  -0.062  -2.667  0.00  0.00    -0.246 N 
ATOM      6  H   UNL     1       6.812  -0.242  -3.625  0.00  0.00    +0.172 HD
BRANCH   5   7
ATOM      7  C   UNL     1       5.034   0.392  -2.653  0.00  0.00    +0.147 C 
ATOM      8  S   UNL     1       4.214   0.688  -4.126  0.00  0.00    -0.017 S 
BRANCH   7   9
ATOM      9  N   UNL     1       4.410   0.614  -1.478  0.00  0.00    -0.325 N 
ATOM     10  H   UNL     1       4.937   0.423  -0.532  0.00  0.00    +0.148 HD
BRANCH   9  11
ATOM     11  C   UNL     1       3.031   1.107  -1.463  0.00  0.00    +0.108 C 
BRANCH  11  12
ATOM     12  C   UNL     1       2.565   1.272  -0.015  0.00  0.00    +0.061 C 
BRANCH  12  13
ATOM     13  C   UNL     1       1.146   1.780   0.001  0.00  0.00    -0.009 A 
ATOM     14  C   UNL     1      -0.013   1.076   0.008  0.00  0.00    +0.011 A 
ATOM     15  C   UNL     1      -1.213   1.761   0.017  0.00  0.00    +0.008 A 
ATOM     16  C   UNL     1      -1.196   3.116   0.030  0.00  0.00    +0.045 A 
ATOM     17  S   UNL     1       0.555   3.464   0.015  0.00  0.00    -0.102 S 
ENDBRANCH  12  13
ENDBRANCH  11  12
ENDBRANCH   9  11
ENDBRANCH   7   9
ENDBRANCH   5   7
ENDBRANCH   3   5
BRANCH   1  18
ATOM     18  C   UNL     1       8.964  -1.019  -0.178  0.00  0.00    +0.202 C 
BRANCH  18  21
ATOM     19  C   UNL     1      11.152  -1.803   0.554  0.00  0.00    +0.244 C 
ATOM     20  O   UNL     1      10.781  -1.672   1.704  0.00  0.00    -0.270 OA
ATOM     21  N   UNL     1      10.318  -1.503  -0.461  0.00  0.00    -0.303 N 
ATOM     22  H   UNL     1      10.653  -1.621  -1.502  0.00  0.00    +0.150 HD
BRANCH  19  28
ATOM     23  C   UNL     1      14.687  -3.063  -2.735  0.00  0.00    +0.044 C 
ATOM     24  C   UNL     1      14.222  -2.900  -1.311  0.00  0.00    -0.049 A 
ATOM     25  C   UNL     1      15.076  -3.207  -0.266  0.00  0.00    +0.006 A 
ATOM     26  C   UNL     1      14.657  -3.059   1.044  0.00  0.00    -0.049 A 
ATOM     27  C   UNL     1      13.384  -2.603   1.317  0.00  0.00    +0.016 A 
ATOM     28  C   UNL     1      12.518  -2.292   0.269  0.00  0.00    +0.037 A 
ATOM     29  C   UNL     1      12.945  -2.448  -1.051  0.00  0.00    +0.016 A 
ATOM     30  C   UNL     1      15.594  -3.397   2.175  0.00  0.00    +0.044 C 
ENDBRANCH  19  28
ENDBRANCH  18  21
ENDBRANCH   1  18
TORSDOF 9
