REMARK  Name = ZINC44925114
REMARK  5 active torsions:
REMARK  status: ('A' for Active; 'I' for Inactive)
REMARK    1  A    between atoms: C_1  and  C_2
REMARK    2  A    between atoms: C_2  and  C_4
REMARK    3  A    between atoms: C_2  and  N_9
REMARK    4  A    between atoms: N_9  and  C_10
REMARK    5  A    between atoms: C_13  and  N_17
REMARK                            x       y       z     vdW  Elec       q    Type
REMARK                         _______ _______ _______ _____ _____    ______ ____
ROOT
ATOM      1  C   UNL     1       0.024  -0.639   2.404  0.00  0.00    +0.099 A 
ATOM      2  C   UNL     1      -1.224  -0.053   2.574  0.00  0.00    +0.149 A 
ATOM      3  C   UNL     1      -1.900  -0.201   3.771  0.00  0.00    +0.063 A 
ATOM      4  C   UNL     1      -1.332  -0.935   4.803  0.00  0.00    +0.030 A 
ATOM      5  C   UNL     1      -0.085  -1.522   4.634  0.00  0.00    +0.063 A 
ATOM      6  C   UNL     1       0.589  -1.380   3.435  0.00  0.00    +0.149 A 
ATOM      7  F   UNL     1       1.800  -1.955   3.268  0.00  0.00    -0.203 F 
ATOM      8  F   UNL     1      -1.777   0.663   1.570  0.00  0.00    -0.203 F 
ENDROOT
BRANCH   4   9
ATOM      9  N   UNL     1      -2.017  -1.084   6.015  0.00  0.00    -0.358 N 
ATOM     10  H   UNL     1      -2.888  -0.674   6.134  0.00  0.00    +0.142 HD
ATOM     11  H   UNL     1      -1.620  -1.597   6.736  0.00  0.00    +0.142 HD
ENDBRANCH   4   9
BRANCH   1  12
ATOM     12  N   UNL     1       0.711  -0.489   1.189  0.00  0.00    -0.330 N 
ATOM     13  H   UNL     1       1.654  -0.707   1.135  0.00  0.00    +0.147 HD
BRANCH  12  15
ATOM     14  C   UNL     1      -0.019   1.526   0.010  0.00  0.00    +0.036 C 
ATOM     15  C   UNL     1       0.002  -0.004   0.002  0.00  0.00    +0.139 C 
BRANCH  15  16
ATOM     16  C   UNL     1       0.707  -0.490  -1.238  0.00  0.00    +0.196 A 
ATOM     17  N   UNL     1       0.141  -1.015  -2.315  0.00  0.00    -0.109 NA
ATOM     18  N   UNL     1       1.081  -1.301  -3.149  0.00  0.00    -0.021 NA
ATOM     19  N   UNL     1       2.214  -0.974  -2.633  0.00  0.00    -0.021 NA
ATOM     20  N   UNL     1       2.013  -0.470  -1.463  0.00  0.00    -0.109 NA
ENDBRANCH  15  16
ENDBRANCH  12  15
ENDBRANCH   1  12
TORSDOF 4
