REMARK  Name = ZINC12520132
REMARK  8 active torsions:
REMARK  status: ('A' for Active; 'I' for Inactive)
REMARK    1  A    between atoms: C_1  and  N_2
REMARK    2  A    between atoms: C_6  and  C_7
REMARK    3  A    between atoms: C_7  and  C_9
REMARK    4  A    between atoms: C_7  and  N_17
REMARK    5  A    between atoms: C_12  and  O_15
REMARK    6  A    between atoms: O_15  and  C_16
REMARK    7  A    between atoms: N_17  and  S_18
REMARK    8  A    between atoms: S_18  and  C_21
REMARK                            x       y       z     vdW  Elec       q    Type
REMARK                         _______ _______ _______ _____ _____    ______ ____
ROOT
ATOM      1  N   UNL     1       1.026  -1.124   3.272  0.00  0.00    -0.175 NA
ATOM      2  H   UNL     1       0.790  -1.988   3.646  0.00  0.00    +0.149 HD
ENDROOT
BRANCH   1   3
ATOM      3  S   UNL     1       2.553  -0.520   3.485  0.00  0.00    +0.059 S 
ATOM      4  O   UNL     1       3.262  -1.473   4.266  0.00  0.00    -0.153 OA
ATOM      5  O   UNL     1       3.004  -0.097   2.205  0.00  0.00    -0.153 OA
BRANCH   3   6
ATOM      6  C   UNL     1       2.406   0.932   4.473  0.00  0.00    +0.107 A 
ATOM      7  C   UNL     1       2.230   2.163   3.866  0.00  0.00    +0.030 A 
ATOM      8  C   UNL     1       2.109   3.306   4.632  0.00  0.00    +0.030 A 
ATOM      9  C   UNL     1       2.175   3.221   6.014  0.00  0.00    +0.067 A 
ATOM     10  C   UNL     1       2.358   1.979   6.626  0.00  0.00    +0.069 A 
ATOM     11  C   UNL     1       2.473   0.836   5.849  0.00  0.00    +0.056 A 
ATOM     12  N   UNL     1       2.383   2.207   8.000  0.00  0.00    -0.306 N 
ATOM     13  H   UNL     1       2.496   1.530   8.686  0.00  0.00    +0.170 HD
ATOM     14  C   UNL     1       2.223   3.526   8.214  0.00  0.00    +0.325 A 
ATOM     15  O   UNL     1       2.198   4.061   9.307  0.00  0.00    -0.247 OA
ATOM     16  N   UNL     1       2.095   4.165   7.035  0.00  0.00    -0.306 N 
ATOM     17  H   UNL     1       1.968   5.119   6.917  0.00  0.00    +0.170 HD
ENDBRANCH   3   6
ENDBRANCH   1   3
BRANCH   1  18
ATOM     18  C   UNL     1       0.032  -0.354   2.521  0.00  0.00    +0.172 C 
BRANCH  18  24
ATOM     19  C   UNL     1      -0.018   1.461   0.010  0.00  0.00    +0.150 C 
ATOM     20  N   UNL     1       0.002  -0.004   0.002  0.00  0.00    -0.336 N 
ATOM     21  C   UNL     1      -0.003  -0.810  -1.104  0.00  0.00    +0.106 A 
ATOM     22  C   UNL     1       0.024  -2.081  -0.660  0.00  0.00    +0.130 A 
ATOM     23  N   UNL     1       0.036  -2.052   0.681  0.00  0.00    -0.239 NA
ATOM     24  C   UNL     1       0.023  -0.811   1.085  0.00  0.00    +0.133 A 
ENDBRANCH  18  24
BRANCH  18  25
ATOM     25  C   UNL     1      -1.332  -0.571   3.124  0.00  0.00    -0.021 A 
ATOM     26  C   UNL     1      -1.704  -1.830   3.557  0.00  0.00    +0.009 A 
ATOM     27  C   UNL     1      -2.951  -2.030   4.116  0.00  0.00    +0.046 A 
ATOM     28  C   UNL     1      -3.836  -0.967   4.232  0.00  0.00    +0.120 A 
ATOM     29  C   UNL     1      -3.463   0.294   3.792  0.00  0.00    +0.046 A 
ATOM     30  C   UNL     1      -2.212   0.490   3.239  0.00  0.00    +0.009 A 
BRANCH  28  31
ATOM     31  O   UNL     1      -5.066  -1.163   4.775  0.00  0.00    -0.495 OA
ATOM     32  C   UNL     1      -5.382  -2.488   5.207  0.00  0.00    +0.277 C 
ENDBRANCH  28  31
ENDBRANCH  18  25
ENDBRANCH   1  18
TORSDOF 6
