REMARK  Name = ZINC61916759
REMARK  5 active torsions:
REMARK  status: ('A' for Active; 'I' for Inactive)
REMARK    1  A    between atoms: C_1  and  C_2
REMARK    2  A    between atoms: N_5  and  C_10
REMARK    3  A    between atoms: C_13  and  S_17
REMARK    4  A    between atoms: C_15  and  N_16
REMARK    5  A    between atoms: S_17  and  N_20
REMARK                            x       y       z     vdW  Elec       q    Type
REMARK                         _______ _______ _______ _____ _____    ______ ____
ROOT
ATOM      1  C   UNL     1      -0.511  -2.447  -2.087  0.00  0.00    +0.051 A 
ATOM      2  C   UNL     1      -1.667  -2.813  -1.413  0.00  0.00    +0.027 A 
ATOM      3  C   UNL     1      -2.736  -3.343  -2.111  0.00  0.00    +0.030 A 
ATOM      4  C   UNL     1      -2.657  -3.510  -3.482  0.00  0.00    +0.107 A 
ATOM      5  C   UNL     1      -1.509  -3.148  -4.162  0.00  0.00    +0.053 A 
ATOM      6  C   UNL     1      -0.434  -2.611  -3.470  0.00  0.00    +0.048 A 
ENDROOT
BRANCH   1  10
ATOM      7  C   UNL     1      -0.119   1.505   0.097  0.00  0.00    +0.039 C 
ATOM      8  C   UNL     1      -0.052  -0.023   0.052  0.00  0.00    +0.132 C 
ATOM      9  C   UNL     1       0.670  -0.469  -1.243  0.00  0.00    +0.136 C 
ATOM     10  N   UNL     1       0.572  -1.910  -1.382  0.00  0.00    -0.326 N 
ATOM     11  C   UNL     1       1.572  -2.831  -0.807  0.00  0.00    +0.107 C 
ATOM     12  C   UNL     1       1.988  -2.382   0.601  0.00  0.00    +0.047 C 
ATOM     13  C   UNL     1       0.772  -1.886   1.357  0.00  0.00    +0.162 C 
ATOM     14  O   UNL     1       0.645  -0.485   1.149  0.00  0.00    -0.375 OA
ENDBRANCH   1  10
BRANCH   6  15
ATOM     15  N   UNL     1       0.728  -2.238  -4.157  0.00  0.00    -0.356 N 
ATOM     16  H   UNL     1       1.510  -1.946  -3.664  0.00  0.00    +0.142 HD
ATOM     17  H   UNL     1       0.750  -2.272  -5.126  0.00  0.00    +0.142 HD
ENDBRANCH   6  15
BRANCH   4  18
ATOM     18  S   UNL     1      -4.024  -4.186  -4.364  0.00  0.00    +0.056 S 
ATOM     19  O   UNL     1      -3.499  -4.747  -5.559  0.00  0.00    -0.153 OA
ATOM     20  O   UNL     1      -4.773  -4.951  -3.429  0.00  0.00    -0.153 OA
BRANCH  18  21
ATOM     21  N   UNL     1      -4.988  -2.919  -4.820  0.00  0.00    -0.204 NA
ATOM     22  H   UNL     1      -4.740  -2.012  -4.584  0.00  0.00    +0.144 HD
ATOM     23  H   UNL     1      -5.802  -3.085  -5.322  0.00  0.00    +0.144 HD
ENDBRANCH  18  21
ENDBRANCH   4  18
TORSDOF 4
