REMARK  Name = ZINC19875641
REMARK  3 active torsions:
REMARK  status: ('A' for Active; 'I' for Inactive)
REMARK    1  A    between atoms: C_2  and  C_3
REMARK    2  A    between atoms: C_3  and  N_4
REMARK    3  A    between atoms: N_4  and  C_5
REMARK                            x       y       z     vdW  Elec       q    Type
REMARK                         _______ _______ _______ _____ _____    ______ ____
ROOT
ATOM      1  C   UNL     1       1.379   3.445   0.007  0.00  0.00    +0.175 C 
ATOM      2  C   UNL     1       2.694   3.955   0.553  0.00  0.00    +0.014 A 
ATOM      3  C   UNL     1       3.283   4.688  -0.469  0.00  0.00    +0.040 A 
ATOM      4  C   UNL     1       4.522   5.284  -0.244  0.00  0.00    +0.024 A 
ATOM      5  C   UNL     1       5.147   5.142   0.978  0.00  0.00    +0.003 A 
ATOM      6  C   UNL     1       4.551   4.410   1.988  0.00  0.00    +0.016 A 
ATOM      7  C   UNL     1       3.319   3.815   1.772  0.00  0.00    +0.025 A 
ATOM      8 BR   UNL     1       2.498   2.812   3.148  0.00  0.00    -0.050 Br
ATOM      9  N   UNL     1       2.465   4.685  -1.599  0.00  0.00    -0.284 N 
ATOM     10  C   UNL     1       1.331   3.984  -1.407  0.00  0.00    +0.239 C 
ATOM     11  O   UNL     1       0.440   3.814  -2.212  0.00  0.00    -0.273 OA
ATOM     12  H   UNL     1       2.686   5.138  -2.428  0.00  0.00    +0.155 HD
ENDROOT
BRANCH   1  13
ATOM     13  N   UNL     1       1.360   1.976  -0.000  0.00  0.00    -0.291 NA
ATOM     14  H   UNL     1       1.889   1.604   0.774  0.00  0.00    +0.124 HD
BRANCH  13  15
ATOM     15  C   UNL     1      -0.018   1.468   0.010  0.00  0.00    +0.171 C 
BRANCH  15  17
ATOM     16  C   UNL     1       0.018  -1.178  -0.004  0.00  0.00    +0.005 C 
ATOM     17  C   UNL     1       0.002  -0.004   0.002  0.00  0.00    -0.090 C 
ENDBRANCH  15  17
ENDBRANCH  13  15
ENDBRANCH   1  13
TORSDOF 3
