REMARK  Name = ZINC55007453
REMARK  4 active torsions:
REMARK  status: ('A' for Active; 'I' for Inactive)
REMARK    1  A    between atoms: C_6  and  C_11
REMARK    2  A    between atoms: C_11  and  C_12
REMARK    3  A    between atoms: N_14  and  N_15
REMARK    4  A    between atoms: N_15  and  C_16
REMARK                            x       y       z     vdW  Elec       q    Type
REMARK                         _______ _______ _______ _____ _____    ______ ____
ROOT
ATOM      1  N   UNL     1       6.978  -3.965   2.912  0.00  0.00    -0.271 N 
ATOM      2  H   UNL     1       6.458  -3.611   3.650  0.00  0.00    +0.169 HD
ENDROOT
BRANCH   1   3
ATOM      3  C   UNL     1       8.223  -4.462   3.135  0.00  0.00    +0.101 C 
ATOM      4  C   UNL     1       8.690  -4.598   4.424  0.00  0.00    +0.060 C 
ATOM      5  C   UNL     1       7.758  -4.801   5.553  0.00  0.00    +0.000 A 
ATOM      6  C   UNL     1       6.382  -4.862   5.364  0.00  0.00    +0.009 A 
ATOM      7  C   UNL     1       5.553  -5.054   6.450  0.00  0.00    +0.001 A 
ATOM      8  C   UNL     1       6.082  -5.185   7.726  0.00  0.00    +0.001 A 
ATOM      9  C   UNL     1       7.443  -5.127   7.933  0.00  0.00    +0.013 A 
ATOM     10  C   UNL     1       8.299  -4.934   6.848  0.00  0.00    +0.045 A 
ATOM     11  C   UNL     1       9.755  -4.866   7.025  0.00  0.00    +0.251 C 
ATOM     12  O   UNL     1      10.229  -4.981   8.140  0.00  0.00    -0.270 OA
ATOM     13  N   UNL     1      10.574  -4.681   5.976  0.00  0.00    -0.248 N 
ATOM     14  C   UNL     1      10.127  -4.552   4.716  0.00  0.00    +0.252 C 
ATOM     15  O   UNL     1      10.922  -4.391   3.808  0.00  0.00    -0.270 OA
ATOM     16  H   UNL     1      11.530  -4.642   6.135  0.00  0.00    +0.158 HD
ENDBRANCH   1   3
BRANCH   1  19
ATOM     17  C   UNL     1       5.211  -3.473   1.395  0.00  0.00    +0.233 C 
ATOM     18  O   UNL     1       4.561  -3.030   2.317  0.00  0.00    -0.274 OA
ATOM     19  N   UNL     1       6.446  -3.966   1.616  0.00  0.00    -0.237 N 
ATOM     20  H   UNL     1       6.966  -4.320   0.878  0.00  0.00    +0.173 HD
BRANCH  17  21
ATOM     21  C   UNL     1       4.638  -3.474   0.001  0.00  0.00    +0.132 C 
BRANCH  21  27
ATOM     22  C   UNL     1      -0.747   0.089  -0.079  0.00  0.00    +0.001 A 
ATOM     23  C   UNL     1       0.356   0.916  -0.284  0.00  0.00    +0.001 A 
ATOM     24  C   UNL     1       1.618   0.408  -0.312  0.00  0.00    +0.008 A 
ATOM     25  C   UNL     1       1.815  -0.972  -0.132  0.00  0.00    -0.018 A 
ATOM     26  C   UNL     1       3.103  -1.534  -0.153  0.00  0.00    +0.012 A 
ATOM     27  C   UNL     1       3.256  -2.874   0.026  0.00  0.00    -0.038 A 
ATOM     28  C   UNL     1       2.153  -3.701   0.231  0.00  0.00    +0.005 A 
ATOM     29  C   UNL     1       0.891  -3.192   0.259  0.00  0.00    +0.009 A 
ATOM     30  C   UNL     1       0.694  -1.813   0.077  0.00  0.00    -0.018 A 
ATOM     31  C   UNL     1      -0.594  -1.251   0.099  0.00  0.00    +0.008 A 
ENDBRANCH  21  27
ENDBRANCH  17  21
ENDBRANCH   1  19
TORSDOF 4
