REMARK  Name = ZINC61495294
REMARK  7 active torsions:
REMARK  status: ('A' for Active; 'I' for Inactive)
REMARK    1  A    between atoms: C_1  and  C_2
REMARK    2  A    between atoms: C_8  and  C_10
REMARK    3  A    between atoms: N_12  and  N_13
REMARK    4  A    between atoms: C_14  and  C_16
REMARK    5  A    between atoms: C_16  and  N_24
REMARK    6  A    between atoms: C_17  and  C_18
REMARK    7  A    between atoms: C_25  and  C_27
REMARK                            x       y       z     vdW  Elec       q    Type
REMARK                         _______ _______ _______ _____ _____    ______ ____
ROOT
ATOM      1  N   UNL     1       1.371  -7.663   3.696  0.00  0.00    -0.229 N 
ATOM      2  C   UNL     1       1.210  -8.998   3.607  0.00  0.00    +0.274 C 
ATOM      3  O   UNL     1       0.160  -9.458   3.201  0.00  0.00    -0.267 OA
ATOM      4  H   UNL     1       2.209  -7.296   4.020  0.00  0.00    +0.173 HD
ENDROOT
BRANCH   1   7
ATOM      5  C   UNL     1       0.491  -5.470   3.408  0.00  0.00    +0.267 C 
ATOM      6  O   UNL     1       1.542  -5.009   3.815  0.00  0.00    -0.268 OA
ATOM      7  N   UNL     1       0.330  -6.805   3.320  0.00  0.00    -0.230 N 
ATOM      8  H   UNL     1      -0.508  -7.172   2.996  0.00  0.00    +0.173 HD
BRANCH   5  16
ATOM      9  C   UNL     1      -3.482   0.747   1.721  0.00  0.00    +0.008 C 
ATOM     10  C   UNL     1      -3.169  -0.748   1.632  0.00  0.00    -0.009 C 
ATOM     11  C   UNL     1      -4.403  -1.552   2.050  0.00  0.00    +0.009 C 
ATOM     12  C   UNL     1      -4.172  -3.029   1.700  0.00  0.00    +0.043 C 
ATOM     13  C   UNL     1      -2.816  -3.429   2.202  0.00  0.00    -0.006 A 
ATOM     14  C   UNL     1      -1.813  -2.592   2.597  0.00  0.00    -0.036 A 
ATOM     15  C   UNL     1      -0.638  -3.190   3.028  0.00  0.00    +0.024 A 
ATOM     16  C   UNL     1      -0.599  -4.572   3.015  0.00  0.00    +0.076 A 
ATOM     17  S   UNL     1      -2.220  -4.977   2.394  0.00  0.00    -0.088 S 
ATOM     18  C   UNL     1      -1.997  -1.078   2.557  0.00  0.00    +0.039 C 
ENDBRANCH   5  16
ENDBRANCH   1   7
BRANCH   2  19
ATOM     19  C   UNL     1       2.303  -9.898   4.002  0.00  0.00    +0.098 C 
ATOM     20  C   UNL     1       2.198 -11.228   3.778  0.00  0.00    +0.036 C 
BRANCH  20  21
ATOM     21  C   UNL     1       1.153 -11.742   2.879  0.00  0.00    -0.023 A 
ATOM     22  C   UNL     1       0.876 -11.086   1.675  0.00  0.00    +0.008 A 
ATOM     23  C   UNL     1      -0.105 -11.575   0.838  0.00  0.00    +0.001 A 
ATOM     24  C   UNL     1      -0.813 -12.711   1.185  0.00  0.00    +0.000 A 
ATOM     25  C   UNL     1      -0.544 -13.367   2.374  0.00  0.00    +0.001 A 
ATOM     26  C   UNL     1       0.437 -12.894   3.220  0.00  0.00    +0.008 A 
ENDBRANCH  20  21
BRANCH  19  27
ATOM     27  N   UNL     1       3.452  -9.380   4.609  0.00  0.00    -0.282 N 
ATOM     28  C   UNL     1       3.352  -8.696   5.766  0.00  0.00    +0.214 C 
ATOM     29  O   UNL     1       2.280  -8.602   6.324  0.00  0.00    -0.276 OA
ATOM     30  C   UNL     1       4.573  -8.048   6.366  0.00  0.00    +0.109 C 
ATOM     31  H   UNL     1       4.320  -9.512   4.197  0.00  0.00    +0.155 HD
ENDBRANCH  19  27
ENDBRANCH   2  19
TORSDOF 5
