REMARK  Name = ZINC36604952
REMARK  19 active torsions:
REMARK  status: ('A' for Active; 'I' for Inactive)
REMARK    1  A    between atoms: C_1  and  C_2
REMARK    2  A    between atoms: C_2  and  C_3
REMARK    3  A    between atoms: C_2  and  C_4
REMARK    4  A    between atoms: C_4  and  C_5
REMARK    5  A    between atoms: N_7  and  C_8
REMARK    6  A    between atoms: N_7  and  C_14
REMARK    7  A    between atoms: C_14  and  C_16
REMARK    8  A    between atoms: C_14  and  C_25
REMARK    9  A    between atoms: C_17  and  O_24
REMARK   10  A    between atoms: C_19  and  O_23
REMARK   11  A    between atoms: C_21  and  O_22
REMARK   12  A    between atoms: N_27  and  C_28
REMARK   13  A    between atoms: C_28  and  C_29
REMARK   14  A    between atoms: C_28  and  C_30
REMARK   15  A    between atoms: C_28  and  C_31
REMARK   16  A    between atoms: C_31  and  C_32
REMARK   17  A    between atoms: C_32  and  C_33
REMARK   18  A    between atoms: C_32  and  C_34
REMARK   19  A    between atoms: C_32  and  C_35
REMARK                            x       y       z     vdW  Elec       q    Type
REMARK                         _______ _______ _______ _____ _____    ______ ____
ROOT
ATOM      1  C   UNL     1       2.314  -2.952   1.511  0.00  0.00    +0.204 C 
ENDROOT
BRANCH   1   2
ATOM      2  C   UNL     1       2.603  -3.792   0.293  0.00  0.00    +0.065 A 
ATOM      3  C   UNL     1       2.440  -3.253  -0.974  0.00  0.00    +0.129 A 
ATOM      4  C   UNL     1       2.706  -4.026  -2.095  0.00  0.00    +0.091 A 
ATOM      5  C   UNL     1       3.135  -5.336  -1.948  0.00  0.00    +0.124 A 
ATOM      6  C   UNL     1       3.299  -5.874  -0.680  0.00  0.00    +0.091 A 
ATOM      7  C   UNL     1       3.037  -5.101   0.440  0.00  0.00    +0.129 A 
BRANCH   7   8
ATOM      8  O   UNL     1       3.202  -5.626   1.683  0.00  0.00    -0.506 OA
ATOM      9  H   UNL     1       2.411  -6.057   2.035  0.00  0.00    +0.292 HD
ENDBRANCH   7   8
BRANCH   5  10
ATOM     10  O   UNL     1       3.395  -6.093  -3.046  0.00  0.00    -0.507 OA
ATOM     11  H   UNL     1       4.309  -6.037  -3.356  0.00  0.00    +0.292 HD
ENDBRANCH   5  10
BRANCH   3  12
ATOM     12  O   UNL     1       2.020  -1.969  -1.119  0.00  0.00    -0.506 OA
ATOM     13  H   UNL     1       2.738  -1.331  -1.229  0.00  0.00    +0.292 HD
ENDBRANCH   3  12
ENDBRANCH   1   2
BRANCH   1  14
ATOM     14  C   UNL     1       3.177  -1.717   1.486  0.00  0.00    +0.239 C 
ATOM     15  O   UNL     1       2.664  -0.621   1.410  0.00  0.00    -0.273 OA
ATOM     16  N   UNL     1       4.519  -1.831   1.548  0.00  0.00    -0.308 N 
ATOM     17  H   UNL     1       4.929  -2.708   1.609  0.00  0.00    +0.149 HD
BRANCH  16  18
ATOM     18  C   UNL     1       5.357  -0.630   1.524  0.00  0.00    +0.030 C 
ATOM     19  C   UNL     1       5.319  -0.009   0.126  0.00  0.00    +0.031 C 
ATOM     20  C   UNL     1       4.832   0.380   2.546  0.00  0.00    +0.031 C 
BRANCH  18  21
ATOM     21  C   UNL     1       6.798  -1.008   1.875  0.00  0.00    +0.031 C 
BRANCH  21  22
ATOM     22  C   UNL     1       6.908  -1.258   3.380  0.00  0.00    -0.036 C 
ATOM     23  C   UNL     1       5.701  -2.073   3.850  0.00  0.00    +0.010 C 
ATOM     24  C   UNL     1       8.193  -2.034   3.676  0.00  0.00    +0.010 C 
ATOM     25  C   UNL     1       6.939   0.081   4.119  0.00  0.00    +0.010 C 
ENDBRANCH  21  22
ENDBRANCH  18  21
ENDBRANCH  16  18
ENDBRANCH   1  14
BRANCH   1  28
ATOM     26  C   UNL     1       0.088  -2.976   0.520  0.00  0.00    +0.221 C 
ATOM     27  O   UNL     1       0.439  -3.872  -0.218  0.00  0.00    -0.275 OA
ATOM     28  N   UNL     1       0.902  -2.562   1.511  0.00  0.00    -0.255 N 
BRANCH  28  29
ATOM     29  C   UNL     1       0.399  -1.758   2.540  0.00  0.00    +0.037 A 
ATOM     30  C   UNL     1       1.266  -1.024   3.338  0.00  0.00    +0.023 A 
ATOM     31  C   UNL     1       0.766  -0.232   4.353  0.00  0.00    +0.002 A 
ATOM     32  C   UNL     1      -0.597  -0.170   4.575  0.00  0.00    +0.000 A 
ATOM     33  C   UNL     1      -1.464  -0.901   3.783  0.00  0.00    +0.002 A 
ATOM     34  C   UNL     1      -0.971  -1.690   2.763  0.00  0.00    +0.023 A 
ENDBRANCH  28  29
BRANCH  26  35
ATOM     35  C   UNL     1      -1.257  -2.325   0.328  0.00  0.00    +0.099 C 
BRANCH  35  37
ATOM     36  C   UNL     1      -1.679  -3.577  -1.793  0.00  0.00    +0.008 C 
ATOM     37  C   UNL     1      -1.548  -2.186  -1.167  0.00  0.00    -0.008 C 
ATOM     38  C   UNL     1      -2.855  -1.415  -1.363  0.00  0.00    +0.008 C 
ENDBRANCH  35  37
ENDBRANCH  26  35
ENDBRANCH   1  28
TORSDOF 12
