REMARK  Name = ZINC12853037
REMARK  9 active torsions:
REMARK  status: ('A' for Active; 'I' for Inactive)
REMARK    1  A    between atoms: C_1  and  C_2
REMARK    2  A    between atoms: C_5  and  C_8
REMARK    3  A    between atoms: C_8  and  C_29
REMARK    4  A    between atoms: N_11  and  C_15
REMARK    5  A    between atoms: C_15  and  C_16
REMARK    6  A    between atoms: N_18  and  N_19
REMARK    7  A    between atoms: C_20  and  C_22
REMARK    8  A    between atoms: C_24  and  C_28
REMARK    9  A    between atoms: C_26  and  C_27
REMARK                            x       y       z     vdW  Elec       q    Type
REMARK                         _______ _______ _______ _____ _____    ______ ____
ROOT
ATOM      1  C   UNL     1       0.059  -4.275  -0.021  0.00  0.00    +0.135 C 
ATOM      2  C   UNL     1      -0.728  -4.825   1.151  0.00  0.00    +0.251 C 
ATOM      3  O   UNL     1      -0.502  -4.654   2.330  0.00  0.00    -0.272 OA
ATOM      4  N   UNL     1      -1.732  -5.543   0.611  0.00  0.00    -0.215 N 
ATOM      5  C   UNL     1      -1.689  -5.524  -0.726  0.00  0.00    +0.310 C 
ATOM      6  O   UNL     1      -2.490  -6.100  -1.437  0.00  0.00    -0.252 OA
ATOM      7  N   UNL     1      -0.660  -4.796  -1.197  0.00  0.00    -0.281 N 
ATOM      8  C   UNL     1       1.499  -4.794   0.002  0.00  0.00    +0.047 C 
ATOM      9  H   UNL     1      -0.435  -4.644  -2.128  0.00  0.00    +0.152 HD
ENDROOT
BRANCH   1  14
ATOM     10  C   UNL     1      -0.018   1.503   0.010  0.00  0.00    +0.044 C 
ATOM     11  C   UNL     1       0.002  -0.004   0.002  0.00  0.00    -0.050 A 
ATOM     12  C   UNL     1       0.006  -0.689  -1.199  0.00  0.00    +0.004 A 
ATOM     13  C   UNL     1       0.025  -2.071  -1.206  0.00  0.00    +0.006 A 
ATOM     14  C   UNL     1       0.040  -2.768  -0.013  0.00  0.00    -0.015 A 
ATOM     15  C   UNL     1       0.037  -2.084   1.188  0.00  0.00    +0.006 A 
ATOM     16  C   UNL     1       0.023  -0.702   1.195  0.00  0.00    +0.004 A 
ENDBRANCH   1  14
BRANCH   4  17
ATOM     17  C   UNL     1      -2.746  -6.258   1.391  0.00  0.00    +0.215 C 
BRANCH  17  18
ATOM     18  C   UNL     1      -3.917  -5.345   1.650  0.00  0.00    +0.247 C 
ATOM     19  O   UNL     1      -3.906  -4.210   1.224  0.00  0.00    -0.273 OA
ATOM     20  N   UNL     1      -4.976  -5.791   2.354  0.00  0.00    -0.233 N 
ATOM     21  H   UNL     1      -4.984  -6.699   2.694  0.00  0.00    +0.173 HD
BRANCH  20  22
ATOM     22  N   UNL     1      -6.064  -4.942   2.594  0.00  0.00    -0.230 N 
ATOM     23  C   UNL     1      -7.123  -5.388   3.298  0.00  0.00    +0.263 C 
ATOM     24  O   UNL     1      -7.134  -6.527   3.725  0.00  0.00    -0.269 OA
ATOM     25  H   UNL     1      -6.056  -4.034   2.254  0.00  0.00    +0.173 HD
BRANCH  23  26
ATOM     26  C   UNL     1      -8.268  -4.495   3.551  0.00  0.00    +0.079 A 
ATOM     27  C   UNL     1      -8.424  -3.102   3.108  0.00  0.00    +0.057 A 
ATOM     28  C   UNL     1      -9.618  -2.699   3.570  0.00  0.00    +0.103 A 
ATOM     29  O   UNL     1     -10.192  -3.708   4.244  0.00  0.00    -0.464 OA
ATOM     30  C   UNL     1      -9.408  -4.791   4.241  0.00  0.00    +0.114 A 
ATOM     31  C   UNL     1      -9.727  -6.112   4.891  0.00  0.00    +0.087 C 
ATOM     32  C   UNL     1     -10.218  -1.332   3.365  0.00  0.00    +0.086 C 
ENDBRANCH  23  26
ENDBRANCH  20  22
ENDBRANCH  17  18
ENDBRANCH   4  17
TORSDOF 5
