REMARK  Name = ZINC11859239
REMARK  6 active torsions:
REMARK  status: ('A' for Active; 'I' for Inactive)
REMARK    1  A    between atoms: C_4  and  C_7
REMARK    2  A    between atoms: C_7  and  C_9
REMARK    3  A    between atoms: C_11  and  C_23
REMARK    4  A    between atoms: C_17  and  C_18
REMARK    5  A    between atoms: C_17  and  O_22
REMARK    6  A    between atoms: C_28  and  O_29
REMARK                            x       y       z     vdW  Elec       q    Type
REMARK                         _______ _______ _______ _____ _____    ______ ____
ROOT
ATOM      1  C   UNL     1      -1.138   3.037   0.740  0.00  0.00    +0.144 C 
ATOM      2  C   UNL     1      -1.334   1.688   0.033  0.00  0.00    +0.123 C 
ATOM      3  N   UNL     1      -0.061   0.966   0.022  0.00  0.00    -0.292 N 
ATOM      4  C   UNL     1       1.111   1.619   0.006  0.00  0.00    +0.302 C 
ATOM      5  O   UNL     1       2.139   0.970  -0.017  0.00  0.00    -0.253 OA
ATOM      6  N   UNL     1       1.193   2.957   0.017  0.00  0.00    -0.264 N 
ATOM      7  C   UNL     1      -0.008   3.794   0.034  0.00  0.00    +0.243 C 
ATOM      8  H   UNL     1      -0.065  -0.004   0.022  0.00  0.00    +0.151 HD
ATOM      9  H   UNL     1       2.066   3.380   0.013  0.00  0.00    +0.153 HD
ENDROOT
BRANCH   2  10
ATOM     10  C   UNL     1      -2.366   0.878   0.775  0.00  0.00    +0.015 A 
ATOM     11  C   UNL     1      -1.970  -0.041   1.727  0.00  0.00    +0.009 A 
ATOM     12  C   UNL     1      -2.916  -0.784   2.408  0.00  0.00    +0.001 A 
ATOM     13  C   UNL     1      -4.261  -0.610   2.138  0.00  0.00    +0.004 A 
ATOM     14  C   UNL     1      -4.662   0.308   1.187  0.00  0.00    +0.046 A 
ATOM     15  C   UNL     1      -3.715   1.059   0.506  0.00  0.00    +0.122 A 
BRANCH  15  16
ATOM     16  O   UNL     1      -4.107   1.967  -0.426  0.00  0.00    -0.506 OA
ATOM     17  H   UNL     1      -4.180   1.606  -1.321  0.00  0.00    +0.292 HD
ENDBRANCH  15  16
ENDBRANCH   2  10
BRANCH   7  18
ATOM     18  C   UNL     1      -0.426   4.117  -1.402  0.00  0.00    +0.436 C 
ATOM     19  F   UNL     1      -0.562   2.928  -2.127  0.00  0.00    -0.166 F 
ATOM     20  F   UNL     1      -1.648   4.798  -1.390  0.00  0.00    -0.166 F 
ATOM     21  F   UNL     1       0.549   4.920  -2.003  0.00  0.00    -0.166 F 
ENDBRANCH   7  18
BRANCH   1  22
ATOM     22  C   UNL     1      -0.771   2.813   2.184  0.00  0.00    +0.173 C 
ATOM     23  O   UNL     1      -0.172   1.809   2.509  0.00  0.00    -0.292 OA
BRANCH  22  27
ATOM     24  C   UNL     1      -1.832   5.691   5.114  0.00  0.00    +0.000 A 
ATOM     25  C   UNL     1      -1.149   4.547   5.488  0.00  0.00    +0.001 A 
ATOM     26  C   UNL     1      -0.801   3.606   4.542  0.00  0.00    +0.011 A 
ATOM     27  C   UNL     1      -1.140   3.811   3.200  0.00  0.00    +0.018 A 
ATOM     28  C   UNL     1      -1.825   4.972   2.829  0.00  0.00    +0.011 A 
ATOM     29  C   UNL     1      -2.170   5.901   3.788  0.00  0.00    +0.001 A 
ENDBRANCH  22  27
ENDBRANCH   1  22
BRANCH   7  30
ATOM     30  O   UNL     1       0.266   5.008   0.736  0.00  0.00    -0.364 OA
ATOM     31  H   UNL     1       0.975   5.537   0.346  0.00  0.00    +0.212 HD
ENDBRANCH   7  30
TORSDOF 6
