REMARK  Name = ZINC05620849
REMARK  8 active torsions:
REMARK  status: ('A' for Active; 'I' for Inactive)
REMARK    1  A    between atoms: C_1  and  C_2
REMARK    2  A    between atoms: C_2  and  C_16
REMARK    3  A    between atoms: N_3  and  N_4
REMARK    4  A    between atoms: C_5  and  C_7
REMARK    5  A    between atoms: C_7  and  O_8
REMARK    6  A    between atoms: O_8  and  C_9
REMARK    7  A    between atoms: C_19  and  O_23
REMARK    8  A    between atoms: C_21  and  O_22
REMARK                            x       y       z     vdW  Elec       q    Type
REMARK                         _______ _______ _______ _____ _____    ______ ____
ROOT
ATOM      1  C   UNL     1      -0.018   1.503   0.010  0.00  0.00    +0.068 C 
ATOM      2  C   UNL     1       0.002  -0.004   0.002  0.00  0.00    +0.067 C 
ATOM      3  N   UNL     1       0.022  -0.659   1.123  0.00  0.00    -0.184 NA
ENDROOT
BRANCH   2   4
ATOM      4  C   UNL     1      -0.000  -0.734  -1.278  0.00  0.00    +0.039 A 
ATOM      5  C   UNL     1      -0.015  -0.031  -2.486  0.00  0.00    +0.017 A 
ATOM      6  C   UNL     1      -0.017  -0.717  -3.680  0.00  0.00    +0.046 A 
ATOM      7  C   UNL     1      -0.005  -2.107  -3.689  0.00  0.00    +0.120 A 
ATOM      8  C   UNL     1       0.010  -2.814  -2.495  0.00  0.00    +0.091 A 
ATOM      9  C   UNL     1       0.019  -2.136  -1.289  0.00  0.00    +0.129 A 
BRANCH   9  10
ATOM     10  O   UNL     1       0.039  -2.826  -0.119  0.00  0.00    -0.506 OA
ATOM     11  H   UNL     1      -0.838  -3.038   0.228  0.00  0.00    +0.292 HD
ENDBRANCH   9  10
BRANCH   7  12
ATOM     12  O   UNL     1      -0.007  -2.776  -4.871  0.00  0.00    -0.507 OA
ATOM     13  H   UNL     1       0.875  -2.962  -5.220  0.00  0.00    +0.292 HD
ENDBRANCH   7  12
ENDBRANCH   2   4
BRANCH   3  14
ATOM     14  N   UNL     1       0.024   0.035   2.340  0.00  0.00    -0.204 N 
ATOM     15  C   UNL     1       0.044  -0.645   3.503  0.00  0.00    +0.270 C 
ATOM     16  O   UNL     1       0.060  -1.858   3.497  0.00  0.00    -0.270 OA
ATOM     17  H   UNL     1       0.011   1.005   2.345  0.00  0.00    +0.177 HD
BRANCH  15  18
ATOM     18  C   UNL     1       0.046   0.101   4.812  0.00  0.00    +0.326 C 
BRANCH  18  19
ATOM     19  O   UNL     1       0.069  -0.833   5.893  0.00  0.00    -0.483 OA
BRANCH  19  20
ATOM     20  C   UNL     1       0.074  -0.321   7.152  0.00  0.00    +0.121 A 
ATOM     21  C   UNL     1       0.051   1.053   7.343  0.00  0.00    +0.047 A 
ATOM     22  C   UNL     1       0.057   1.572   8.623  0.00  0.00    +0.019 A 
ATOM     23  C   UNL     1       0.084   0.723   9.714  0.00  0.00    +0.018 A 
ATOM     24  C   UNL     1       0.107  -0.647   9.527  0.00  0.00    +0.019 A 
ATOM     25  C   UNL     1       0.096  -1.171   8.248  0.00  0.00    +0.047 A 
ATOM     26 BR   UNL     1       0.091   1.436  11.466  0.00  0.00    -0.050 Br
ENDBRANCH  19  20
ENDBRANCH  18  19
ENDBRANCH  15  18
ENDBRANCH   3  14
TORSDOF 7
