REMARK  Name = ZINC05351826
REMARK  4 active torsions:
REMARK  status: ('A' for Active; 'I' for Inactive)
REMARK    1  A    between atoms: C_9  and  C_12
REMARK    2  A    between atoms: C_12  and  N_13
REMARK    3  A    between atoms: C_14  and  C_16
REMARK    4  A    between atoms: C_21  and  C_24
REMARK                            x       y       z     vdW  Elec       q    Type
REMARK                         _______ _______ _______ _____ _____    ______ ____
ROOT
ATOM      1  N   UNL     1       2.400   1.685   0.099  0.00  0.00    -0.305 N 
ATOM      2  C   UNL     1       1.140   2.158   0.026  0.00  0.00    +0.299 C 
ATOM      3  O   UNL     1       0.944   3.354  -0.025  0.00  0.00    -0.265 OA
ATOM      4  H   UNL     1       2.557   0.728   0.140  0.00  0.00    +0.149 HD
ENDROOT
BRANCH   2   5
ATOM      5  C   UNL     1      -0.014   1.209   0.009  0.00  0.00    +0.301 C 
ATOM      6  O   UNL     1       0.174   0.021   0.166  0.00  0.00    -0.265 OA
ATOM      7  N   UNL     1      -1.264   1.673  -0.188  0.00  0.00    -0.294 N 
ATOM      8  C   UNL     1      -2.424   0.783  -0.045  0.00  0.00    +0.109 C 
ATOM      9  C   UNL     1      -3.412   1.421   0.944  0.00  0.00    +0.032 C 
ATOM     10  C   UNL     1      -3.759   2.834   0.468  0.00  0.00    +0.078 C 
ATOM     11  C   UNL     1      -2.491   3.689   0.434  0.00  0.00    +0.032 C 
ATOM     12  C   UNL     1      -1.493   3.077  -0.554  0.00  0.00    +0.109 C 
BRANCH  10  13
ATOM     13  C   UNL     1      -4.756   3.451   1.414  0.00  0.00    +0.214 C 
ATOM     14  O   UNL     1      -4.480   4.475   2.003  0.00  0.00    -0.276 OA
ATOM     15  N   UNL     1      -5.956   2.867   1.605  0.00  0.00    -0.329 N 
ATOM     16  H   UNL     1      -6.177   2.049   1.133  0.00  0.00    +0.145 HD
ATOM     17  H   UNL     1      -6.598   3.264   2.214  0.00  0.00    +0.145 HD
ENDBRANCH  10  13
ENDBRANCH   2   5
BRANCH   1  18
ATOM     18  C   UNL     1       3.532   2.614   0.116  0.00  0.00    +0.138 C 
BRANCH  18  27
ATOM     19  C   UNL     1       8.918  -0.620  -1.595  0.00  0.00    +0.000 C 
ATOM     20  C   UNL     1       8.518   0.560  -2.483  0.00  0.00    +0.005 C 
ATOM     21  C   UNL     1       6.995   0.711  -2.474  0.00  0.00    +0.065 C 
ATOM     22  C   UNL     1       6.515   0.949  -1.044  0.00  0.00    +0.171 C 
ATOM     23  C   UNL     1       6.923  -0.216  -0.146  0.00  0.00    +0.065 C 
ATOM     24  C   UNL     1       8.446  -0.365  -0.162  0.00  0.00    +0.005 C 
ATOM     25  O   UNL     1       7.063   2.175  -0.539  0.00  0.00    -0.346 OA
ATOM     26  C   UNL     1       6.051   2.780   0.287  0.00  0.00    +0.196 C 
ATOM     27  C   UNL     1       4.840   1.824   0.203  0.00  0.00    +0.164 C 
ATOM     28  O   UNL     1       5.081   1.096  -1.026  0.00  0.00    -0.342 OA
ENDBRANCH  18  27
ENDBRANCH   1  18
TORSDOF 4
