REMARK  Name = ZINC50674627
REMARK  3 active torsions:
REMARK  status: ('A' for Active; 'I' for Inactive)
REMARK    1  A    between atoms: C_6  and  N_7
REMARK    2  A    between atoms: N_7  and  S_8
REMARK    3  A    between atoms: S_8  and  C_11
REMARK                            x       y       z     vdW  Elec       q    Type
REMARK                         _______ _______ _______ _____ _____    ______ ____
ROOT
ATOM      1  S   UNL     1      -1.174  -2.376   0.001  0.00  0.00    +0.092 S 
ATOM      2  O   UNL     1      -0.630  -2.767  -1.252  0.00  0.00    -0.148 OA
ATOM      3  O   UNL     1      -0.605  -2.781   1.239  0.00  0.00    -0.148 OA
ENDROOT
BRANCH   1   4
ATOM      4  C   UNL     1      -2.849  -2.921   0.015  0.00  0.00    +0.115 A 
ATOM      5  C   UNL     1      -3.514  -3.142   1.214  0.00  0.00    +0.046 A 
ATOM      6  C   UNL     1      -4.827  -3.568   1.190  0.00  0.00    +0.086 A 
ATOM      7  N   UNL     1      -5.454  -3.768   0.046  0.00  0.00    -0.350 N 
ATOM      8  C   UNL     1      -4.854  -3.569  -1.117  0.00  0.00    +0.095 A 
ATOM      9  C   UNL     1      -3.534  -3.134  -1.168  0.00  0.00    +0.070 A 
ATOM     10  N   UNL     1      -5.552  -3.792  -2.299  0.00  0.00    -0.345 N 
ATOM     11  H   UNL     1      -6.474  -4.092  -2.268  0.00  0.00    +0.144 HD
ATOM     12  H   UNL     1      -5.117  -3.648  -3.154  0.00  0.00    +0.144 HD
ATOM     13  H   UNL     1      -6.376  -4.068   0.058  0.00  0.00    +0.166 HD
ENDBRANCH   1   4
BRANCH   1  14
ATOM     14  N   UNL     1      -1.198  -0.720   0.010  0.00  0.00    -0.098 NA
BRANCH  14  20
ATOM     15  C   UNL     1      -0.017   1.385   0.010  0.00  0.00    +0.028 A 
ATOM     16  C   UNL     1       1.170   2.091   0.002  0.00  0.00    +0.025 A 
ATOM     17  C   UNL     1       2.378   1.418  -0.013  0.00  0.00    +0.076 A 
ATOM     18  C   UNL     1       2.401   0.032  -0.021  0.00  0.00    +0.143 A 
ATOM     19  C   UNL     1       1.215  -0.680  -0.013  0.00  0.00    +0.066 A 
ATOM     20  C   UNL     1       0.002  -0.004   0.002  0.00  0.00    +0.077 A 
ATOM     21  F   UNL     1       3.582  -0.624  -0.037  0.00  0.00    -0.204 F 
ATOM     22 CL   UNL     1       3.868   2.309  -0.024  0.00  0.00    -0.081 Cl
ENDBRANCH  14  20
ENDBRANCH   1  14
TORSDOF 3
