REMARK  Name = ZINC36491249
REMARK  13 active torsions:
REMARK  status: ('A' for Active; 'I' for Inactive)
REMARK    1  A    between atoms: C_1  and  C_2
REMARK    2  A    between atoms: C_5  and  S_8
REMARK    3  A    between atoms: S_8  and  C_11
REMARK    4  A    between atoms: C_11  and  N_12
REMARK    5  A    between atoms: C_13  and  C_15
REMARK    6  A    between atoms: C_15  and  C_17
REMARK    7  A    between atoms: C_15  and  N_26
REMARK    8  A    between atoms: C_18  and  O_25
REMARK    9  A    between atoms: C_20  and  O_24
REMARK   10  A    between atoms: C_22  and  O_23
REMARK   11  A    between atoms: N_26  and  C_27
REMARK   12  A    between atoms: C_33  and  C_35
REMARK   13  A    between atoms: C_35  and  C_37
REMARK                            x       y       z     vdW  Elec       q    Type
REMARK                         _______ _______ _______ _____ _____    ______ ____
ROOT
ATOM      1  C   UNL     1       4.032  -5.086   4.401  0.00  0.00    +0.200 C 
ENDROOT
BRANCH   1   2
ATOM      2  C   UNL     1       4.962  -4.393   5.364  0.00  0.00    +0.065 A 
ATOM      3  C   UNL     1       6.283  -4.802   5.466  0.00  0.00    +0.129 A 
ATOM      4  C   UNL     1       7.139  -4.165   6.352  0.00  0.00    +0.091 A 
ATOM      5  C   UNL     1       6.674  -3.119   7.135  0.00  0.00    +0.124 A 
ATOM      6  C   UNL     1       5.353  -2.710   7.032  0.00  0.00    +0.091 A 
ATOM      7  C   UNL     1       4.498  -3.344   6.143  0.00  0.00    +0.129 A 
BRANCH   7   8
ATOM      8  O   UNL     1       3.205  -2.940   6.039  0.00  0.00    -0.506 OA
ATOM      9  H   UNL     1       2.601  -3.395   6.641  0.00  0.00    +0.292 HD
ENDBRANCH   7   8
BRANCH   5  10
ATOM     10  O   UNL     1       7.512  -2.496   8.004  0.00  0.00    -0.507 OA
ATOM     11  H   UNL     1       7.982  -1.741   7.624  0.00  0.00    +0.292 HD
ENDBRANCH   5  10
BRANCH   3  12
ATOM     12  O   UNL     1       6.739  -5.827   4.699  0.00  0.00    -0.506 OA
ATOM     13  H   UNL     1       7.172  -5.544   3.882  0.00  0.00    +0.292 HD
ENDBRANCH   3  12
ENDBRANCH   1   2
BRANCH   1  15
ATOM     14  N   UNL     1       5.343  -4.523   2.381  0.00  0.00    -0.294 N 
ATOM     15  C   UNL     1       4.792  -5.475   3.160  0.00  0.00    +0.240 C 
ATOM     16  O   UNL     1       4.909  -6.644   2.861  0.00  0.00    -0.273 OA
ATOM     17  H   UNL     1       5.293  -3.591   2.645  0.00  0.00    +0.150 HD
BRANCH  14  18
ATOM     18  C   UNL     1       6.017  -4.895   1.135  0.00  0.00    +0.278 C 
BRANCH  18  19
ATOM     19  S   UNL     1       4.808  -4.945  -0.216  0.00  0.00    +0.013 S 
ATOM     20  O   UNL     1       3.778  -5.877   0.083  0.00  0.00    -0.168 OA
ATOM     21  O   UNL     1       5.475  -4.980  -1.470  0.00  0.00    -0.168 OA
BRANCH  19  26
ATOM     22  C   UNL     1       2.093   0.442  -0.069  0.00  0.00    +0.044 C 
ATOM     23  C   UNL     1       2.771  -0.903  -0.106  0.00  0.00    -0.050 A 
ATOM     24  C   UNL     1       3.968  -1.056  -0.780  0.00  0.00    +0.005 A 
ATOM     25  C   UNL     1       4.590  -2.290  -0.814  0.00  0.00    +0.027 A 
ATOM     26  C   UNL     1       4.015  -3.371  -0.172  0.00  0.00    +0.090 A 
ATOM     27  C   UNL     1       2.819  -3.219   0.503  0.00  0.00    +0.027 A 
ATOM     28  C   UNL     1       2.199  -1.983   0.540  0.00  0.00    +0.005 A 
ENDBRANCH  19  26
ENDBRANCH  18  19
ENDBRANCH  14  18
ENDBRANCH   1  15
BRANCH   1  29
ATOM     29  N   UNL     1       3.481  -6.287   5.033  0.00  0.00    -0.279 N 
ATOM     30  C   UNL     1       2.146  -6.455   5.112  0.00  0.00    +0.243 C 
ATOM     31  O   UNL     1       1.686  -7.372   5.766  0.00  0.00    -0.270 OA
BRANCH  29  32
ATOM     32  C   UNL     1       4.381  -7.306   5.578  0.00  0.00    +0.077 C 
ATOM     33  C   UNL     1       4.415  -8.513   4.638  0.00  0.00    +0.022 C 
ATOM     34  C   UNL     1       5.355  -9.577   5.207  0.00  0.00    +0.002 C 
ATOM     35  C   UNL     1       4.853 -10.017   6.584  0.00  0.00    +0.000 C 
ATOM     36  C   UNL     1       4.819  -8.811   7.524  0.00  0.00    +0.002 C 
ATOM     37  C   UNL     1       3.879  -7.746   6.955  0.00  0.00    +0.022 C 
ENDBRANCH  29  32
BRANCH  30  38
ATOM     38  C   UNL     1       1.245  -5.529   4.409  0.00  0.00    +0.004 C 
ATOM     39  C   UNL     1       0.476  -4.694   5.103  0.00  0.00    +0.017 C 
ATOM     40  C   UNL     1       1.193  -5.526   2.903  0.00  0.00    +0.048 C 
ENDBRANCH  30  38
ENDBRANCH   1  29
TORSDOF 11
