REMARK  Name = ZINC14031288
REMARK  11 active torsions:
REMARK  status: ('A' for Active; 'I' for Inactive)
REMARK    1  A    between atoms: C_1  and  C_2
REMARK    2  A    between atoms: C_2  and  C_3
REMARK    3  A    between atoms: C_3  and  O_4
REMARK    4  A    between atoms: O_4  and  C_5
REMARK    5  A    between atoms: C_8  and  C_11
REMARK    6  A    between atoms: N_13  and  C_14
REMARK    7  A    between atoms: C_14  and  N_16
REMARK    8  A    between atoms: N_16  and  N_17
REMARK    9  A    between atoms: C_18  and  C_20
REMARK   10  A    between atoms: C_23  and  N_26
REMARK   11  A    between atoms: C_27  and  C_29
REMARK                            x       y       z     vdW  Elec       q    Type
REMARK                         _______ _______ _______ _____ _____    ______ ____
ROOT
ATOM      1  N   UNL     1       1.496  -4.851  -0.040  0.00  0.00    -0.231 N 
ATOM      2  C   UNL     1       0.299  -4.242   0.071  0.00  0.00    +0.260 C 
ATOM      3  O   UNL     1      -0.713  -4.907   0.185  0.00  0.00    -0.269 OA
ATOM      4  H   UNL     1       2.303  -4.321  -0.132  0.00  0.00    +0.173 HD
ENDROOT
BRANCH   2   5
ATOM      5  C   UNL     1       0.216  -2.768   0.055  0.00  0.00    +0.038 A 
ATOM      6  C   UNL     1      -1.024  -2.135   0.170  0.00  0.00    +0.015 A 
ATOM      7  C   UNL     1      -1.098  -0.761   0.155  0.00  0.00    +0.024 A 
ATOM      8  C   UNL     1       0.061  -0.002   0.025  0.00  0.00    +0.033 A 
ATOM      9  C   UNL     1       1.297  -0.629  -0.096  0.00  0.00    +0.024 A 
ATOM     10  C   UNL     1       1.378  -2.003  -0.076  0.00  0.00    +0.015 A 
BRANCH   8  11
ATOM     11  N   UNL     1      -0.017   1.390   0.010  0.00  0.00    -0.285 N 
ATOM     12  C   UNL     1       0.962   2.126   0.573  0.00  0.00    +0.220 C 
ATOM     13  O   UNL     1       1.949   1.582   1.020  0.00  0.00    -0.275 OA
ATOM     14  H   UNL     1      -0.773   1.829  -0.410  0.00  0.00    +0.155 HD
BRANCH  12  15
ATOM     15  C   UNL     1       0.828   3.625   0.649  0.00  0.00    +0.075 C 
ATOM     16  C   UNL     1       0.702   4.198  -0.764  0.00  0.00    +0.013 C 
ATOM     17  C   UNL     1       0.567   5.720  -0.687  0.00  0.00    +0.001 C 
ATOM     18  C   UNL     1       1.804   6.309  -0.006  0.00  0.00    +0.000 C 
ATOM     19  C   UNL     1       1.930   5.736   1.407  0.00  0.00    +0.001 C 
ATOM     20  C   UNL     1       2.066   4.214   1.330  0.00  0.00    +0.013 C 
ENDBRANCH  12  15
ENDBRANCH   8  11
ENDBRANCH   2   5
BRANCH   1  21
ATOM     21  N   UNL     1       1.574  -6.250  -0.025  0.00  0.00    -0.245 N 
ATOM     22  H   UNL     1       0.767  -6.780   0.067  0.00  0.00    +0.172 HD
BRANCH  21  23
ATOM     23  C   UNL     1       2.771  -6.859  -0.136  0.00  0.00    +0.153 C 
ATOM     24  S   UNL     1       2.867  -8.568  -0.117  0.00  0.00    -0.017 S 
BRANCH  23  27
ATOM     25  C   UNL     1       5.090  -6.732  -0.374  0.00  0.00    +0.250 C 
ATOM     26  O   UNL     1       5.158  -7.945  -0.361  0.00  0.00    -0.270 OA
ATOM     27  N   UNL     1       3.893  -6.123  -0.263  0.00  0.00    -0.263 N 
ATOM     28  H   UNL     1       3.839  -5.154  -0.274  0.00  0.00    +0.157 HD
BRANCH  25  32
ATOM     29  C   UNL     1       8.624  -4.412  -0.774  0.00  0.00    +0.121 A 
ATOM     30  C   UNL     1       8.704  -5.799  -0.758  0.00  0.00    +0.046 A 
ATOM     31  C   UNL     1       7.560  -6.555  -0.629  0.00  0.00    +0.016 A 
ATOM     32  C   UNL     1       6.318  -5.926  -0.513  0.00  0.00    +0.037 A 
ATOM     33  C   UNL     1       6.241  -4.530  -0.535  0.00  0.00    +0.016 A 
ATOM     34  C   UNL     1       7.390  -3.781  -0.658  0.00  0.00    +0.046 A 
BRANCH  29  35
ATOM     35  O   UNL     1       9.753  -3.670  -0.901  0.00  0.00    -0.492 OA
BRANCH  35  36
ATOM     36  C   UNL     1       9.599  -2.249  -0.910  0.00  0.00    +0.229 C 
BRANCH  36  38
ATOM     37  C   UNL     1      10.805  -0.068  -1.071  0.00  0.00    +0.007 C 
ATOM     38  C   UNL     1      10.970  -1.589  -1.062  0.00  0.00    +0.038 C 
ENDBRANCH  36  38
ENDBRANCH  35  36
ENDBRANCH  29  35
ENDBRANCH  25  32
ENDBRANCH  23  27
ENDBRANCH  21  23
ENDBRANCH   1  21
TORSDOF 10
