REMARK  Name = ZINC39495702
REMARK  8 active torsions:
REMARK  status: ('A' for Active; 'I' for Inactive)
REMARK    1  A    between atoms: C_4  and  O_29
REMARK    2  A    between atoms: C_5  and  C_7
REMARK    3  A    between atoms: C_10  and  C_21
REMARK    4  A    between atoms: C_11  and  C_14
REMARK    5  A    between atoms: C_19  and  O_20
REMARK    6  A    between atoms: C_21  and  C_23
REMARK    7  A    between atoms: C_21  and  N_26
REMARK    8  A    between atoms: C_23  and  C_24
REMARK                            x       y       z     vdW  Elec       q    Type
REMARK                         _______ _______ _______ _____ _____    ______ ____
ROOT
ATOM      1  C   UNL     1       1.037  -2.236   0.483  0.00  0.00    -0.001 A 
ATOM      2  C   UNL     1       0.345  -2.963  -0.486  0.00  0.00    +0.010 A 
ATOM      3  C   UNL     1       0.556  -4.321  -0.615  0.00  0.00    +0.007 A 
ATOM      4  C   UNL     1       1.452  -4.969   0.213  0.00  0.00    -0.018 A 
ATOM      5  C   UNL     1       2.149  -4.253   1.185  0.00  0.00    +0.004 A 
ATOM      6  C   UNL     1       1.945  -2.882   1.316  0.00  0.00    +0.029 A 
ATOM      7  I   UNL     1       2.996  -1.797   2.768  0.00  0.00    -0.043 I 
ENDROOT
BRANCH   1  12
ATOM      8  C   UNL     1      -0.642   1.060   1.152  0.00  0.00    +0.001 A 
ATOM      9  C   UNL     1       0.382   1.950   0.878  0.00  0.00    +0.004 A 
ATOM     10  C   UNL     1       1.620   1.486   0.476  0.00  0.00    +0.046 A 
ATOM     11  C   UNL     1       1.841   0.124   0.344  0.00  0.00    +0.125 A 
ATOM     12  C   UNL     1       0.809  -0.777   0.621  0.00  0.00    +0.025 A 
ATOM     13  C   UNL     1      -0.435  -0.298   1.026  0.00  0.00    +0.012 A 
BRANCH  11  14
ATOM     14  O   UNL     1       3.058  -0.334  -0.052  0.00  0.00    -0.506 OA
ATOM     15  H   UNL     1       3.670  -0.505   0.676  0.00  0.00    +0.292 HD
ENDBRANCH  11  14
ENDBRANCH   1  12
BRANCH   5  16
ATOM     16  C   UNL     1       3.111  -4.950   2.074  0.00  0.00    +0.025 A 
ATOM     17  C   UNL     1       2.676  -5.505   3.276  0.00  0.00    +0.012 A 
ATOM     18  C   UNL     1       3.574  -6.153   4.100  0.00  0.00    +0.001 A 
ATOM     19  C   UNL     1       4.906  -6.253   3.737  0.00  0.00    +0.004 A 
ATOM     20  C   UNL     1       5.348  -5.706   2.547  0.00  0.00    +0.046 A 
ATOM     21  C   UNL     1       4.455  -5.058   1.708  0.00  0.00    +0.125 A 
BRANCH  21  22
ATOM     22  O   UNL     1       4.887  -4.525   0.535  0.00  0.00    -0.506 OA
ATOM     23  H   UNL     1       5.256  -3.635   0.620  0.00  0.00    +0.292 HD
ENDBRANCH  21  22
ENDBRANCH   5  16
BRANCH   4  24
ATOM     24  C   UNL     1       1.675  -6.452   0.066  0.00  0.00    +0.110 C 
BRANCH  24  25
ATOM     25  N   UNL     1       1.410  -6.851  -1.318  0.00  0.00    -0.311 N 
ATOM     26  C   UNL     1       1.995  -7.954  -1.825  0.00  0.00    +0.326 C 
ATOM     27  O   UNL     1       2.740  -8.617  -1.135  0.00  0.00    -0.280 OA
ATOM     28  H   UNL     1       0.814  -6.321  -1.870  0.00  0.00    +0.149 HD
ENDBRANCH  24  25
BRANCH  24  29
ATOM     29  C   UNL     1       0.730  -7.205   1.004  0.00  0.00    +0.097 C 
BRANCH  29  30
ATOM     30  C   UNL     1       1.049  -8.678   0.963  0.00  0.00    +0.225 C 
ATOM     31  O   UNL     1       1.296  -9.271   1.986  0.00  0.00    -0.301 OA
ENDBRANCH  29  30
ENDBRANCH  24  29
ENDBRANCH   4  24
TORSDOF 8
