REMARK  Name = ZINC02502649
REMARK  7 active torsions:
REMARK  status: ('A' for Active; 'I' for Inactive)
REMARK    1  A    between atoms: C_4  and  O_22
REMARK    2  A    between atoms: C_5  and  C_7
REMARK    3  A    between atoms: C_12  and  O_21
REMARK    4  A    between atoms: C_16  and  N_20
REMARK    5  A    between atoms: C_17  and  C_18
REMARK    6  A    between atoms: O_22  and  C_23
REMARK    7  A    between atoms: C_23  and  C_24
REMARK                            x       y       z     vdW  Elec       q    Type
REMARK                         _______ _______ _______ _____ _____    ______ ____
ROOT
ATOM      1  C   UNL     1       2.449   3.948  -0.001  0.00  0.00    +0.101 C 
ATOM      2  C   UNL     1       2.524   4.808   1.233  0.00  0.00    +0.008 A 
ATOM      3  C   UNL     1       2.834   4.226   2.450  0.00  0.00    +0.012 A 
ATOM      4  C   UNL     1       2.908   4.999   3.592  0.00  0.00    +0.046 A 
ATOM      5  C   UNL     1       2.669   6.365   3.522  0.00  0.00    +0.120 A 
ATOM      6  C   UNL     1       2.357   6.950   2.305  0.00  0.00    +0.092 A 
ATOM      7  C   UNL     1       2.284   6.171   1.157  0.00  0.00    +0.138 A 
ATOM      8  O   UNL     1       1.978   6.759  -0.025  0.00  0.00    -0.441 OA
ATOM      9  C   UNL     1       2.274   6.137  -1.179  0.00  0.00    +0.199 C 
ATOM     10  C   UNL     1       2.508   4.804  -1.235  0.00  0.00    +0.098 C 
ENDROOT
BRANCH   1  15
ATOM     11  C   UNL     1      -1.237   3.133   0.030  0.00  0.00    +0.001 A 
ATOM     12  C   UNL     1      -1.218   1.751   0.017  0.00  0.00    +0.004 A 
ATOM     13  C   UNL     1      -0.013   1.076   0.008  0.00  0.00    +0.046 A 
ATOM     14  C   UNL     1       1.179   1.786   0.000  0.00  0.00    +0.125 A 
ATOM     15  C   UNL     1       1.157   3.173   0.008  0.00  0.00    +0.007 A 
ATOM     16  C   UNL     1      -0.051   3.844   0.022  0.00  0.00    +0.008 A 
BRANCH  14  17
ATOM     17  O   UNL     1       2.366   1.125  -0.015  0.00  0.00    -0.487 OA
BRANCH  17  18
ATOM     18  C   UNL     1       2.313  -0.303  -0.022  0.00  0.00    +0.264 C 
BRANCH  18  19
ATOM     19  C   UNL     1       3.714  -0.858  -0.038  0.00  0.00    -0.010 A 
ATOM     20  C   UNL     1       4.342  -1.111  -1.243  0.00  0.00    +0.010 A 
ATOM     21  C   UNL     1       5.629  -1.616  -1.259  0.00  0.00    +0.039 A 
ATOM     22  C   UNL     1       6.284  -1.877  -0.068  0.00  0.00    +0.123 A 
ATOM     23  C   UNL     1       5.652  -1.628   1.138  0.00  0.00    +0.039 A 
ATOM     24  C   UNL     1       4.367  -1.119   1.152  0.00  0.00    +0.010 A 
ATOM     25  F   UNL     1       7.540  -2.375  -0.083  0.00  0.00    -0.205 F 
ENDBRANCH  18  19
ENDBRANCH  17  18
ENDBRANCH  14  17
ENDBRANCH   1  15
BRANCH   9  26
ATOM     26  N   UNL     1       2.339   6.874  -2.335  0.00  0.00    -0.328 N 
ATOM     27  H   UNL     1       2.173   7.829  -2.312  0.00  0.00    +0.145 HD
ATOM     28  H   UNL     1       2.551   6.439  -3.176  0.00  0.00    +0.145 HD
ENDBRANCH   9  26
BRANCH  10  29
ATOM     29  C   UNL     1       2.819   4.199  -2.495  0.00  0.00    +0.101 C 
ATOM     30  N   UNL     1       3.065   3.719  -3.494  0.00  0.00    -0.191 NA
ENDBRANCH  10  29
BRANCH   5  31
ATOM     31  O   UNL     1       2.742   7.127   4.645  0.00  0.00    -0.507 OA
ATOM     32  H   UNL     1       3.621   7.489   4.818  0.00  0.00    +0.292 HD
ENDBRANCH   5  31
TORSDOF 7
