REMARK  Name = ZINC36372055
REMARK  8 active torsions:
REMARK  status: ('A' for Active; 'I' for Inactive)
REMARK    1  A    between atoms: C_1  and  C_2
REMARK    2  A    between atoms: C_2  and  C_4
REMARK    3  A    between atoms: C_4  and  O_31
REMARK    4  A    between atoms: C_9  and  C_30
REMARK    5  A    between atoms: C_17  and  O_29
REMARK    6  A    between atoms: C_19  and  O_28
REMARK    7  A    between atoms: C_20  and  C_27
REMARK    8  A    between atoms: C_23  and  O_26
REMARK                            x       y       z     vdW  Elec       q    Type
REMARK                         _______ _______ _______ _____ _____    ______ ____
ROOT
ATOM      1  C   UNL     1      -0.000  -0.750  -1.307  0.00  0.00    +0.129 C 
ATOM      2  C   UNL     1       1.444  -0.951  -1.804  0.00  0.00    +0.043 C 
ATOM      3  C   UNL     1       1.658  -2.477  -1.931  0.00  0.00    +0.008 C 
ATOM      4  C   UNL     1       0.229  -3.029  -2.085  0.00  0.00    +0.002 C 
ATOM      5  C   UNL     1      -0.595  -2.170  -1.110  0.00  0.00    +0.007 C 
ATOM      6  C   UNL     1      -0.307  -2.570   0.339  0.00  0.00    +0.010 C 
ATOM      7  C   UNL     1      -0.526  -4.067   0.541  0.00  0.00    +0.005 C 
ATOM      8  C   UNL     1       0.461  -4.830  -0.347  0.00  0.00    +0.001 C 
ATOM      9  C   UNL     1       0.143  -4.507  -1.790  0.00  0.00    -0.001 C 
ATOM     10  C   UNL     1       1.104  -5.289  -2.689  0.00  0.00    +0.038 C 
ATOM     11  C   UNL     1       0.942  -6.787  -2.430  0.00  0.00    +0.147 C 
ATOM     12  C   UNL     1      -0.129  -7.009  -1.361  0.00  0.00    +0.100 C 
ATOM     13  C   UNL     1       0.314  -6.332  -0.093  0.00  0.00    +0.002 C 
ATOM     14  C   UNL     1      -0.746  -6.565   0.985  0.00  0.00    +0.012 C 
ATOM     15  C   UNL     1      -0.893  -8.066   1.239  0.00  0.00    +0.032 C 
ATOM     16  C   UNL     1      -1.319  -8.764  -0.055  0.00  0.00    +0.117 C 
ATOM     17  C   UNL     1      -0.287  -8.508  -1.101  0.00  0.00    +0.069 C 
ATOM     18  C   UNL     1       1.654  -6.904   0.375  0.00  0.00    +0.014 C 
ATOM     19  C   UNL     1      -2.088  -2.212  -1.442  0.00  0.00    +0.015 C 
ENDROOT
BRANCH   1  21
ATOM     20  C   UNL     1      -1.224   0.756   0.438  0.00  0.00    +0.089 C 
ATOM     21  C   UNL     1       0.002  -0.004   0.002  0.00  0.00    +0.162 C 
ATOM     22  O   UNL     1       0.986  -0.015   0.702  0.00  0.00    -0.295 OA
ENDBRANCH   1  21
BRANCH  16  23
ATOM     23  O   UNL     1      -1.456 -10.166   0.182  0.00  0.00    -0.392 OA
ATOM     24  H   UNL     1      -2.113 -10.389   0.856  0.00  0.00    +0.210 HD
ENDBRANCH  16  23
BRANCH  12  25
ATOM     25  O   UNL     1      -1.373  -6.470  -1.813  0.00  0.00    -0.385 OA
ATOM     26  H   UNL     1      -1.700  -6.868  -2.631  0.00  0.00    +0.210 HD
ENDBRANCH  12  25
BRANCH  11  27
ATOM     27  O   UNL     1       0.550  -7.440  -3.639  0.00  0.00    -0.389 OA
ATOM     28  H   UNL     1       1.184  -7.342  -4.363  0.00  0.00    +0.210 HD
ENDBRANCH  11  27
BRANCH   1  29
ATOM     29  O   UNL     1      -0.760  -0.031  -2.280  0.00  0.00    -0.381 OA
ATOM     30  H   UNL     1      -0.429   0.861  -2.457  0.00  0.00    +0.211 HD
ENDBRANCH   1  29
TORSDOF 5
