REMARK  Name = ZINC00131314
REMARK  7 active torsions:
REMARK  status: ('A' for Active; 'I' for Inactive)
REMARK    1  A    between atoms: C_6  and  C_7
REMARK    2  A    between atoms: C_10  and  C_13
REMARK    3  A    between atoms: C_13  and  C_15
REMARK    4  A    between atoms: C_13  and  O_30
REMARK    5  A    between atoms: C_15  and  C_17
REMARK    6  A    between atoms: C_15  and  O_29
REMARK    7  A    between atoms: C_23  and  C_27
REMARK                            x       y       z     vdW  Elec       q    Type
REMARK                         _______ _______ _______ _____ _____    ______ ____
ROOT
ATOM      1  C   UNL     1       5.971   0.737  -0.051  0.00  0.00    +0.216 C 
ENDROOT
BRANCH   1   9
ATOM      2  C   UNL     1      -0.017   1.397   0.010  0.00  0.00    +0.021 A 
ATOM      3  C   UNL     1       1.150   2.105   0.002  0.00  0.00    +0.029 A 
ATOM      4  C   UNL     1       2.370   1.439  -0.013  0.00  0.00    +0.066 A 
ATOM      5  C   UNL     1       2.408   0.033  -0.021  0.00  0.00    +0.090 A 
ATOM      6  C   UNL     1       1.214  -0.687  -0.014  0.00  0.00    +0.048 A 
ATOM      7  C   UNL     1       0.002  -0.004   0.002  0.00  0.00    +0.054 A 
ATOM      8  N   UNL     1       3.718  -0.328  -0.035  0.00  0.00    -0.230 NA
ATOM      9  C   UNL     1       4.464   0.738  -0.037  0.00  0.00    +0.140 A 
ATOM     10  N   UNL     1       3.685   1.854  -0.023  0.00  0.00    -0.340 N 
ATOM     11  H   UNL     1       3.998   2.772  -0.021  0.00  0.00    +0.167 HD
BRANCH   7  12
ATOM     12  C   UNL     1      -1.229  -0.735   0.010  0.00  0.00    +0.099 C 
ATOM     13  N   UNL     1      -2.206  -1.315   0.016  0.00  0.00    -0.191 NA
ENDBRANCH   7  12
ENDBRANCH   1   9
BRANCH   1  14
ATOM     14  O   UNL     1       6.435   0.174  -1.279  0.00  0.00    -0.381 OA
ATOM     15  H   UNL     1       6.148  -0.737  -1.428  0.00  0.00    +0.210 HD
ENDBRANCH   1  14
BRANCH   1  16
ATOM     16  C   UNL     1       6.491  -0.097   1.122  0.00  0.00    +0.216 C 
BRANCH  16  17
ATOM     17  C   UNL     1       7.992  -0.200   1.038  0.00  0.00    +0.140 A 
ATOM     18  N   UNL     1       8.854   0.145   2.033  0.00  0.00    -0.340 N 
ATOM     19  H   UNL     1       8.613   0.494   2.905  0.00  0.00    +0.167 HD
ATOM     20  C   UNL     1      10.131  -0.094   1.573  0.00  0.00    +0.066 A 
ATOM     21  C   UNL     1      11.398   0.059   2.124  0.00  0.00    +0.029 A 
ATOM     22  C   UNL     1      12.506  -0.274   1.399  0.00  0.00    +0.021 A 
ATOM     23  C   UNL     1      12.379  -0.773   0.096  0.00  0.00    +0.054 A 
ATOM     24  C   UNL     1      11.118  -0.934  -0.472  0.00  0.00    +0.048 A 
ATOM     25  C   UNL     1       9.985  -0.594   0.266  0.00  0.00    +0.090 A 
ATOM     26  N   UNL     1       8.652  -0.637   0.005  0.00  0.00    -0.230 NA
BRANCH  23  27
ATOM     27  C   UNL     1      13.549  -1.118  -0.654  0.00  0.00    +0.099 C 
ATOM     28  N   UNL     1      14.477  -1.391  -1.249  0.00  0.00    -0.191 NA
ENDBRANCH  23  27
ENDBRANCH  16  17
BRANCH  16  29
ATOM     29  O   UNL     1       5.920  -1.406   1.065  0.00  0.00    -0.381 OA
ATOM     30  H   UNL     1       6.128  -1.891   0.255  0.00  0.00    +0.210 HD
ENDBRANCH  16  29
ENDBRANCH   1  16
TORSDOF 7
