REMARK  Name = ZINC12931181
REMARK  5 active torsions:
REMARK  status: ('A' for Active; 'I' for Inactive)
REMARK    1  A    between atoms: C_4  and  S_23
REMARK    2  A    between atoms: C_6  and  N_7
REMARK    3  A    between atoms: N_7  and  S_8
REMARK    4  A    between atoms: S_8  and  C_11
REMARK    5  A    between atoms: S_23  and  N_26
REMARK                            x       y       z     vdW  Elec       q    Type
REMARK                         _______ _______ _______ _____ _____    ______ ____
ROOT
ATOM      1  N   UNL     1       1.095  -2.875  -1.546  0.00  0.00    -0.216 N 
ATOM      2  H   UNL     1       0.225  -2.453  -1.622  0.00  0.00    +0.174 HD
ENDROOT
BRANCH   1   8
ATOM      3  C   UNL     1       2.758  -1.344  -2.391  0.00  0.00    +0.027 A 
ATOM      4  C   UNL     1       3.759  -1.043  -3.295  0.00  0.00    +0.042 A 
ATOM      5  C   UNL     1       4.103  -1.955  -4.277  0.00  0.00    +0.150 A 
ATOM      6  C   UNL     1       3.449  -3.174  -4.353  0.00  0.00    +0.142 A 
ATOM      7  C   UNL     1       2.451  -3.481  -3.449  0.00  0.00    +0.056 A 
ATOM      8  C   UNL     1       2.104  -2.567  -2.462  0.00  0.00    +0.050 A 
ATOM      9  F   UNL     1       5.078  -1.657  -5.163  0.00  0.00    -0.203 F 
BRANCH   6  10
ATOM     10  S   UNL     1       3.890  -4.333  -5.605  0.00  0.00    +0.064 S 
ATOM     11  O   UNL     1       5.306  -4.443  -5.575  0.00  0.00    -0.153 OA
ATOM     12  O   UNL     1       3.034  -5.456  -5.438  0.00  0.00    -0.153 OA
BRANCH  10  13
ATOM     13  N   UNL     1       3.498  -3.652  -7.063  0.00  0.00    -0.172 NA
ATOM     14  C   UNL     1       2.171  -3.859  -7.663  0.00  0.00    +0.137 C 
ATOM     15  C   UNL     1       1.602  -2.485  -8.053  0.00  0.00    +0.177 C 
ATOM     16  O   UNL     1       2.561  -1.791  -8.855  0.00  0.00    -0.377 OA
ATOM     17  C   UNL     1       3.791  -1.509  -8.184  0.00  0.00    +0.177 C 
ATOM     18  C   UNL     1       4.470  -2.828  -7.799  0.00  0.00    +0.137 C 
ENDBRANCH  10  13
ENDBRANCH   6  10
ENDBRANCH   1   8
BRANCH   1  19
ATOM     19  S   UNL     1       1.384  -3.962  -0.330  0.00  0.00    +0.072 S 
ATOM     20  O   UNL     1       1.940  -5.118  -0.943  0.00  0.00    -0.150 OA
ATOM     21  O   UNL     1       0.203  -4.012   0.459  0.00  0.00    -0.150 OA
BRANCH  19  22
ATOM     22  C   UNL     1       2.645  -3.278   0.692  0.00  0.00    +0.111 A 
ATOM     23  C   UNL     1       2.309  -2.389   1.699  0.00  0.00    +0.031 A 
ATOM     24  C   UNL     1       3.291  -1.847   2.506  0.00  0.00    +0.030 A 
ATOM     25  C   UNL     1       4.618  -2.195   2.305  0.00  0.00    +0.067 A 
ATOM     26  C   UNL     1       4.957  -3.090   1.289  0.00  0.00    +0.069 A 
ATOM     27  C   UNL     1       3.964  -3.630   0.485  0.00  0.00    +0.056 A 
ATOM     28  N   UNL     1       6.341  -3.243   1.331  0.00  0.00    -0.306 N 
ATOM     29  H   UNL     1       6.868  -3.806   0.744  0.00  0.00    +0.170 HD
ATOM     30  C   UNL     1       6.822  -2.475   2.327  0.00  0.00    +0.325 A 
ATOM     31  O   UNL     1       7.995  -2.378   2.633  0.00  0.00    -0.247 OA
ATOM     32  N   UNL     1       5.807  -1.830   2.933  0.00  0.00    -0.306 N 
ATOM     33  H   UNL     1       5.889  -1.216   3.680  0.00  0.00    +0.170 HD
ENDBRANCH  19  22
ENDBRANCH   1  19
TORSDOF 5
