REMARK  Name = ZINC36647997
REMARK  11 active torsions:
REMARK  status: ('A' for Active; 'I' for Inactive)
REMARK    1  A    between atoms: C_1  and  C_2
REMARK    2  A    between atoms: C_7  and  C_8
REMARK    3  A    between atoms: N_12  and  C_13
REMARK    4  A    between atoms: C_13  and  C_14
REMARK    5  A    between atoms: C_14  and  C_15
REMARK    6  A    between atoms: C_15  and  N_16
REMARK    7  A    between atoms: N_16  and  C_17
REMARK    8  A    between atoms: N_16  and  C_18
REMARK    9  A    between atoms: C_19  and  C_21
REMARK   10  A    between atoms: N_26  and  S_28
REMARK   11  A    between atoms: S_28  and  C_31
REMARK                            x       y       z     vdW  Elec       q    Type
REMARK                         _______ _______ _______ _____ _____    ______ ____
ROOT
ATOM      1  C   UNL     1      -0.498   1.550   0.108  0.00  0.00    +0.044 C 
ATOM      2  C   UNL     1      -0.118   0.091   0.103  0.00  0.00    -0.045 A 
ATOM      3  C   UNL     1       0.322  -0.491  -1.077  0.00  0.00    +0.005 A 
ATOM      4  C   UNL     1       0.670  -1.829  -1.082  0.00  0.00    +0.017 A 
ATOM      5  C   UNL     1       0.576  -2.559   0.076  0.00  0.00    +0.041 A 
ATOM      6  C   UNL     1       0.133  -1.999   1.296  0.00  0.00    +0.083 A 
ATOM      7  C   UNL     1      -0.210  -0.628   1.266  0.00  0.00    -0.021 A 
ATOM      8  C   UNL     1      -0.687   0.049   2.525  0.00  0.00    +0.046 C 
ATOM      9  N   UNL     1       0.095  -2.845   2.349  0.00  0.00    -0.224 NA
ATOM     10  C   UNL     1       0.446  -4.107   2.253  0.00  0.00    +0.168 A 
ATOM     11  S   UNL     1       0.903  -4.245   0.530  0.00  0.00    -0.052 S 
ATOM     12  N   UNL     1       0.459  -5.082   3.236  0.00  0.00    -0.250 N 
ATOM     13  C   UNL     1       0.073  -4.779   4.492  0.00  0.00    +0.226 C 
ATOM     14  O   UNL     1      -0.365  -3.676   4.741  0.00  0.00    -0.275 OA
ENDROOT
BRANCH  13  15
ATOM     15  C   UNL     1       0.188  -5.809   5.585  0.00  0.00    +0.091 C 
ATOM     16  C   UNL     1      -0.903  -6.868   5.405  0.00  0.00    +0.015 C 
ATOM     17  C   UNL     1      -0.767  -7.933   6.495  0.00  0.00    +0.018 C 
ATOM     18  C   UNL     1      -0.951  -7.279   7.868  0.00  0.00    +0.109 C 
ATOM     19  N   UNL     1      -0.001  -6.164   7.992  0.00  0.00    -0.175 NA
ATOM     20  C   UNL     1       0.016  -5.131   6.947  0.00  0.00    +0.122 C 
BRANCH  19  21
ATOM     21  S   UNL     1       1.031  -6.075   9.284  0.00  0.00    +0.067 S 
ATOM     22  O   UNL     1       1.384  -4.706   9.427  0.00  0.00    -0.152 OA
ATOM     23  O   UNL     1       0.432  -6.821  10.334  0.00  0.00    -0.152 OA
BRANCH  21  24
ATOM     24  C   UNL     1       2.504  -6.930   8.834  0.00  0.00    +0.143 A 
ATOM     25  C   UNL     1       3.622  -6.449   8.237  0.00  0.00    +0.036 A 
ATOM     26  C   UNL     1       4.668  -7.315   7.977  0.00  0.00    +0.010 A 
ATOM     27  C   UNL     1       4.545  -8.619   8.326  0.00  0.00    +0.047 A 
ATOM     28  S   UNL     1       2.914  -8.654   9.053  0.00  0.00    -0.077 S 
ENDBRANCH  21  24
ENDBRANCH  19  21
ENDBRANCH  13  15
BRANCH  12  29
ATOM     29  C   UNL     1       0.891  -6.444   2.912  0.00  0.00    +0.114 C 
BRANCH  29  30
ATOM     30  C   UNL     1       2.417  -6.526   2.990  0.00  0.00    +0.001 C 
BRANCH  30  31
ATOM     31  C   UNL     1       2.869  -7.948   2.651  0.00  0.00    -0.078 C 
BRANCH  31  32
ATOM     32  N   UNL     1       4.334  -8.027   2.726  0.00  0.00    +0.376 N 
ATOM     33  C   UNL     1       4.761  -9.418   2.518  0.00  0.00    -0.097 C 
ATOM     34  C   UNL     1       4.924  -7.174   1.686  0.00  0.00    -0.097 C 
ATOM     35  H   UNL     1       4.642  -7.713   3.634  0.00  0.00    -0.083 HD
ENDBRANCH  31  32
ENDBRANCH  30  31
ENDBRANCH  29  30
ENDBRANCH  12  29
TORSDOF 7
