REMARK  Name = ZINC06848813
REMARK  8 active torsions:
REMARK  status: ('A' for Active; 'I' for Inactive)
REMARK    1  A    between atoms: C_1  and  O_2
REMARK    2  A    between atoms: O_2  and  C_3
REMARK    3  A    between atoms: C_8  and  C_9
REMARK    4  A    between atoms: C_10  and  C_11
REMARK    5  A    between atoms: N_13  and  C_14
REMARK    6  A    between atoms: C_14  and  N_16
REMARK    7  A    between atoms: N_16  and  C_17
REMARK    8  A    between atoms: C_18  and  C_26
REMARK                            x       y       z     vdW  Elec       q    Type
REMARK                         _______ _______ _______ _____ _____    ______ ____
ROOT
ATOM      1  C   UNL     1       3.697  -6.255  -0.065  0.00  0.00    +0.141 C 
ATOM      2  S   UNL     1       2.234  -7.144  -0.056  0.00  0.00    -0.018 S 
ENDROOT
BRANCH   1   5
ATOM      3  C   UNL     1       2.483  -4.260  -0.043  0.00  0.00    +0.242 C 
ATOM      4  O   UNL     1       1.444  -4.893  -0.037  0.00  0.00    -0.270 OA
ATOM      5  N   UNL     1       3.666  -4.907  -0.058  0.00  0.00    -0.264 N 
ATOM      6  H   UNL     1       4.494  -4.403  -0.064  0.00  0.00    +0.157 HD
BRANCH   3   8
ATOM      7  C   UNL     1       1.265  -2.151  -0.021  0.00  0.00    +0.016 C 
ATOM      8  C   UNL     1       2.450  -2.800  -0.036  0.00  0.00    +0.068 C 
BRANCH   7  14
ATOM      9  C   UNL     1       0.002  -0.004   0.002  0.00  0.00    +0.127 A 
ATOM     10  C   UNL     1      -0.017   1.382   0.010  0.00  0.00    +0.046 A 
ATOM     11  C   UNL     1       1.169   2.091   0.002  0.00  0.00    +0.004 A 
ATOM     12  C   UNL     1       2.384   1.426  -0.013  0.00  0.00    +0.001 A 
ATOM     13  C   UNL     1       2.424   0.049  -0.021  0.00  0.00    +0.011 A 
ATOM     14  C   UNL     1       1.231  -0.683  -0.013  0.00  0.00    +0.017 A 
BRANCH   9  16
ATOM     15  C   UNL     1      -2.373   0.057   0.026  0.00  0.00    +0.277 C 
ATOM     16  O   UNL     1      -1.162  -0.702   0.010  0.00  0.00    -0.495 OA
ENDBRANCH   9  16
ENDBRANCH   7  14
ENDBRANCH   3   8
ENDBRANCH   1   5
BRANCH   1  17
ATOM     17  N   UNL     1       4.879  -6.902  -0.080  0.00  0.00    -0.291 N 
ATOM     18  H   UNL     1       5.708  -6.397  -0.086  0.00  0.00    +0.154 HD
BRANCH  17  19
ATOM     19  C   UNL     1       4.911  -8.287  -0.087  0.00  0.00    +0.084 A 
ATOM     20  C   UNL     1       6.018  -9.124  -0.108  0.00  0.00    +0.068 A 
ATOM     21  C   UNL     1       5.776 -10.557  -0.108  0.00  0.00    -0.023 A 
ATOM     22  C   UNL     1       4.475 -10.921  -0.098  0.00  0.00    -0.004 A 
ATOM     23  S   UNL     1       3.578  -9.394  -0.081  0.00  0.00    -0.077 S 
ATOM     24  C   UNL     1       3.927 -12.314  -0.101  0.00  0.00    +0.043 C 
ATOM     25  C   UNL     1       5.056 -13.277  -0.495  0.00  0.00    +0.005 C 
ATOM     26  C   UNL     1       6.301 -12.943   0.331  0.00  0.00    +0.005 C 
ATOM     27  C   UNL     1       6.883 -11.603  -0.124  0.00  0.00    +0.037 C 
BRANCH  20  28
ATOM     28  C   UNL     1       7.380  -8.583  -0.126  0.00  0.00    +0.244 C 
ATOM     29  O   UNL     1       7.961  -8.364   0.921  0.00  0.00    -0.270 OA
ATOM     30  N   UNL     1       7.989  -8.328  -1.301  0.00  0.00    -0.325 N 
ATOM     31  H   UNL     1       7.525  -8.502  -2.135  0.00  0.00    +0.145 HD
ATOM     32  H   UNL     1       8.890  -7.970  -1.312  0.00  0.00    +0.145 HD
ENDBRANCH  20  28
ENDBRANCH  17  19
ENDBRANCH   1  17
TORSDOF 7
