REMARK  Name = ZINC40143006
REMARK  4 active torsions:
REMARK  status: ('A' for Active; 'I' for Inactive)
REMARK    1  A    between atoms: C_8  and  C_11
REMARK    2  A    between atoms: N_13  and  C_14
REMARK    3  A    between atoms: C_14  and  C_15
REMARK    4  A    between atoms: C_15  and  N_17
REMARK                            x       y       z     vdW  Elec       q    Type
REMARK                         _______ _______ _______ _____ _____    ______ ____
ROOT
ATOM      1  C   UNL     1       2.766  -4.237  -0.079  0.00  0.00    +0.250 C 
ATOM      2  O   UNL     1       3.870  -4.738  -0.183  0.00  0.00    -0.270 OA
ATOM      3  N   UNL     1       1.677  -5.022   0.036  0.00  0.00    -0.303 N 
ATOM      4  H   UNL     1       0.792  -4.625   0.045  0.00  0.00    +0.150 HD
ENDROOT
BRANCH   1  12
ATOM      5  C   UNL     1      -0.013   1.371  -0.073  0.00  0.00    +0.001 A 
ATOM      6  C   UNL     1       1.177   2.086  -0.074  0.00  0.00    +0.002 A 
ATOM      7  C   UNL     1       2.390   1.435  -0.075  0.00  0.00    +0.026 A 
ATOM      8  C   UNL     1       2.432   0.043  -0.076  0.00  0.00    +0.050 A 
ATOM      9  C   UNL     1       1.227  -0.680  -0.076  0.00  0.00    +0.046 A 
ATOM     10  C   UNL     1       0.005  -0.006  -0.074  0.00  0.00    +0.014 A 
ATOM     11  C   UNL     1       1.286  -2.153  -0.077  0.00  0.00    +0.201 A 
ATOM     12  C   UNL     1       2.621  -2.772  -0.078  0.00  0.00    +0.100 A 
ATOM     13  C   UNL     1       3.734  -1.957  -0.079  0.00  0.00    +0.100 A 
ATOM     14  N   UNL     1       3.640  -0.621  -0.078  0.00  0.00    -0.360 N 
ATOM     15  O   UNL     1       0.272  -2.829  -0.076  0.00  0.00    -0.286 OA
ATOM     16  H   UNL     1       4.457  -0.098  -0.078  0.00  0.00    +0.165 HD
ENDBRANCH   1  12
BRANCH   3  17
ATOM     17  C   UNL     1       1.830  -6.475   0.148  0.00  0.00    +0.202 C 
BRANCH  17  18
ATOM     18  C   UNL     1       0.471  -7.115   0.264  0.00  0.00    +0.256 C 
ATOM     19  O   UNL     1      -0.530  -6.425   0.254  0.00  0.00    -0.272 OA
BRANCH  18  20
ATOM     20  N   UNL     1       0.366  -8.436   0.377  0.00  0.00    -0.146 NA
ATOM     21  C   UNL     1      -0.834  -9.011   0.373  0.00  0.00    +0.198 A 
ATOM     22  N   UNL     1      -2.022  -8.351   0.361  0.00  0.00    -0.326 N 
ATOM     23  H   UNL     1      -2.138  -7.388   0.353  0.00  0.00    +0.169 HD
ATOM     24  C   UNL     1      -3.044  -9.295   0.361  0.00  0.00    +0.065 A 
ATOM     25  C   UNL     1      -4.428  -9.192   0.350  0.00  0.00    +0.028 A 
ATOM     26  C   UNL     1      -5.202 -10.335   0.353  0.00  0.00    +0.002 A 
ATOM     27  C   UNL     1      -4.605 -11.584   0.365  0.00  0.00    +0.002 A 
ATOM     28  C   UNL     1      -3.228 -11.697   0.376  0.00  0.00    +0.028 A 
ATOM     29  C   UNL     1      -2.441 -10.555   0.373  0.00  0.00    +0.065 A 
ATOM     30  N   UNL     1      -1.065 -10.350   0.376  0.00  0.00    -0.326 N 
ATOM     31  H   UNL     1      -0.387 -11.043   0.381  0.00  0.00    +0.169 HD
ENDBRANCH  18  20
ENDBRANCH  17  18
ENDBRANCH   3  17
TORSDOF 4
