REMARK  Name = ZINC39362275
REMARK  9 active torsions:
REMARK  status: ('A' for Active; 'I' for Inactive)
REMARK    1  A    between atoms: C_1  and  O_2
REMARK    2  A    between atoms: O_2  and  C_3
REMARK    3  A    between atoms: C_6  and  N_9
REMARK    4  A    between atoms: C_10  and  C_26
REMARK    5  A    between atoms: C_14  and  S_15
REMARK    6  A    between atoms: S_15  and  C_16
REMARK    7  A    between atoms: C_16  and  C_17
REMARK    8  A    between atoms: N_19  and  C_20
REMARK    9  A    between atoms: C_26  and  C_27
REMARK                            x       y       z     vdW  Elec       q    Type
REMARK                         _______ _______ _______ _____ _____    ______ ____
ROOT
ATOM      1  N   UNL     1      -4.893  -2.579  -0.006  0.00  0.00    -0.258 N 
ATOM      2  C   UNL     1      -5.125  -4.030  -0.111  0.00  0.00    +0.187 C 
ATOM      3  N   UNL     1      -6.591  -4.159  -0.049  0.00  0.00    -0.246 N 
ATOM      4  N   UNL     1      -7.092  -2.858   0.081  0.00  0.00    -0.162 NA
ATOM      5  C   UNL     1      -6.142  -1.986   0.109  0.00  0.00    +0.180 C 
ATOM      6  H   UNL     1      -7.106  -4.980  -0.090  0.00  0.00    +0.170 HD
ENDROOT
BRANCH   1  10
ATOM      7  C   UNL     1      -1.204  -0.639  -0.030  0.00  0.00    +0.120 A 
ATOM      8  C   UNL     1      -2.082  -0.444   1.026  0.00  0.00    +0.047 A 
ATOM      9  C   UNL     1      -3.305  -1.086   1.035  0.00  0.00    +0.027 A 
ATOM     10  C   UNL     1      -3.654  -1.928  -0.014  0.00  0.00    +0.038 A 
ATOM     11  C   UNL     1      -2.774  -2.122  -1.070  0.00  0.00    +0.027 A 
ATOM     12  C   UNL     1      -1.554  -1.474  -1.080  0.00  0.00    +0.047 A 
BRANCH   7  14
ATOM     13  C   UNL     1       0.295   0.840   1.076  0.00  0.00    +0.277 C 
ATOM     14  O   UNL     1       0.000  -0.006  -0.037  0.00  0.00    -0.495 OA
ENDBRANCH   7  14
ENDBRANCH   1  10
BRANCH   5  15
ATOM     15  S   UNL     1      -6.399  -0.250   0.270  0.00  0.00    -0.079 S 
BRANCH  15  16
ATOM     16  C   UNL     1      -8.202  -0.082   0.377  0.00  0.00    +0.173 C 
BRANCH  16  17
ATOM     17  C   UNL     1      -8.562   1.375   0.519  0.00  0.00    +0.227 C 
ATOM     18  O   UNL     1      -7.689   2.216   0.546  0.00  0.00    -0.275 OA
ATOM     19  N   UNL     1      -9.855   1.742   0.618  0.00  0.00    -0.285 N 
ATOM     20  H   UNL     1     -10.549   1.066   0.676  0.00  0.00    +0.155 HD
BRANCH  19  21
ATOM     21  C   UNL     1     -10.198   3.099   0.635  0.00  0.00    +0.033 A 
ATOM     22  C   UNL     1     -11.266   3.537   1.406  0.00  0.00    +0.023 A 
ATOM     23  C   UNL     1     -11.602   4.877   1.421  0.00  0.00    +0.002 A 
ATOM     24  C   UNL     1     -10.875   5.781   0.668  0.00  0.00    +0.000 A 
ATOM     25  C   UNL     1      -9.811   5.348  -0.101  0.00  0.00    +0.002 A 
ATOM     26  C   UNL     1      -9.466   4.011  -0.115  0.00  0.00    +0.023 A 
ENDBRANCH  19  21
ENDBRANCH  16  17
ENDBRANCH  15  16
ENDBRANCH   5  15
BRANCH   2  27
ATOM     27  C   UNL     1      -4.468  -4.765   1.059  0.00  0.00    +0.097 C 
BRANCH  27  28
ATOM     28  C   UNL     1      -4.615  -6.252   0.864  0.00  0.00    +0.029 A 
ATOM     29  N   UNL     1      -5.756  -6.890   1.269  0.00  0.00    -0.311 N 
ATOM     30  C   UNL     1      -5.896  -8.217   1.099  0.00  0.00    +0.327 A 
ATOM     31  O   UNL     1      -6.918  -8.763   1.466  0.00  0.00    -0.247 OA
ATOM     32  N   UNL     1      -4.922  -8.948   0.527  0.00  0.00    -0.275 N 
ATOM     33  C   UNL     1      -3.782  -8.357   0.114  0.00  0.00    +0.254 A 
ATOM     34  O   UNL     1      -2.900  -9.018  -0.404  0.00  0.00    -0.268 OA
ATOM     35  C   UNL     1      -3.623  -6.961   0.283  0.00  0.00    +0.091 A 
ATOM     36  H   UNL     1      -5.040  -9.904   0.411  0.00  0.00    +0.173 HD
ATOM     37  H   UNL     1      -6.470  -6.380   1.683  0.00  0.00    +0.170 HD
ENDBRANCH  27  28
ENDBRANCH   2  27
TORSDOF 8
