REMARK  Name = ZINC16025554
REMARK  9 active torsions:
REMARK  status: ('A' for Active; 'I' for Inactive)
REMARK    1  A    between atoms: C_1  and  C_2
REMARK    2  A    between atoms: C_2  and  C_3
REMARK    3  A    between atoms: C_3  and  C_4
REMARK    4  A    between atoms: C_4  and  C_5
REMARK    5  A    between atoms: C_8  and  N_11
REMARK    6  A    between atoms: C_16  and  C_35
REMARK    7  A    between atoms: C_27  and  C_34
REMARK    8  A    between atoms: C_28  and  C_33
REMARK    9  A    between atoms: C_35  and  C_36
REMARK                            x       y       z     vdW  Elec       q    Type
REMARK                         _______ _______ _______ _____ _____    ______ ____
ROOT
ATOM      1  N   UNL     1       3.508  -3.921   5.831  0.00  0.00    -0.210 N 
ATOM      2  C   UNL     1       4.811  -4.227   5.822  0.00  0.00    +0.232 C 
ATOM      3  O   UNL     1       5.543  -4.141   4.860  0.00  0.00    -0.274 OA
ATOM      4  C   UNL     1       5.226  -4.698   7.197  0.00  0.00    +0.108 C 
ATOM      5  C   UNL     1       6.185  -3.664   7.823  0.00  0.00    +0.076 C 
ATOM      6  N   UNL     1       5.298  -2.672   8.487  0.00  0.00    -0.295 NA
ATOM      7  C   UNL     1       4.212  -3.489   9.061  0.00  0.00    +0.136 C 
ATOM      8  C   UNL     1       3.913  -4.598   8.023  0.00  0.00    +0.123 C 
ATOM      9  C   UNL     1       2.907  -4.089   7.015  0.00  0.00    +0.233 C 
ATOM     10  O   UNL     1       1.737  -3.870   7.243  0.00  0.00    -0.274 OA
ATOM     11  C   UNL     1       2.994  -2.660   9.356  0.00  0.00    +0.004 A 
ATOM     12  C   UNL     1       2.166  -1.881   8.578  0.00  0.00    +0.008 A 
ATOM     13  C   UNL     1       1.096  -1.221   9.154  0.00  0.00    +0.004 A 
ATOM     14  C   UNL     1       0.860  -1.344  10.511  0.00  0.00    -0.046 A 
ATOM     15  C   UNL     1       1.685  -2.124  11.293  0.00  0.00    -0.026 A 
ATOM     16  C   UNL     1       2.765  -2.793  10.722  0.00  0.00    +0.042 A 
ATOM     17  N   UNL     1       3.727  -3.628  11.294  0.00  0.00    -0.283 N 
ATOM     18  C   UNL     1       4.613  -4.080  10.385  0.00  0.00    +0.243 C 
ATOM     19  O   UNL     1       5.551  -4.819  10.594  0.00  0.00    -0.273 OA
ATOM     20  C   UNL     1       1.419  -2.252  12.771  0.00  0.00    +0.046 C 
ATOM     21  C   UNL     1      -0.306  -0.623  11.138  0.00  0.00    +0.044 C 
ATOM     22  H   UNL     1       5.793  -2.170   9.208  0.00  0.00    +0.124 HD
ATOM     23  H   UNL     1       3.754  -3.857  12.236  0.00  0.00    +0.155 HD
ENDROOT
BRANCH   1  27
ATOM     24  C   UNL     1       1.493  -2.539   2.454  0.00  0.00    -0.047 A 
ATOM     25  C   UNL     1       2.469  -1.757   3.043  0.00  0.00    +0.005 A 
ATOM     26  C   UNL     1       3.138  -2.212   4.162  0.00  0.00    +0.024 A 
ATOM     27  C   UNL     1       2.830  -3.456   4.696  0.00  0.00    +0.044 A 
ATOM     28  C   UNL     1       1.850  -4.239   4.102  0.00  0.00    +0.024 A 
ATOM     29  C   UNL     1       1.180  -3.777   2.986  0.00  0.00    +0.005 A 
BRANCH  24  30
ATOM     30  C   UNL     1       0.764  -2.040   1.233  0.00  0.00    +0.035 C 
BRANCH  30  31
ATOM     31  C   UNL     1      -0.477  -1.256   1.664  0.00  0.00    +0.004 C 
BRANCH  31  33
ATOM     32  C   UNL     1      -2.458   0.034   0.856  0.00  0.00    +0.004 C 
ATOM     33  C   UNL     1      -1.216  -0.749   0.424  0.00  0.00    -0.003 C 
ENDBRANCH  31  33
ENDBRANCH  30  31
ENDBRANCH  24  30
ENDBRANCH   1  27
BRANCH   5  34
ATOM     34  C   UNL     1       7.022  -2.987   6.735  0.00  0.00    +0.115 C 
BRANCH  34  35
ATOM     35  C   UNL     1       8.035  -2.074   7.376  0.00  0.00    +0.212 C 
ATOM     36  O   UNL     1       8.082  -1.973   8.584  0.00  0.00    -0.276 OA
ATOM     37  N   UNL     1       8.888  -1.368   6.607  0.00  0.00    -0.329 N 
ATOM     38  H   UNL     1       8.850  -1.449   5.641  0.00  0.00    +0.145 HD
ATOM     39  H   UNL     1       9.540  -0.780   7.020  0.00  0.00    +0.145 HD
ENDBRANCH  34  35
ENDBRANCH   5  34
TORSDOF 6
