REMARK  Name = ZINC42667570
REMARK  9 active torsions:
REMARK  status: ('A' for Active; 'I' for Inactive)
REMARK    1  A    between atoms: C_1  and  C_2
REMARK    2  A    between atoms: C_2  and  C_4
REMARK    3  A    between atoms: C_2  and  N_15
REMARK    4  A    between atoms: N_6  and  C_7
REMARK    5  A    between atoms: C_10  and  S_13
REMARK    6  A    between atoms: S_13  and  C_14
REMARK    7  A    between atoms: N_15  and  C_16
REMARK    8  A    between atoms: C_19  and  N_22
REMARK    9  A    between atoms: N_25  and  C_26
REMARK                            x       y       z     vdW  Elec       q    Type
REMARK                         _______ _______ _______ _____ _____    ______ ____
ROOT
ATOM      1  N   UNL     1       0.074  -0.066  -1.568  0.00  0.00    -0.333 N 
ATOM      2  H   UNL     1       0.992  -0.269  -1.328  0.00  0.00    +0.147 HD
ENDROOT
BRANCH   1   3
ATOM      3  C   UNL     1      -0.386  -0.336  -2.861  0.00  0.00    +0.028 A 
ATOM      4  C   UNL     1      -1.698  -0.041  -3.207  0.00  0.00    +0.025 A 
ATOM      5  C   UNL     1      -2.152  -0.307  -4.484  0.00  0.00    +0.025 A 
ATOM      6  C   UNL     1      -1.297  -0.871  -5.421  0.00  0.00    +0.035 A 
ATOM      7  C   UNL     1       0.015  -1.166  -5.076  0.00  0.00    +0.025 A 
ATOM      8  C   UNL     1       0.471  -0.894  -3.801  0.00  0.00    +0.025 A 
BRANCH   6   9
ATOM      9  N   UNL     1      -1.759  -1.141  -6.717  0.00  0.00    -0.269 N 
ATOM     10  C   UNL     1      -2.652  -0.318  -7.300  0.00  0.00    +0.304 C 
ATOM     11  O   UNL     1      -3.121   0.612  -6.673  0.00  0.00    -0.253 OA
ATOM     12  N   UNL     1      -3.025  -0.525  -8.579  0.00  0.00    -0.296 N 
ATOM     13  H   UNL     1      -1.435  -1.922  -7.194  0.00  0.00    +0.156 HD
ATOM     14  H   UNL     1      -2.651  -1.267  -9.079  0.00  0.00    +0.151 HD
BRANCH  12  15
ATOM     15  C   UNL     1      -3.996   0.370  -9.213  0.00  0.00    +0.075 C 
ATOM     16  C   UNL     1      -5.101  -0.269 -10.056  0.00  0.00    +0.024 C 
ATOM     17  C   UNL     1      -3.959   0.487 -10.738  0.00  0.00    +0.024 C 
ENDBRANCH  12  15
ENDBRANCH   6   9
ENDBRANCH   1   3
BRANCH   1  19
ATOM     18  C   UNL     1      -0.837   2.044  -0.733  0.00  0.00    +0.038 C 
ATOM     19  C   UNL     1      -0.830   0.522  -0.577  0.00  0.00    +0.154 C 
BRANCH  19  20
ATOM     20  C   UNL     1      -0.358   0.162   0.809  0.00  0.00    +0.237 C 
ATOM     21  O   UNL     1       0.635  -0.519   0.954  0.00  0.00    -0.273 OA
ATOM     22  N   UNL     1      -1.041   0.597   1.887  0.00  0.00    -0.284 N 
ATOM     23  H   UNL     1      -1.795   1.196   1.774  0.00  0.00    +0.155 HD
BRANCH  22  24
ATOM     24  C   UNL     1      -0.660   0.184   3.171  0.00  0.00    +0.034 A 
ATOM     25  C   UNL     1      -1.626  -0.036   4.144  0.00  0.00    +0.024 A 
ATOM     26  C   UNL     1      -1.251  -0.443   5.409  0.00  0.00    +0.016 A 
ATOM     27  C   UNL     1       0.092  -0.634   5.708  0.00  0.00    +0.008 A 
ATOM     28  C   UNL     1       1.058  -0.414   4.733  0.00  0.00    +0.016 A 
ATOM     29  C   UNL     1       0.682  -0.012   3.467  0.00  0.00    +0.024 A 
BRANCH  27  30
ATOM     30  S   UNL     1       0.571  -1.153   7.322  0.00  0.00    -0.129 S 
ATOM     31  C   UNL     1       2.379  -1.262   7.230  0.00  0.00    +0.090 C 
ENDBRANCH  27  30
ENDBRANCH  22  24
ENDBRANCH  19  20
ENDBRANCH   1  19
TORSDOF 7
