REMARK  Name = ZINC00807032
REMARK  5 active torsions:
REMARK  status: ('A' for Active; 'I' for Inactive)
REMARK    1  A    between atoms: C_1  and  C_2
REMARK    2  A    between atoms: C_5  and  N_9
REMARK    3  A    between atoms: C_6  and  C_8
REMARK    4  A    between atoms: C_10  and  C_12
REMARK    5  A    between atoms: C_17  and  C_28
REMARK                            x       y       z     vdW  Elec       q    Type
REMARK                         _______ _______ _______ _____ _____    ______ ____
ROOT
ATOM      1  C   UNL     1      -3.041   3.245   2.176  0.00  0.00    +0.169 C 
ATOM      2  C   UNL     1      -1.577   3.564   2.506  0.00  0.00    +0.049 C 
ATOM      3  C   UNL     1      -0.717   3.113   1.318  0.00  0.00    +0.078 C 
ATOM      4  C   UNL     1      -0.733   1.579   1.296  0.00  0.00    +0.176 C 
ATOM      5  N   UNL     1      -2.104   1.081   1.308  0.00  0.00    -0.278 N 
ATOM      6  C   UNL     1      -3.153   1.819   1.718  0.00  0.00    +0.228 C 
ATOM      7  O   UNL     1      -4.249   1.300   1.713  0.00  0.00    -0.275 OA
ATOM      8  O   UNL     1      -0.047   1.115   2.463  0.00  0.00    -0.468 OA
ATOM      9  C   UNL     1      -0.439   1.630   3.659  0.00  0.00    +0.127 A 
ATOM     10  C   UNL     1      -1.172   2.800   3.741  0.00  0.00    -0.001 A 
ATOM     11  C   UNL     1      -1.550   3.290   4.980  0.00  0.00    +0.007 A 
ATOM     12  C   UNL     1      -1.198   2.615   6.133  0.00  0.00    +0.001 A 
ATOM     13  C   UNL     1      -0.465   1.446   6.053  0.00  0.00    +0.004 A 
ATOM     14  C   UNL     1      -0.086   0.953   4.821  0.00  0.00    +0.046 A 
ATOM     15  C   UNL     1      -0.015   1.076   0.042  0.00  0.00    +0.078 C 
ATOM     16  H   UNL     1      -2.260   0.173   1.005  0.00  0.00    +0.152 HD
ENDROOT
BRANCH   1  18
ATOM     17  N   UNL     1      -4.785   4.065   0.626  0.00  0.00    -0.285 N 
ATOM     18  C   UNL     1      -3.521   4.163   1.082  0.00  0.00    +0.230 C 
ATOM     19  O   UNL     1      -2.769   4.990   0.611  0.00  0.00    -0.275 OA
ATOM     20  H   UNL     1      -5.362   3.353   0.945  0.00  0.00    +0.155 HD
BRANCH  17  25
ATOM     21  C   UNL     1      -6.736   7.817  -3.156  0.00  0.00    +0.044 C 
ATOM     22  C   UNL     1      -6.218   6.820  -2.151  0.00  0.00    -0.050 A 
ATOM     23  C   UNL     1      -5.177   7.167  -1.310  0.00  0.00    +0.005 A 
ATOM     24  C   UNL     1      -4.699   6.256  -0.388  0.00  0.00    +0.024 A 
ATOM     25  C   UNL     1      -5.266   4.990  -0.307  0.00  0.00    +0.036 A 
ATOM     26  C   UNL     1      -6.308   4.644  -1.157  0.00  0.00    -0.029 A 
ATOM     27  C   UNL     1      -6.785   5.562  -2.073  0.00  0.00    +0.008 A 
ATOM     28  C   UNL     1      -6.922   3.270  -1.076  0.00  0.00    +0.045 C 
ENDBRANCH  17  25
ENDBRANCH   1  18
TORSDOF 2
