REMARK  Name = ZINC20916993
REMARK  8 active torsions:
REMARK  status: ('A' for Active; 'I' for Inactive)
REMARK    1  A    between atoms: C_9  and  O_34
REMARK    2  A    between atoms: C_10  and  C_11
REMARK    3  A    between atoms: N_12  and  N_13
REMARK    4  A    between atoms: C_17  and  S_20
REMARK    5  A    between atoms: N_18  and  N_19
REMARK    6  A    between atoms: S_20  and  C_21
REMARK    7  A    between atoms: C_21  and  C_22
REMARK    8  A    between atoms: C_25  and  C_27
REMARK                            x       y       z     vdW  Elec       q    Type
REMARK                         _______ _______ _______ _____ _____    ______ ____
ROOT
ATOM      1  N   UNL     1      -2.573   8.058   0.069  0.00  0.00    -0.204 N 
ATOM      2  C   UNL     1      -2.564   9.445   0.076  0.00  0.00    +0.254 A 
ATOM      3  N   UNL     1      -1.498  10.209   0.070  0.00  0.00    -0.109 NA
ATOM      4  N   UNL     1      -1.923  11.544   0.081  0.00  0.00    -0.119 NA
ATOM      5  C   UNL     1      -3.234  11.552   0.093  0.00  0.00    +0.210 A 
ATOM      6  N   UNL     1      -3.665  10.256   0.085  0.00  0.00    -0.211 N 
ATOM      7  H   UNL     1      -3.529   7.514   0.075  0.00  0.00    +0.177 HD
ENDROOT
BRANCH   6   8
ATOM      8  N   UNL     1      -4.967   9.842   0.088  0.00  0.00    -0.294 N 
ATOM      9  H   UNL     1      -5.779  10.584   0.096  0.00  0.00    +0.163 HD
ATOM     10  H   UNL     1      -5.202   8.768   0.084  0.00  0.00    +0.163 HD
ENDBRANCH   6   8
BRANCH   1  12
ATOM     11  C   UNL     1      -1.373   6.050   0.047  0.00  0.00    +0.142 C 
ATOM     12  N   UNL     1      -1.364   7.350   0.054  0.00  0.00    -0.187 NA
BRANCH  11  22
ATOM     13  C   UNL     1      -0.013   1.076   0.008  0.00  0.00    +0.001 A 
ATOM     14  C   UNL     1      -1.234   1.745   0.017  0.00  0.00    +0.001 A 
ATOM     15  C   UNL     1      -1.286   3.107   0.031  0.00  0.00    +0.009 A 
ATOM     16  C   UNL     1      -0.096   3.845   0.024  0.00  0.00    -0.006 A 
ATOM     17  C   UNL     1       1.148   3.168   0.008  0.00  0.00    -0.017 A 
ATOM     18  C   UNL     1       1.163   1.762   0.000  0.00  0.00    +0.008 A 
ATOM     19  C   UNL     1       2.341   3.910   0.000  0.00  0.00    +0.012 A 
ATOM     20  C   UNL     1       2.314   5.270   0.009  0.00  0.00    +0.046 A 
ATOM     21  C   UNL     1       1.116   5.981   0.023  0.00  0.00    +0.126 A 
ATOM     22  C   UNL     1      -0.105   5.306   0.032  0.00  0.00    +0.044 A 
BRANCH  21  23
ATOM     23  O   UNL     1       1.137   7.339   0.030  0.00  0.00    -0.506 OA
ATOM     24  H   UNL     1       0.193   7.903   0.042  0.00  0.00    +0.292 HD
ENDBRANCH  21  23
ENDBRANCH  11  22
ENDBRANCH   1  12
BRANCH   5  25
ATOM     25  S   UNL     1      -4.261  12.985   0.110  0.00  0.00    -0.075 S 
BRANCH  25  26
ATOM     26  C   UNL     1      -3.086  14.367   0.106  0.00  0.00    +0.175 C 
BRANCH  26  27
ATOM     27  C   UNL     1      -3.843  15.669   0.120  0.00  0.00    +0.228 A 
ATOM     28  N   UNL     1      -4.220  16.330   1.179  0.00  0.00    -0.111 NA
ATOM     29  N   UNL     1      -4.842  17.398   0.822  0.00  0.00    -0.107 NA
ATOM     30  C   UNL     1      -4.883  17.456  -0.489  0.00  0.00    +0.248 A 
ATOM     31  O   UNL     1      -4.247  16.364  -0.958  0.00  0.00    -0.419 OA
BRANCH  30  32
ATOM     32  C   UNL     1      -5.508  18.522  -1.300  0.00  0.00    +0.039 A 
ATOM     33  C   UNL     1      -5.471  18.455  -2.693  0.00  0.00    +0.016 A 
ATOM     34  C   UNL     1      -6.061  19.450  -3.445  0.00  0.00    +0.039 A 
ATOM     35  C   UNL     1      -6.679  20.521  -2.819  0.00  0.00    +0.123 A 
ATOM     36  C   UNL     1      -6.713  20.595  -1.435  0.00  0.00    +0.039 A 
ATOM     37  C   UNL     1      -6.132  19.603  -0.674  0.00  0.00    +0.016 A 
ATOM     38  F   UNL     1      -7.250  21.496  -3.560  0.00  0.00    -0.205 F 
ENDBRANCH  30  32
ENDBRANCH  26  27
ENDBRANCH  25  26
ENDBRANCH   5  25
TORSDOF 8
