REMARK  Name = ZINC44776034
REMARK  4 active torsions:
REMARK  status: ('A' for Active; 'I' for Inactive)
REMARK    1  A    between atoms: C_8  and  C_10
REMARK    2  A    between atoms: C_16  and  C_18
REMARK    3  A    between atoms: N_20  and  C_21
REMARK    4  A    between atoms: C_24  and  N_27
REMARK                            x       y       z     vdW  Elec       q    Type
REMARK                         _______ _______ _______ _____ _____    ______ ____
ROOT
ATOM      1  C   UNL     1       3.186  -3.805   2.413  0.00  0.00    +0.221 C 
ATOM      2  O   UNL     1       2.093  -3.285   2.329  0.00  0.00    -0.275 OA
ATOM      3  N   UNL     1       3.754  -3.988   3.622  0.00  0.00    -0.285 N 
ATOM      4  H   UNL     1       4.596  -4.463   3.695  0.00  0.00    +0.155 HD
ENDROOT
BRANCH   1  10
ATOM      5  C   UNL     1       3.052  -3.928  -0.066  0.00  0.00    +0.061 C 
ATOM      6  C   UNL     1       3.875  -4.222  -1.322  0.00  0.00    +0.038 C 
ATOM      7  C   UNL     1       4.494  -5.586  -1.227  0.00  0.00    -0.030 C 
ATOM      8  C   UNL     1       4.616  -6.252  -0.123  0.00  0.00    -0.030 C 
ATOM      9  C   UNL     1       4.147  -5.757   1.214  0.00  0.00    +0.040 C 
ATOM     10  C   UNL     1       3.908  -4.247   1.166  0.00  0.00    +0.089 C 
BRANCH   5  18
ATOM     11  C   UNL     1       0.017   1.434   0.024  0.00  0.00    +0.002 A 
ATOM     12  C   UNL     1       1.197   2.164   0.017  0.00  0.00    +0.001 A 
ATOM     13  C   UNL     1       2.409   1.500  -0.004  0.00  0.00    +0.017 A 
ATOM     14  C   UNL     1       2.423   0.127  -0.018  0.00  0.00    +0.039 A 
ATOM     15  C   UNL     1       1.236  -0.641  -0.011  0.00  0.00    +0.078 A 
ATOM     16  C   UNL     1       0.020   0.073   0.011  0.00  0.00    +0.029 A 
ATOM     17  N   UNL     1       1.459  -1.971  -0.027  0.00  0.00    -0.244 NA
ATOM     18  C   UNL     1       2.659  -2.473  -0.047  0.00  0.00    +0.084 A 
ATOM     19  S   UNL     1       3.674  -1.131  -0.046  0.00  0.00    -0.072 S 
ENDBRANCH   5  18
ENDBRANCH   1  10
BRANCH   3  20
ATOM     20  C   UNL     1       3.128  -3.491   4.772  0.00  0.00    +0.034 A 
ATOM     21  C   UNL     1       3.893  -2.998   5.821  0.00  0.00    +0.025 A 
ATOM     22  C   UNL     1       3.276  -2.509   6.955  0.00  0.00    +0.025 A 
ATOM     23  C   UNL     1       1.890  -2.509   7.047  0.00  0.00    +0.035 A 
ATOM     24  C   UNL     1       1.125  -3.002   5.998  0.00  0.00    +0.025 A 
ATOM     25  C   UNL     1       1.742  -3.486   4.861  0.00  0.00    +0.025 A 
BRANCH  23  26
ATOM     26  N   UNL     1       1.264  -2.013   8.197  0.00  0.00    -0.270 N 
ATOM     27  C   UNL     1       0.128  -2.582   8.645  0.00  0.00    +0.301 C 
ATOM     28  O   UNL     1      -0.400  -3.471   8.005  0.00  0.00    -0.253 OA
ATOM     29  N   UNL     1      -0.424  -2.166   9.802  0.00  0.00    -0.313 N 
ATOM     30  H   UNL     1       1.649  -1.259   8.672  0.00  0.00    +0.156 HD
ATOM     31  H   UNL     1      -0.003  -1.457  10.313  0.00  0.00    +0.146 HD
ATOM     32  H   UNL     1      -1.242  -2.576  10.124  0.00  0.00    +0.146 HD
ENDBRANCH  23  26
ENDBRANCH   3  20
TORSDOF 4
