REMARK  Name = ZINC38748358
REMARK  8 active torsions:
REMARK  status: ('A' for Active; 'I' for Inactive)
REMARK    1  A    between atoms: C_1  and  C_2
REMARK    2  A    between atoms: C_5  and  C_8
REMARK    3  A    between atoms: C_10  and  C_14
REMARK    4  A    between atoms: C_18  and  S_22
REMARK    5  A    between atoms: N_20  and  N_21
REMARK    6  A    between atoms: S_22  and  C_23
REMARK    7  A    between atoms: C_23  and  C_24
REMARK    8  A    between atoms: C_24  and  C_26
REMARK                            x       y       z     vdW  Elec       q    Type
REMARK                         _______ _______ _______ _____ _____    ______ ____
ROOT
ATOM      1  C   UNL     1       1.358  -7.180   0.973  0.00  0.00    +0.185 C 
ATOM      2  N   UNL     1       2.568  -6.529   0.407  0.00  0.00    -0.234 NA
ATOM      3  N   UNL     1       3.580  -7.589   0.389  0.00  0.00    -0.228 NA
ATOM      4  C   UNL     1       2.853  -8.875   0.369  0.00  0.00    +0.214 C 
ATOM      5  N   UNL     1       1.407  -8.545   0.386  0.00  0.00    -0.197 NA
ATOM      6  H   UNL     1       2.865  -5.756   0.983  0.00  0.00    +0.143 HD
ATOM      7  H   UNL     1       4.183  -7.527   1.195  0.00  0.00    +0.143 HD
ENDROOT
BRANCH   1  10
ATOM      8  C   UNL     1       0.061  -4.256  -0.021  0.00  0.00    +0.091 C 
ATOM      9  C   UNL     1       0.071  -5.030   1.081  0.00  0.00    +0.034 C 
ATOM     10  C   UNL     1       0.090  -6.445   0.530  0.00  0.00    +0.187 C 
ATOM     11  N   UNL     1       0.087  -6.239  -0.927  0.00  0.00    -0.176 NA
ATOM     12  N   UNL     1       0.065  -5.025  -1.142  0.00  0.00    -0.154 NA
BRANCH   8  17
ATOM     13  C   UNL     1      -0.018   1.503   0.010  0.00  0.00    +0.044 C 
ATOM     14  C   UNL     1       0.002  -0.004   0.002  0.00  0.00    -0.050 A 
ATOM     15  C   UNL     1       0.006  -0.686  -1.201  0.00  0.00    +0.004 A 
ATOM     16  C   UNL     1       0.025  -2.066  -1.215  0.00  0.00    +0.010 A 
ATOM     17  C   UNL     1       0.041  -2.772  -0.013  0.00  0.00    +0.002 A 
ATOM     18  C   UNL     1       0.037  -2.080   1.196  0.00  0.00    +0.010 A 
ATOM     19  C   UNL     1       0.023  -0.700   1.198  0.00  0.00    +0.004 A 
ENDBRANCH   8  17
ENDBRANCH   1  10
BRANCH   5  20
ATOM     20  N   UNL     1       0.663  -9.491   1.202  0.00  0.00    -0.264 NA
ATOM     21  H   UNL     1       0.696 -10.417   0.804  0.00  0.00    +0.137 HD
ATOM     22  H   UNL     1       1.002  -9.493   2.153  0.00  0.00    +0.137 HD
ENDBRANCH   5  20
BRANCH   4  23
ATOM     23  S   UNL     1       3.266  -9.799  -1.136  0.00  0.00    -0.116 S 
BRANCH  23  24
ATOM     24  C   UNL     1       2.780  -8.685  -2.483  0.00  0.00    +0.146 C 
BRANCH  24  25
ATOM     25  C   UNL     1       3.074  -9.340  -3.808  0.00  0.00    +0.140 C 
ATOM     26  O   UNL     1       3.561 -10.445  -3.840  0.00  0.00    -0.297 OA
ATOM     27  C   UNL     1       2.760  -8.617  -5.092  0.00  0.00    +0.087 C 
ENDBRANCH  24  25
ENDBRANCH  23  24
ENDBRANCH   4  23
TORSDOF 6
