REMARK  Name = ZINC10846740
REMARK  5 active torsions:
REMARK  status: ('A' for Active; 'I' for Inactive)
REMARK    1  A    between atoms: C_13  and  N_17
REMARK    2  A    between atoms: C_18  and  C_20
REMARK    3  A    between atoms: C_20  and  N_21
REMARK    4  A    between atoms: N_21  and  C_22
REMARK    5  A    between atoms: C_27  and  C_28
REMARK                            x       y       z     vdW  Elec       q    Type
REMARK                         _______ _______ _______ _____ _____    ______ ____
ROOT
ATOM      1  N   UNL     1       2.434   5.478  -0.019  0.00  0.00    -0.284 N 
ATOM      2  C   UNL     1       3.595   6.156   0.082  0.00  0.00    +0.234 C 
ATOM      3  O   UNL     1       4.649   5.558   0.072  0.00  0.00    -0.274 OA
ATOM      4  H   UNL     1       1.595   5.961  -0.092  0.00  0.00    +0.155 HD
ENDROOT
BRANCH   1  17
ATOM      5  C   UNL     1      -2.863   1.923  -3.131  0.00  0.00    +0.001 A 
ATOM      6  C   UNL     1      -2.878   3.306  -3.139  0.00  0.00    +0.001 A 
ATOM      7  C   UNL     1      -1.864   4.021  -2.525  0.00  0.00    +0.012 A 
ATOM      8  C   UNL     1      -0.812   3.347  -1.913  0.00  0.00    +0.033 A 
ATOM      9  C   UNL     1      -0.794   1.941  -1.911  0.00  0.00    +0.033 A 
ATOM     10  C   UNL     1      -1.828   1.237  -2.521  0.00  0.00    +0.012 A 
ATOM     11  C   UNL     1       0.316   1.216  -1.256  0.00  0.00    +0.195 C 
ATOM     12  O   UNL     1       0.330   0.001  -1.250  0.00  0.00    -0.287 OA
ATOM     13  C   UNL     1       1.412   1.973  -0.616  0.00  0.00    +0.035 A 
ATOM     14  C   UNL     1       2.464   1.300  -0.004  0.00  0.00    +0.012 A 
ATOM     15  C   UNL     1       3.490   2.012   0.596  0.00  0.00    +0.003 A 
ATOM     16  C   UNL     1       3.482   3.392   0.592  0.00  0.00    +0.024 A 
ATOM     17  C   UNL     1       2.438   4.088  -0.017  0.00  0.00    +0.045 A 
ATOM     18  C   UNL     1       1.395   3.380  -0.625  0.00  0.00    +0.054 A 
ATOM     19  C   UNL     1       0.285   4.102  -1.272  0.00  0.00    +0.196 C 
ATOM     20  O   UNL     1       0.272   5.318  -1.278  0.00  0.00    -0.287 OA
ENDBRANCH   1  17
BRANCH   2  21
ATOM     21  C   UNL     1       3.582   7.658   0.207  0.00  0.00    +0.198 C 
BRANCH  21  22
ATOM     22  N   UNL     1       4.958   8.152   0.300  0.00  0.00    -0.335 N 
ATOM     23  H   UNL     1       5.700   7.528   0.276  0.00  0.00    +0.147 HD
BRANCH  22  24
ATOM     24  C   UNL     1       5.200   9.514   0.423  0.00  0.00    +0.040 A 
ATOM     25  C   UNL     1       4.140  10.402   0.559  0.00  0.00    +0.024 A 
ATOM     26  C   UNL     1       4.383  11.754   0.686  0.00  0.00    +0.002 A 
ATOM     27  C   UNL     1       5.682  12.238   0.669  0.00  0.00    +0.001 A 
ATOM     28  C   UNL     1       6.745  11.374   0.529  0.00  0.00    +0.015 A 
ATOM     29  C   UNL     1       6.516  10.001   0.405  0.00  0.00    +0.057 A 
BRANCH  29  30
ATOM     30  C   UNL     1       7.649   9.070   0.254  0.00  0.00    +0.243 C 
ATOM     31  O   UNL     1       7.453   7.870   0.241  0.00  0.00    -0.270 OA
ATOM     32  N   UNL     1       8.903   9.549   0.131  0.00  0.00    -0.325 N 
ATOM     33  H   UNL     1       9.060  10.507   0.142  0.00  0.00    +0.145 HD
ATOM     34  H   UNL     1       9.649   8.937   0.033  0.00  0.00    +0.145 HD
ENDBRANCH  29  30
ENDBRANCH  22  24
ENDBRANCH  21  22
ENDBRANCH   2  21
TORSDOF 5
