REMARK  Name = ZINC20681868
REMARK  7 active torsions:
REMARK  status: ('A' for Active; 'I' for Inactive)
REMARK    1  A    between atoms: C_4  and  C_7
REMARK    2  A    between atoms: C_7  and  N_8
REMARK    3  A    between atoms: N_8  and  S_9
REMARK    4  A    between atoms: S_9  and  C_12
REMARK    5  A    between atoms: C_25  and  C_28
REMARK    6  A    between atoms: C_31  and  O_35
REMARK    7  A    between atoms: C_33  and  O_34
REMARK                            x       y       z     vdW  Elec       q    Type
REMARK                         _______ _______ _______ _____ _____    ______ ____
ROOT
ATOM      1  C   UNL     1       3.452   3.761  -0.042  0.00  0.00    +0.106 A 
ATOM      2  C   UNL     1       2.215   4.378   0.006  0.00  0.00    +0.030 A 
ATOM      3  C   UNL     1       1.063   3.620   0.032  0.00  0.00    +0.025 A 
ATOM      4  C   UNL     1       1.135   2.232   0.011  0.00  0.00    +0.031 A 
ATOM      5  C   UNL     1       2.390   1.615  -0.026  0.00  0.00    -0.018 A 
ATOM      6  C   UNL     1       3.535   2.381  -0.058  0.00  0.00    +0.034 A 
ATOM      7  C   UNL     1       2.424   0.136  -0.024  0.00  0.00    +0.049 C 
ATOM      8  C   UNL     1       3.549  -0.654  -0.612  0.00  0.00    -0.023 C 
ATOM      9  C   UNL     1       3.073  -1.791  -1.105  0.00  0.00    -0.030 C 
ATOM     10  C   UNL     1       1.559  -1.859  -0.895  0.00  0.00    +0.033 C 
ATOM     11  C   UNL     1       1.189  -0.371  -0.829  0.00  0.00    +0.029 C 
ATOM     12  C   UNL     1      -0.020   0.006   0.008  0.00  0.00    +0.108 C 
ATOM     13  N   UNL     1      -0.049   1.484   0.022  0.00  0.00    -0.336 N 
ATOM     14  H   UNL     1      -1.012   2.016   0.043  0.00  0.00    +0.147 HD
ENDROOT
BRANCH  12  15
ATOM     15  C   UNL     1       0.127  -0.526   1.410  0.00  0.00    +0.015 A 
ATOM     16  C   UNL     1       0.712   0.256   2.387  0.00  0.00    +0.012 A 
ATOM     17  C   UNL     1       0.848  -0.229   3.674  0.00  0.00    +0.046 A 
ATOM     18  C   UNL     1       0.396  -1.502   3.988  0.00  0.00    +0.120 A 
ATOM     19  C   UNL     1      -0.192  -2.289   3.010  0.00  0.00    +0.091 A 
ATOM     20  C   UNL     1      -0.332  -1.798   1.721  0.00  0.00    +0.125 A 
BRANCH  20  21
ATOM     21  O   UNL     1      -0.913  -2.565   0.761  0.00  0.00    -0.506 OA
ATOM     22  H   UNL     1      -1.276  -3.574   1.007  0.00  0.00    +0.292 HD
ENDBRANCH  20  21
BRANCH  18  23
ATOM     23  O   UNL     1       0.530  -1.979   5.254  0.00  0.00    -0.507 OA
ATOM     24  H   UNL     1       0.172  -2.989   5.503  0.00  0.00    +0.292 HD
ENDBRANCH  18  23
ENDBRANCH  12  15
BRANCH   1  25
ATOM     25  S   UNL     1       4.921   4.733  -0.082  0.00  0.00    +0.059 S 
ATOM     26  O   UNL     1       5.927   3.924  -0.675  0.00  0.00    -0.153 OA
ATOM     27  O   UNL     1       4.555   6.001  -0.609  0.00  0.00    -0.153 OA
BRANCH  25  28
ATOM     28  N   UNL     1       5.383   4.988   1.488  0.00  0.00    -0.186 NA
ATOM     29  H   UNL     1       5.218   5.976   1.942  0.00  0.00    +0.148 HD
BRANCH  28  30
ATOM     30  C   UNL     1       5.799   3.858   2.321  0.00  0.00    +0.141 C 
BRANCH  30  34
ATOM     31  C   UNL     1       7.804   5.317   5.800  0.00  0.00    +0.000 A 
ATOM     32  C   UNL     1       6.435   5.126   5.820  0.00  0.00    +0.000 A 
ATOM     33  C   UNL     1       5.786   4.654   4.694  0.00  0.00    +0.005 A 
ATOM     34  C   UNL     1       6.506   4.372   3.549  0.00  0.00    -0.032 A 
ATOM     35  C   UNL     1       7.876   4.558   3.530  0.00  0.00    +0.005 A 
ATOM     36  C   UNL     1       8.524   5.034   4.655  0.00  0.00    +0.000 A 
ENDBRANCH  30  34
ENDBRANCH  28  30
ENDBRANCH  25  28
ENDBRANCH   1  25
TORSDOF 7
