REMARK  Name = ZINC40816222
REMARK  4 active torsions:
REMARK  status: ('A' for Active; 'I' for Inactive)
REMARK    1  A    between atoms: C_1  and  C_2
REMARK    2  A    between atoms: C_6  and  O_24
REMARK    3  A    between atoms: C_7  and  O_23
REMARK    4  A    between atoms: C_13  and  C_15
REMARK                            x       y       z     vdW  Elec       q    Type
REMARK                         _______ _______ _______ _____ _____    ______ ____
ROOT
ATOM      1  C   UNL     1      -0.028   1.358  -0.166  0.00  0.00    +0.033 C 
ATOM      2  C   UNL     1       0.000  -0.168  -0.064  0.00  0.00    +0.104 C 
ATOM      3  C   UNL     1       0.708  -0.739  -1.268  0.00  0.00    -0.020 A 
ATOM      4  C   UNL     1       0.054  -0.677  -2.491  0.00  0.00    +0.055 A 
ATOM      5  C   UNL     1       0.653  -1.173  -3.634  0.00  0.00    +0.159 A 
ATOM      6  C   UNL     1       1.923  -1.737  -3.554  0.00  0.00    +0.158 A 
ATOM      7  C   UNL     1       2.569  -1.799  -2.334  0.00  0.00    +0.053 A 
ATOM      8  C   UNL     1       1.961  -1.305  -1.185  0.00  0.00    -0.037 A 
ATOM      9  C   UNL     1       2.715  -1.434   0.112  0.00  0.00    +0.054 C 
ATOM     10  C   UNL     1       2.176  -0.456   1.154  0.00  0.00    +0.113 C 
ATOM     11  N   UNL     1       0.709  -0.563   1.158  0.00  0.00    -0.290 N 
ATOM     12  C   UNL     1       0.042  -1.006   2.242  0.00  0.00    +0.247 C 
ATOM     13  O   UNL     1       0.656  -1.416   3.207  0.00  0.00    -0.270 OA
ENDROOT
BRANCH  12  14
ATOM     14  C   UNL     1      -1.443  -0.991   2.259  0.00  0.00    +0.047 A 
ATOM     15  C   UNL     1      -2.135   0.043   2.892  0.00  0.00    +0.083 A 
ATOM     16  C   UNL     1      -3.523   0.035   2.894  0.00  0.00    +0.252 A 
ATOM     17  N   UNL     1      -4.205  -0.964   2.289  0.00  0.00    -0.290 N 
ATOM     18  C   UNL     1      -3.557  -1.976   1.669  0.00  0.00    +0.252 A 
ATOM     19  C   UNL     1      -2.169  -2.008   1.636  0.00  0.00    +0.083 A 
ATOM     20  O   UNL     1      -4.258  -2.951   1.079  0.00  0.00    -0.268 OA
ATOM     21  O   UNL     1      -4.192   1.024   3.499  0.00  0.00    -0.268 OA
ATOM     22  H   UNL     1      -5.175  -0.955   2.300  0.00  0.00    +0.172 HD
ENDBRANCH  12  14
BRANCH   6  23
ATOM     23  O   UNL     1       2.526  -2.224  -4.672  0.00  0.00    -0.503 OA
ATOM     24  H   UNL     1       3.062  -1.573  -5.146  0.00  0.00    +0.292 HD
ENDBRANCH   6  23
BRANCH   5  25
ATOM     25  O   UNL     1       0.006  -1.111  -4.829  0.00  0.00    -0.503 OA
ATOM     26  H   UNL     1       0.179  -0.302  -5.329  0.00  0.00    +0.292 HD
ENDBRANCH   5  25
TORSDOF 3
