REMARK  Name = ZINC14270178
REMARK  12 active torsions:
REMARK  status: ('A' for Active; 'I' for Inactive)
REMARK    1  A    between atoms: C_1  and  C_2
REMARK    2  A    between atoms: C_4  and  C_34
REMARK    3  A    between atoms: C_9  and  C_11
REMARK    4  A    between atoms: C_14  and  N_18
REMARK    5  A    between atoms: C_16  and  O_17
REMARK    6  A    between atoms: N_18  and  C_19
REMARK    7  A    between atoms: C_19  and  N_21
REMARK    8  A    between atoms: C_22  and  C_24
REMARK    9  A    between atoms: C_27  and  C_30
REMARK   10  A    between atoms: C_30  and  C_31
REMARK   11  A    between atoms: C_30  and  C_32
REMARK   12  A    between atoms: C_30  and  C_33
REMARK                            x       y       z     vdW  Elec       q    Type
REMARK                         _______ _______ _______ _____ _____    ______ ____
ROOT
ATOM      1  C   UNL     1       3.728  -8.971   0.229  0.00  0.00    +0.078 A 
ATOM      2  C   UNL     1       4.352  -8.326  -0.842  0.00  0.00    +0.018 A 
ATOM      3  C   UNL     1       4.319  -6.953  -0.933  0.00  0.00    +0.024 A 
ATOM      4  C   UNL     1       3.664  -6.203   0.040  0.00  0.00    +0.036 A 
ATOM      5  C   UNL     1       3.045  -6.834   1.111  0.00  0.00    +0.069 A 
ATOM      6  C   UNL     1       3.069  -8.214   1.208  0.00  0.00    +0.131 A 
ENDROOT
BRANCH   1  15
ATOM      7  C   UNL     1       3.123 -16.120   1.951  0.00  0.00    +0.044 C 
ATOM      8  C   UNL     1       3.493 -14.853   1.224  0.00  0.00    -0.048 A 
ATOM      9  C   UNL     1       4.229 -14.922   0.051  0.00  0.00    +0.010 A 
ATOM     10  C   UNL     1       4.575 -13.771  -0.627  0.00  0.00    -0.006 A 
ATOM     11  C   UNL     1       4.187 -12.535  -0.133  0.00  0.00    +0.159 A 
ATOM     12  C   UNL     1       3.442 -12.461   1.055  0.00  0.00    +0.110 A 
ATOM     13  C   UNL     1       3.099 -13.635   1.730  0.00  0.00    +0.035 A 
ATOM     14  N   UNL     1       3.210 -11.143   1.289  0.00  0.00    -0.209 NA
ATOM     15  C   UNL     1       3.762 -10.442   0.329  0.00  0.00    +0.232 A 
ATOM     16  O   UNL     1       4.361 -11.262  -0.556  0.00  0.00    -0.435 OA
ATOM     17  C   UNL     1       5.374 -13.856  -1.902  0.00  0.00    +0.047 C 
ENDBRANCH   1  15
BRANCH   6  18
ATOM     18  O   UNL     1       2.460  -8.834   2.252  0.00  0.00    -0.506 OA
ATOM     19  H   UNL     1       3.032  -8.964   3.020  0.00  0.00    +0.292 HD
ENDBRANCH   6  18
BRANCH   4  20
ATOM     20  N   UNL     1       3.635  -4.811  -0.058  0.00  0.00    -0.296 N 
ATOM     21  H   UNL     1       4.431  -4.327  -0.324  0.00  0.00    +0.154 HD
BRANCH  20  22
ATOM     22  C   UNL     1       2.499  -4.140   0.218  0.00  0.00    +0.141 C 
ATOM     23  S   UNL     1       1.056  -4.999   0.551  0.00  0.00    -0.018 S 
BRANCH  22  24
ATOM     24  N   UNL     1       2.499  -2.792   0.233  0.00  0.00    -0.264 N 
ATOM     25  C   UNL     1       1.363  -2.121   0.508  0.00  0.00    +0.250 C 
ATOM     26  O   UNL     1       0.339  -2.731   0.744  0.00  0.00    -0.270 OA
ATOM     27  H   UNL     1       3.316  -2.305   0.044  0.00  0.00    +0.157 HD
BRANCH  25  28
ATOM     28  C   UNL     1       1.363  -0.643   0.524  0.00  0.00    +0.037 A 
ATOM     29  C   UNL     1       0.189   0.055   0.810  0.00  0.00    +0.013 A 
ATOM     30  C   UNL     1       0.196   1.434   0.823  0.00  0.00    +0.005 A 
ATOM     31  C   UNL     1       1.364   2.126   0.554  0.00  0.00    -0.042 A 
ATOM     32  C   UNL     1       2.531   1.440   0.271  0.00  0.00    +0.005 A 
ATOM     33  C   UNL     1       2.538   0.061   0.254  0.00  0.00    +0.013 A 
BRANCH  31  34
ATOM     34  C   UNL     1       1.364   3.633   0.571  0.00  0.00    -0.013 C 
ATOM     35  C   UNL     1       0.950   4.128   1.958  0.00  0.00    +0.015 C 
ATOM     36  C   UNL     1       2.768   4.146   0.245  0.00  0.00    +0.015 C 
ATOM     37  C   UNL     1       0.375   4.154  -0.473  0.00  0.00    +0.015 C 
ENDBRANCH  31  34
ENDBRANCH  25  28
ENDBRANCH  22  24
ENDBRANCH  20  22
ENDBRANCH   4  20
TORSDOF 7
