REMARK  Name = ZINC06974699
REMARK  4 active torsions:
REMARK  status: ('A' for Active; 'I' for Inactive)
REMARK    1  A    between atoms: C_4  and  N_11
REMARK    2  A    between atoms: C_5  and  C_7
REMARK    3  A    between atoms: C_15  and  N_19
REMARK    4  A    between atoms: N_19  and  C_20
REMARK                            x       y       z     vdW  Elec       q    Type
REMARK                         _______ _______ _______ _____ _____    ______ ____
ROOT
ATOM      1  N   UNL     1       3.624  -0.652  -0.037  0.00  0.00    -0.208 N 
ATOM      2  C   UNL     1       4.247  -0.994  -1.172  0.00  0.00    +0.228 C 
ATOM      3  O   UNL     1       3.845  -0.763  -2.292  0.00  0.00    -0.275 OA
ATOM      4  C   UNL     1       5.535  -1.714  -0.834  0.00  0.00    +0.128 C 
ATOM      5  C   UNL     1       5.547  -1.730   0.708  0.00  0.00    +0.166 C 
ATOM      6  C   UNL     1       4.268  -1.011   1.080  0.00  0.00    +0.247 C 
ATOM      7  O   UNL     1       3.886  -0.797   2.210  0.00  0.00    -0.273 OA
ENDROOT
BRANCH   1  11
ATOM      8  C   UNL     1      -0.017   1.378   0.010  0.00  0.00    +0.001 A 
ATOM      9  C   UNL     1       1.170   2.089   0.002  0.00  0.00    +0.002 A 
ATOM     10  C   UNL     1       2.377   1.419  -0.013  0.00  0.00    +0.024 A 
ATOM     11  C   UNL     1       2.399   0.030  -0.021  0.00  0.00    +0.056 A 
ATOM     12  C   UNL     1       1.207  -0.680  -0.013  0.00  0.00    +0.077 A 
ATOM     13  C   UNL     1       0.002  -0.004   0.002  0.00  0.00    +0.014 A 
BRANCH  12  14
ATOM     14  C   UNL     1       1.226  -2.187  -0.022  0.00  0.00    +0.419 C 
ATOM     15  F   UNL     1      -0.086  -2.670  -0.011  0.00  0.00    -0.166 F 
ATOM     16  F   UNL     1       1.880  -2.638  -1.173  0.00  0.00    -0.166 F 
ATOM     17  F   UNL     1       1.903  -2.651   1.111  0.00  0.00    -0.166 F 
ENDBRANCH  12  14
ENDBRANCH   1  11
BRANCH   5  18
ATOM     18  N   UNL     1       5.539  -3.106   1.210  0.00  0.00    -0.332 N 
ATOM     19  H   UNL     1       5.174  -3.819   0.664  0.00  0.00    +0.147 HD
BRANCH  18  20
ATOM     20  C   UNL     1       6.058  -3.390   2.475  0.00  0.00    +0.030 A 
ATOM     21  C   UNL     1       6.577  -2.368   3.261  0.00  0.00    +0.023 A 
ATOM     22  C   UNL     1       7.089  -2.652   4.512  0.00  0.00    +0.005 A 
ATOM     23  C   UNL     1       7.087  -3.951   4.984  0.00  0.00    +0.038 A 
ATOM     24  C   UNL     1       6.571  -4.973   4.204  0.00  0.00    +0.125 A 
ATOM     25  C   UNL     1       6.052  -4.694   2.953  0.00  0.00    +0.061 A 
ATOM     26  F   UNL     1       6.571  -6.242   4.668  0.00  0.00    -0.205 F 
ENDBRANCH  18  20
ENDBRANCH   5  18
TORSDOF 4
