REMARK  Name = ZINC36247994
REMARK  4 active torsions:
REMARK  status: ('A' for Active; 'I' for Inactive)
REMARK    1  A    between atoms: N_7  and  C_15
REMARK    2  A    between atoms: C_15  and  C_16
REMARK    3  A    between atoms: C_16  and  C_17
REMARK    4  A    between atoms: N_19  and  C_20
REMARK                            x       y       z     vdW  Elec       q    Type
REMARK                         _______ _______ _______ _____ _____    ______ ____
ROOT
ATOM      1  C   UNL     1       0.741  -3.036  -2.212  0.00  0.00    +0.115 C 
ENDROOT
BRANCH   1   2
ATOM      2  C   UNL     1      -0.294  -3.793  -3.003  0.00  0.00    +0.219 C 
ATOM      3  O   UNL     1      -1.339  -4.117  -2.480  0.00  0.00    -0.275 OA
ATOM      4  N   UNL     1      -0.058  -4.110  -4.292  0.00  0.00    -0.285 N 
ATOM      5  H   UNL     1       0.747  -3.794  -4.729  0.00  0.00    +0.155 HD
BRANCH   4   6
ATOM      6  C   UNL     1      -0.977  -4.896  -4.999  0.00  0.00    +0.035 A 
ATOM      7  C   UNL     1      -0.525  -5.811  -5.944  0.00  0.00    +0.025 A 
ATOM      8  C   UNL     1      -1.425  -6.588  -6.644  0.00  0.00    +0.029 A 
ATOM      9  C   UNL     1      -2.785  -6.458  -6.404  0.00  0.00    +0.067 A 
ATOM     10  C   UNL     1      -3.242  -5.541  -5.456  0.00  0.00    +0.069 A 
ATOM     11  C   UNL     1      -2.335  -4.765  -4.751  0.00  0.00    +0.051 A 
ATOM     12  N   UNL     1      -4.632  -5.638  -5.439  0.00  0.00    -0.306 N 
ATOM     13  H   UNL     1      -5.230  -5.121  -4.877  0.00  0.00    +0.170 HD
ATOM     14  C   UNL     1      -5.004  -6.571  -6.335  0.00  0.00    +0.325 A 
ATOM     15  O   UNL     1      -6.152  -6.899  -6.569  0.00  0.00    -0.247 OA
ATOM     16  N   UNL     1      -3.913  -7.084  -6.935  0.00  0.00    -0.306 N 
ATOM     17  H   UNL     1      -3.912  -7.772  -7.619  0.00  0.00    +0.170 HD
ENDBRANCH   4   6
ENDBRANCH   1   2
BRANCH   1  18
ATOM     18  C   UNL     1       0.228  -2.806  -0.789  0.00  0.00    +0.120 C 
BRANCH  18  25
ATOM     19  C   UNL     1      -0.046   1.380   0.010  0.00  0.00    +0.002 A 
ATOM     20  C   UNL     1       1.131   2.105  -0.001  0.00  0.00    +0.001 A 
ATOM     21  C   UNL     1       2.350   1.448  -0.019  0.00  0.00    +0.017 A 
ATOM     22  C   UNL     1       2.384   0.067  -0.027  0.00  0.00    +0.034 A 
ATOM     23  C   UNL     1       1.198  -0.671  -0.016  0.00  0.00    +0.048 A 
ATOM     24  C   UNL     1      -0.017  -0.004   0.002  0.00  0.00    +0.024 A 
ATOM     25  N   UNL     1       1.235  -2.070  -0.020  0.00  0.00    -0.298 N 
ATOM     26  C   UNL     1       2.205  -2.785   0.689  0.00  0.00    +0.048 A 
ATOM     27  C   UNL     1       1.873  -3.972   1.325  0.00  0.00    +0.024 A 
ATOM     28  C   UNL     1       2.838  -4.674   2.026  0.00  0.00    +0.002 A 
ATOM     29  C   UNL     1       4.135  -4.201   2.098  0.00  0.00    +0.001 A 
ATOM     30  C   UNL     1       4.477  -3.017   1.466  0.00  0.00    +0.017 A 
ATOM     31  C   UNL     1       3.517  -2.312   0.765  0.00  0.00    +0.034 A 
ATOM     32  S   UNL     1       3.923  -0.799  -0.050  0.00  0.00    -0.086 S 
ENDBRANCH  18  25
ENDBRANCH   1  18
TORSDOF 4
