REMARK  Name = ZINC40543525
REMARK  4 active torsions:
REMARK  status: ('A' for Active; 'I' for Inactive)
REMARK    1  A    between atoms: C_3  and  S_19
REMARK    2  A    between atoms: C_6  and  N_7
REMARK    3  A    between atoms: C_14  and  C_16
REMARK    4  A    between atoms: S_19  and  N_22
REMARK                            x       y       z     vdW  Elec       q    Type
REMARK                         _______ _______ _______ _____ _____    ______ ____
ROOT
ATOM      1  C   UNL     1       1.071  -0.453  -0.768  0.00  0.00    +0.025 A 
ATOM      2  C   UNL     1       2.255   0.259  -0.781  0.00  0.00    +0.030 A 
ATOM      3  C   UNL     1       2.376   1.417  -0.035  0.00  0.00    +0.105 A 
ATOM      4  C   UNL     1       1.313   1.867   0.726  0.00  0.00    +0.030 A 
ATOM      5  C   UNL     1       0.126   1.160   0.743  0.00  0.00    +0.025 A 
ATOM      6  C   UNL     1       0.002  -0.004  -0.005  0.00  0.00    +0.035 A 
ENDROOT
BRANCH   6   7
ATOM      7  N   UNL     1      -1.199  -0.722   0.010  0.00  0.00    -0.269 N 
ATOM      8  C   UNL     1      -1.183  -2.065  -0.099  0.00  0.00    +0.308 C 
ATOM      9  O   UNL     1      -0.123  -2.661  -0.113  0.00  0.00    -0.252 OA
ATOM     10  N   UNL     1      -2.341  -2.748  -0.193  0.00  0.00    -0.262 N 
ATOM     11  C   UNL     1      -3.651  -2.062  -0.186  0.00  0.00    +0.179 C 
ATOM     12  S   UNL     1      -4.720  -3.321  -1.014  0.00  0.00    -0.139 S 
ATOM     13  C   UNL     1      -3.787  -4.804  -0.425  0.00  0.00    +0.105 C 
ATOM     14  C   UNL     1      -2.367  -4.196  -0.312  0.00  0.00    +0.201 C 
ATOM     15  H   UNL     1      -2.044  -0.253   0.099  0.00  0.00    +0.156 HD
BRANCH  14  16
ATOM     16  C   UNL     1      -1.694  -4.787   0.900  0.00  0.00    +0.377 C 
ATOM     17  O   UNL     1      -1.731  -4.198   1.966  0.00  0.00    -0.244 OA
ATOM     18  O   UNL     1      -1.111  -5.855   0.813  0.00  0.00    -0.244 OA
ENDBRANCH  14  16
ENDBRANCH   6   7
BRANCH   3  19
ATOM     19  S   UNL     1       3.888   2.321  -0.055  0.00  0.00    +0.056 S 
ATOM     20  O   UNL     1       3.928   3.071   1.152  0.00  0.00    -0.153 OA
ATOM     21  O   UNL     1       4.908   1.400  -0.413  0.00  0.00    -0.153 OA
BRANCH  19  22
ATOM     22  N   UNL     1       3.786   3.419  -1.291  0.00  0.00    -0.204 NA
ATOM     23  H   UNL     1       2.986   3.461  -1.837  0.00  0.00    +0.144 HD
ATOM     24  H   UNL     1       4.527   4.020  -1.468  0.00  0.00    +0.144 HD
ENDBRANCH  19  22
ENDBRANCH   3  19
TORSDOF 4
