REMARK  Name = ZINC03362918
REMARK  6 active torsions:
REMARK  status: ('A' for Active; 'I' for Inactive)
REMARK    1  A    between atoms: C_1  and  C_2
REMARK    2  A    between atoms: N_14  and  C_15
REMARK    3  A    between atoms: C_15  and  C_16
REMARK    4  A    between atoms: C_16  and  C_17
REMARK    5  A    between atoms: C_20  and  S_23
REMARK    6  A    between atoms: S_23  and  N_26
REMARK                            x       y       z     vdW  Elec       q    Type
REMARK                         _______ _______ _______ _____ _____    ______ ____
ROOT
ATOM      1  C   UNL     1      -0.018   1.503   0.010  0.00  0.00    +0.088 C 
ATOM      2  C   UNL     1       0.002  -0.004   0.002  0.00  0.00    +0.129 A 
ATOM      3  N   UNL     1       0.005  -0.643  -1.154  0.00  0.00    -0.217 NA
ATOM      4  C   UNL     1       0.022  -1.965  -1.229  0.00  0.00    +0.131 A 
ATOM      5  C   UNL     1       0.038  -2.723  -0.026  0.00  0.00    +0.051 A 
ATOM      6  C   UNL     1       0.059  -4.186   0.134  0.00  0.00    -0.025 A 
ATOM      7  C   UNL     1       0.070  -4.659   1.390  0.00  0.00    -0.004 A 
ATOM      8  S   UNL     1       0.058  -3.216   2.429  0.00  0.00    -0.073 S 
ATOM      9  C   UNL     1       0.034  -1.974   1.165  0.00  0.00    +0.114 A 
ATOM     10  N   UNL     1       0.022  -0.654   1.149  0.00  0.00    -0.225 NA
ATOM     11  C   UNL     1       0.085  -6.164   1.431  0.00  0.00    +0.043 C 
ATOM     12  C   UNL     1      -0.353  -6.594   0.014  0.00  0.00    +0.010 C 
ATOM     13  C   UNL     1       0.074  -5.377  -0.829  0.00  0.00    +0.037 C 
ATOM     14  N   UNL     1       0.025  -2.598  -2.458  0.00  0.00    -0.328 N 
ATOM     15  H   UNL     1       0.037  -3.567  -2.505  0.00  0.00    +0.147 HD
ENDROOT
BRANCH  14  16
ATOM     16  C   UNL     1       0.008  -1.807  -3.691  0.00  0.00    +0.107 C 
BRANCH  16  17
ATOM     17  C   UNL     1       0.014  -2.744  -4.900  0.00  0.00    +0.054 C 
BRANCH  17  18
ATOM     18  C   UNL     1      -0.003  -1.930  -6.168  0.00  0.00    -0.046 A 
ATOM     19  C   UNL     1      -1.208  -1.567  -6.740  0.00  0.00    +0.005 A 
ATOM     20  C   UNL     1      -1.224  -0.820  -7.903  0.00  0.00    +0.029 A 
ATOM     21  C   UNL     1      -0.035  -0.435  -8.493  0.00  0.00    +0.105 A 
ATOM     22  C   UNL     1       1.170  -0.797  -7.920  0.00  0.00    +0.029 A 
ATOM     23  C   UNL     1       1.186  -1.540  -6.755  0.00  0.00    +0.005 A 
BRANCH  21  24
ATOM     24  S   UNL     1      -0.056   0.516  -9.976  0.00  0.00    +0.056 S 
ATOM     25  O   UNL     1       1.187   0.284 -10.624  0.00  0.00    -0.153 OA
ATOM     26  O   UNL     1      -1.303   0.260 -10.606  0.00  0.00    -0.153 OA
BRANCH  24  27
ATOM     27  N   UNL     1      -0.068   2.112  -9.534  0.00  0.00    -0.204 NA
ATOM     28  H   UNL     1       0.341   2.778 -10.108  0.00  0.00    +0.144 HD
ATOM     29  H   UNL     1      -0.485   2.381  -8.700  0.00  0.00    +0.144 HD
ENDBRANCH  24  27
ENDBRANCH  21  24
ENDBRANCH  17  18
ENDBRANCH  16  17
ENDBRANCH  14  16
TORSDOF 5
