REMARK  Name = ZINC17021139
REMARK  8 active torsions:
REMARK  status: ('A' for Active; 'I' for Inactive)
REMARK    1  A    between atoms: C_1  and  C_2
REMARK    2  A    between atoms: N_7  and  S_8
REMARK    3  A    between atoms: S_8  and  C_11
REMARK    4  A    between atoms: C_14  and  N_17
REMARK    5  A    between atoms: N_18  and  C_19
REMARK    6  A    between atoms: C_22  and  S_26
REMARK    7  A    between atoms: C_24  and  O_25
REMARK    8  A    between atoms: S_26  and  C_27
REMARK                            x       y       z     vdW  Elec       q    Type
REMARK                         _______ _______ _______ _____ _____    ______ ____
ROOT
ATOM      1  C   UNL     1       0.002  -0.004   0.002  0.00  0.00    +0.109 A 
ATOM      2  C   UNL     1      -0.017   1.380   0.010  0.00  0.00    +0.031 A 
ATOM      3  C   UNL     1       1.166   2.089   0.002  0.00  0.00    +0.031 A 
ATOM      4  C   UNL     1       2.385   1.407  -0.013  0.00  0.00    +0.086 A 
ATOM      5  C   UNL     1       2.397   0.009  -0.020  0.00  0.00    +0.031 A 
ATOM      6  C   UNL     1       1.206  -0.686  -0.013  0.00  0.00    +0.031 A 
ENDROOT
BRANCH   1   7
ATOM      7  S   UNL     1      -1.514  -0.901   0.012  0.00  0.00    +0.074 S 
ATOM      8  O   UNL     1      -1.224  -2.183   0.553  0.00  0.00    -0.150 OA
ATOM      9  O   UNL     1      -2.493  -0.040   0.577  0.00  0.00    -0.150 OA
BRANCH   7  16
ATOM     10  C   UNL     1       0.660  -4.132  -5.416  0.00  0.00    +0.075 C 
ATOM     11  C   UNL     1       0.100  -3.374  -4.239  0.00  0.00    +0.101 A 
ATOM     12  N   UNL     1       0.557  -3.264  -3.009  0.00  0.00    -0.145 NA
ATOM     13  N   UNL     1      -0.037  -2.582  -2.130  0.00  0.00    -0.125 NA
ATOM     14  C   UNL     1      -1.163  -1.932  -2.392  0.00  0.00    +0.201 A 
ATOM     15  S   UNL     1      -1.379  -2.374  -4.114  0.00  0.00    -0.035 S 
ATOM     16  N   UNL     1      -1.951  -1.142  -1.567  0.00  0.00    -0.192 N 
ATOM     17  H   UNL     1      -2.757  -0.731  -1.916  0.00  0.00    +0.176 HD
ENDBRANCH   7  16
ENDBRANCH   1   7
BRANCH   4  18
ATOM     18  N   UNL     1       3.563   2.103  -0.019  0.00  0.00    -0.149 NA
ATOM     19  N   UNL     1       3.549   3.393  -0.013  0.00  0.00    -0.140 NA
BRANCH  19  20
ATOM     20  C   UNL     1       4.718   4.085  -0.019  0.00  0.00    +0.187 A 
ATOM     21  C   UNL     1       4.727   5.497  -0.018  0.00  0.00    +0.152 A 
ATOM     22  N   UNL     1       5.894   6.131  -0.019  0.00  0.00    -0.205 NA
ATOM     23  C   UNL     1       7.036   5.457  -0.032  0.00  0.00    +0.193 A 
ATOM     24  N   UNL     1       7.073   4.131  -0.039  0.00  0.00    -0.185 NA
ATOM     25  C   UNL     1       5.957   3.415  -0.034  0.00  0.00    +0.246 A 
ATOM     26  N   UNL     1       3.542   6.206  -0.011  0.00  0.00    -0.341 N 
ATOM     27  H   UNL     1       2.695   5.735  -0.006  0.00  0.00    +0.144 HD
ATOM     28  H   UNL     1       3.558   7.176  -0.010  0.00  0.00    +0.144 HD
BRANCH  25  29
ATOM     29  O   UNL     1       6.007   2.062  -0.040  0.00  0.00    -0.491 OA
ATOM     30  H   UNL     1       6.014   1.674  -0.926  0.00  0.00    +0.294 HD
ENDBRANCH  25  29
BRANCH  23  31
ATOM     31  S   UNL     1       8.553   6.352  -0.040  0.00  0.00    -0.089 S 
ATOM     32  C   UNL     1       9.730   4.977  -0.057  0.00  0.00    +0.093 C 
ENDBRANCH  23  31
ENDBRANCH  19  20
ENDBRANCH   4  18
TORSDOF 6
