REMARK  Name = ZINC09072709
REMARK  18 active torsions:
REMARK  status: ('A' for Active; 'I' for Inactive)
REMARK    1  A    between atoms: C_1  and  C_2
REMARK    2  A    between atoms: C_2  and  O_3
REMARK    3  A    between atoms: O_3  and  C_4
REMARK    4  A    between atoms: C_9  and  C_10
REMARK    5  A    between atoms: C_13  and  C_14
REMARK    6  A    between atoms: C_13  and  O_26
REMARK    7  A    between atoms: C_17  and  O_21
REMARK    8  A    between atoms: C_18  and  C_20
REMARK    9  A    between atoms: O_21  and  C_22
REMARK   10  A    between atoms: C_22  and  C_23
REMARK   11  A    between atoms: C_23  and  C_24
REMARK   12  A    between atoms: C_23  and  C_25
REMARK   13  A    between atoms: N_31  and  C_32
REMARK   14  A    between atoms: C_32  and  C_33
REMARK   15  A    between atoms: C_33  and  C_34
REMARK   16  A    between atoms: C_34  and  N_74
REMARK   17  A    between atoms: C_35  and  N_74
REMARK   18  A    between atoms: C_36  and  N_74
REMARK                            x       y       z     vdW  Elec       q    Type
REMARK                         _______ _______ _______ _____ _____    ______ ____
ROOT
ATOM      1  C   UNL     1       1.455  -6.327   0.169  0.00  0.00    +0.148 C 
ATOM      2  C   UNL     1       1.068  -4.883  -0.057  0.00  0.00    +0.071 C 
ATOM      3  C   UNL     1      -0.201  -4.393  -0.298  0.00  0.00    +0.133 C 
ATOM      4  C   UNL     1       2.255  -4.142   0.035  0.00  0.00    +0.249 C 
ATOM      5  O   UNL     1       2.354  -2.934  -0.086  0.00  0.00    -0.282 OA
ATOM      6  C   UNL     1       3.373  -5.086   0.306  0.00  0.00    +0.288 C 
ATOM      7  O   UNL     1       4.536  -4.767   0.442  0.00  0.00    -0.266 OA
ATOM      8  N   UNL     1       2.906  -6.344   0.378  0.00  0.00    -0.284 N 
ENDROOT
BRANCH   3   9
ATOM      9  C   UNL     1      -0.391  -2.968  -0.611  0.00  0.00    +0.017 A 
ATOM     10  C   UNL     1       0.390  -2.355  -1.599  0.00  0.00    +0.015 A 
ATOM     11  C   UNL     1       0.207  -1.022  -1.888  0.00  0.00    +0.046 A 
ATOM     12  C   UNL     1      -0.750  -0.284  -1.201  0.00  0.00    +0.123 A 
ATOM     13  C   UNL     1      -1.524  -0.886  -0.214  0.00  0.00    -0.008 A 
ATOM     14  C   UNL     1      -1.353  -2.220   0.078  0.00  0.00    +0.018 A 
ATOM     15  C   UNL     1      -2.555  -0.078   0.531  0.00  0.00    +0.047 C 
BRANCH  12  16
ATOM     16  O   UNL     1      -0.926   1.030  -1.490  0.00  0.00    -0.491 OA
BRANCH  16  17
ATOM     17  C   UNL     1      -0.094   1.588  -2.509  0.00  0.00    +0.232 C 
BRANCH  17  18
ATOM     18  C   UNL     1      -0.435   3.068  -2.693  0.00  0.00    +0.020 C 
ATOM     19  C   UNL     1      -0.081   3.835  -1.418  0.00  0.00    +0.010 C 
ATOM     20  C   UNL     1       0.365   3.633  -3.868  0.00  0.00    +0.010 C 
ENDBRANCH  17  18
ENDBRANCH  16  17
ENDBRANCH  12  16
ENDBRANCH   3   9
BRANCH   1  26
ATOM     21  C   UNL     1       0.634  -8.236   1.571  0.00  0.00    +0.126 A 
ATOM     22  C   UNL     1      -0.016  -8.730   2.692  0.00  0.00    +0.046 A 
ATOM     23  C   UNL     1      -0.549  -7.857   3.621  0.00  0.00    +0.004 A 
ATOM     24  C   UNL     1      -0.434  -6.492   3.433  0.00  0.00    +0.001 A 
ATOM     25  C   UNL     1       0.219  -5.997   2.320  0.00  0.00    +0.009 A 
ATOM     26  C   UNL     1       0.749  -6.867   1.385  0.00  0.00    +0.019 A 
BRANCH  21  27
ATOM     27  O   UNL     1       1.159  -9.093   0.656  0.00  0.00    -0.492 OA
BRANCH  27  29
ATOM     28  C   UNL     1       1.653 -11.291  -0.219  0.00  0.00    +0.048 C 
ATOM     29  C   UNL     1       1.004 -10.491   0.912  0.00  0.00    +0.225 C 
ENDBRANCH  27  29
ENDBRANCH  21  27
ENDBRANCH   1  26
BRANCH   3  30
ATOM     30  O   UNL     1      -1.266  -5.221  -0.248  0.00  0.00    -0.506 OA
ATOM     31  H   UNL     1      -2.099  -4.705  -0.446  0.00  0.00    +0.292 HD
ENDBRANCH   3  30
BRANCH   8  32
ATOM     32  C   UNL     1       3.715  -7.539   0.632  0.00  0.00    +0.107 C 
BRANCH  32  33
ATOM     33  C   UNL     1       3.913  -7.710   2.139  0.00  0.00    +0.000 C 
BRANCH  33  34
ATOM     34  C   UNL     1       4.865  -8.880   2.399  0.00  0.00    -0.078 C 
BRANCH  34  37
ATOM     35  C   UNL     1       3.805  -9.459   4.498  0.00  0.00    -0.097 C 
ATOM     36  C   UNL     1       6.138  -9.996   4.130  0.00  0.00    -0.097 C 
ATOM     37  N   UNL     1       5.063  -9.018   3.857  0.00  0.00    +0.376 N 
ATOM     38  H   UNL     1       5.334  -8.107   4.245  0.00  0.00    -0.083 HD
ENDBRANCH  34  37
ENDBRANCH  33  34
ENDBRANCH  32  33
ENDBRANCH   8  32
TORSDOF 12
