REMARK  Name = ZINC18063836
REMARK  7 active torsions:
REMARK  status: ('A' for Active; 'I' for Inactive)
REMARK    1  A    between atoms: C_1  and  C_2
REMARK    2  A    between atoms: C_5  and  N_8
REMARK    3  A    between atoms: N_11  and  C_12
REMARK    4  A    between atoms: C_15  and  C_20
REMARK    5  A    between atoms: C_20  and  S_21
REMARK    6  A    between atoms: S_21  and  C_22
REMARK    7  A    between atoms: C_25  and  C_28
REMARK                            x       y       z     vdW  Elec       q    Type
REMARK                         _______ _______ _______ _____ _____    ______ ____
ROOT
ATOM      1  C   UNL     1       0.696  -6.980   2.103  0.00  0.00    +0.234 A 
ATOM      2  N   UNL     1       1.107  -8.269   1.910  0.00  0.00    -0.327 N 
ATOM      3  H   UNL     1       1.133  -8.638   1.013  0.00  0.00    +0.169 HD
ATOM      4  C   UNL     1       1.483  -9.040   2.973  0.00  0.00    +0.034 A 
ATOM      5  C   UNL     1       1.443  -8.516   4.216  0.00  0.00    +0.094 A 
ATOM      6  C   UNL     1       1.011  -7.175   4.387  0.00  0.00    +0.275 A 
ATOM      7  O   UNL     1       0.967  -6.681   5.503  0.00  0.00    -0.266 OA
ATOM      8  N   UNL     1       0.657  -6.452   3.318  0.00  0.00    -0.173 NA
ENDROOT
BRANCH   1  12
ATOM      9  N   UNL     1      -0.401  -4.211   0.160  0.00  0.00    -0.326 N 
ATOM     10  C   UNL     1      -0.179  -5.031   1.231  0.00  0.00    +0.203 C 
ATOM     11  N   UNL     1      -0.483  -4.604   2.493  0.00  0.00    -0.369 N 
ATOM     12  N   UNL     1       0.331  -6.236   1.047  0.00  0.00    -0.179 NA
ATOM     13  H   UNL     1      -0.751  -3.317   0.298  0.00  0.00    +0.169 HD
ATOM     14  H   UNL     1      -0.860  -5.224   3.137  0.00  0.00    +0.159 HD
ATOM     15  H   UNL     1      -0.323  -3.681   2.744  0.00  0.00    +0.159 HD
BRANCH   9  20
ATOM     16  C   UNL     1       0.723  -6.037  -5.092  0.00  0.00    +0.044 C 
ATOM     17  C   UNL     1       0.424  -5.552  -3.696  0.00  0.00    -0.050 A 
ATOM     18  C   UNL     1      -0.049  -6.437  -2.745  0.00  0.00    +0.005 A 
ATOM     19  C   UNL     1      -0.324  -5.995  -1.465  0.00  0.00    +0.026 A 
ATOM     20  C   UNL     1      -0.123  -4.662  -1.135  0.00  0.00    +0.042 A 
ATOM     21  C   UNL     1       0.353  -3.776  -2.093  0.00  0.00    +0.026 A 
ATOM     22  C   UNL     1       0.630  -4.225  -3.369  0.00  0.00    +0.005 A 
ENDBRANCH   9  20
ENDBRANCH   1  12
BRANCH   4  23
ATOM     23  C   UNL     1       1.937 -10.461   2.760  0.00  0.00    +0.127 C 
BRANCH  23  24
ATOM     24  S   UNL     1       0.498 -11.509   2.410  0.00  0.00    -0.119 S 
BRANCH  24  25
ATOM     25  C   UNL     1       1.185 -13.116   2.188  0.00  0.00    +0.008 A 
ATOM     26  C   UNL     1       2.556 -13.310   2.307  0.00  0.00    +0.015 A 
ATOM     27  C   UNL     1       3.091 -14.570   2.133  0.00  0.00    +0.004 A 
ATOM     28  C   UNL     1       2.265 -15.640   1.839  0.00  0.00    -0.050 A 
ATOM     29  C   UNL     1       0.900 -15.451   1.719  0.00  0.00    +0.004 A 
ATOM     30  C   UNL     1       0.357 -14.194   1.898  0.00  0.00    +0.015 A 
ATOM     31  C   UNL     1       2.853 -17.014   1.649  0.00  0.00    +0.044 C 
ENDBRANCH  24  25
ENDBRANCH  23  24
ENDBRANCH   4  23
TORSDOF 5
