REMARK  Name = ZINC48839614
REMARK  5 active torsions:
REMARK  status: ('A' for Active; 'I' for Inactive)
REMARK    1  A    between atoms: C_2  and  S_10
REMARK    2  A    between atoms: C_5  and  C_6
REMARK    3  A    between atoms: S_10  and  N_13
REMARK    4  A    between atoms: N_13  and  C_14
REMARK    5  A    between atoms: C_20  and  N_22
REMARK                            x       y       z     vdW  Elec       q    Type
REMARK                         _______ _______ _______ _____ _____    ______ ____
ROOT
ATOM      1  S   UNL     1       1.371   3.881  -0.037  0.00  0.00    +0.060 S 
ATOM      2  O   UNL     1       2.327   4.430  -0.934  0.00  0.00    -0.153 OA
ATOM      3  O   UNL     1      -0.000   4.255  -0.063  0.00  0.00    -0.153 OA
ENDROOT
BRANCH   1   5
ATOM      4  C   UNL     1       2.278   1.571  -1.166  0.00  0.00    +0.052 A 
ATOM      5  C   UNL     1       1.420   2.134  -0.256  0.00  0.00    +0.127 A 
ATOM      6  C   UNL     1       0.609   1.325   0.476  0.00  0.00    +0.082 A 
ATOM      7  S   UNL     1       0.988  -0.225  -0.051  0.00  0.00    -0.073 S 
ATOM      8  C   UNL     1       2.236   0.184  -1.257  0.00  0.00    +0.103 A 
ATOM      9 BR   UNL     1      -0.656   1.828   1.789  0.00  0.00    -0.041 Br
BRANCH   8  10
ATOM     10  C   UNL     1       2.988  -0.679  -2.092  0.00  0.00    +0.393 C 
ATOM     11  O   UNL     1       3.811  -0.214  -2.870  0.00  0.00    -0.240 OA
ATOM     12  O   UNL     1       2.814  -1.890  -2.035  0.00  0.00    -0.240 OA
ENDBRANCH   8  10
ENDBRANCH   1   5
BRANCH   1  13
ATOM     13  N   UNL     1       1.919   4.200   1.492  0.00  0.00    -0.188 NA
ATOM     14  H   UNL     1       1.321   4.582   2.153  0.00  0.00    +0.148 HD
BRANCH  13  15
ATOM     15  C   UNL     1       3.309   3.904   1.848  0.00  0.00    +0.062 C 
ATOM     16  C   UNL     1       4.162   5.160   1.661  0.00  0.00    +0.019 C 
ATOM     17  C   UNL     1       3.631   6.276   2.564  0.00  0.00    +0.001 C 
ATOM     18  C   UNL     1       3.699   5.826   4.025  0.00  0.00    -0.001 C 
ATOM     19  C   UNL     1       2.846   4.569   4.211  0.00  0.00    -0.015 C 
ATOM     20  C   UNL     1       3.377   3.454   3.309  0.00  0.00    -0.056 C 
BRANCH  20  21
ATOM     21  N   UNL     1       2.558   2.247   3.488  0.00  0.00    +0.381 N 
ATOM     22  H   UNL     1       2.908   1.512   2.893  0.00  0.00    -0.090 HD
ATOM     23  H   UNL     1       2.603   1.951   4.452  0.00  0.00    -0.090 HD
ATOM     24  H   UNL     1       1.601   2.451   3.243  0.00  0.00    -0.090 HD
ENDBRANCH  20  21
ENDBRANCH  13  15
ENDBRANCH   1  13
TORSDOF 5
