REMARK  Name = ZINC20682700
REMARK  8 active torsions:
REMARK  status: ('A' for Active; 'I' for Inactive)
REMARK    1  A    between atoms: C_1  and  O_2
REMARK    2  A    between atoms: O_2  and  C_3
REMARK    3  A    between atoms: C_5  and  C_13
REMARK    4  A    between atoms: C_7  and  O_11
REMARK    5  A    between atoms: C_8  and  O_9
REMARK    6  A    between atoms: O_9  and  C_10
REMARK    7  A    between atoms: O_11  and  C_12
REMARK    8  A    between atoms: C_24  and  C_29
REMARK                            x       y       z     vdW  Elec       q    Type
REMARK                         _______ _______ _______ _____ _____    ______ ____
ROOT
ATOM      1  C   UNL     1       3.693   1.779  -0.033  0.00  0.00    +0.105 C 
ATOM      2  C   UNL     1       3.470   3.061  -0.816  0.00  0.00    +0.029 C 
ATOM      3  C   UNL     1       4.624   4.071  -0.847  0.00  0.00    +0.033 C 
ATOM      4  C   UNL     1       3.850   5.400  -0.982  0.00  0.00    -0.030 C 
ATOM      5  C   UNL     1       2.616   5.268  -0.508  0.00  0.00    -0.023 C 
ATOM      6  C   UNL     1       2.460   3.892   0.030  0.00  0.00    +0.049 C 
ATOM      7  C   UNL     1       1.161   3.186   0.013  0.00  0.00    -0.019 A 
ATOM      8  C   UNL     1      -0.039   3.853   0.018  0.00  0.00    +0.019 A 
ATOM      9  C   UNL     1      -1.241   3.139   0.024  0.00  0.00    +0.037 A 
ATOM     10  C   UNL     1      -1.215   1.741   0.017  0.00  0.00    +0.015 A 
ATOM     11  C   UNL     1      -0.013   1.076   0.008  0.00  0.00    +0.024 A 
ATOM     12  C   UNL     1       1.188   1.783   0.000  0.00  0.00    +0.031 A 
ATOM     13  N   UNL     1       2.390   1.078  -0.035  0.00  0.00    -0.336 N 
ATOM     14  H   UNL     1       2.357  -0.021  -0.064  0.00  0.00    +0.147 HD
ENDROOT
BRANCH   1  17
ATOM     15  C   UNL     1       6.986   0.094  -0.808  0.00  0.00    +0.165 A 
ATOM     16  C   UNL     1       6.019   0.873  -0.190  0.00  0.00    +0.055 A 
ATOM     17  C   UNL     1       4.740   0.932  -0.709  0.00  0.00    -0.020 A 
ATOM     18  C   UNL     1       4.417   0.212  -1.844  0.00  0.00    +0.055 A 
ATOM     19  C   UNL     1       5.379  -0.565  -2.472  0.00  0.00    +0.165 A 
ATOM     20  C   UNL     1       6.666  -0.627  -1.953  0.00  0.00    +0.204 A 
BRANCH  15  22
ATOM     21  C   UNL     1       8.501   0.803   0.882  0.00  0.00    +0.277 C 
ATOM     22  O   UNL     1       8.244   0.036  -0.296  0.00  0.00    -0.491 OA
ENDBRANCH  15  22
BRANCH  20  23
ATOM     23  O   UNL     1       7.612  -1.393  -2.563  0.00  0.00    -0.488 OA
ATOM     24  C   UNL     1       7.723  -2.751  -2.133  0.00  0.00    +0.277 C 
ENDBRANCH  20  23
BRANCH  19  25
ATOM     25  O   UNL     1       5.061  -1.268  -3.592  0.00  0.00    -0.491 OA
ATOM     26  C   UNL     1       3.719  -1.157  -4.069  0.00  0.00    +0.277 C 
ENDBRANCH  19  25
ENDBRANCH   1  17
BRANCH   9  27
ATOM     27  C   UNL     1      -2.530   3.857   0.032  0.00  0.00    +0.242 C 
ATOM     28  O   UNL     1      -2.548   5.072   0.033  0.00  0.00    -0.270 OA
ATOM     29  N   UNL     1      -3.686   3.165   0.038  0.00  0.00    -0.325 N 
ATOM     30  H   UNL     1      -4.647   3.700   0.044  0.00  0.00    +0.145 HD
ATOM     31  H   UNL     1      -3.669   2.065   0.037  0.00  0.00    +0.145 HD
ENDBRANCH   9  27
TORSDOF 5
