REMARK  Name = ZINC36289576
REMARK  9 active torsions:
REMARK  status: ('A' for Active; 'I' for Inactive)
REMARK    1  A    between atoms: C_1  and  C_2
REMARK    2  A    between atoms: C_3  and  N_9
REMARK    3  A    between atoms: N_9  and  C_10
REMARK    4  A    between atoms: C_10  and  N_12
REMARK    5  A    between atoms: N_12  and  N_13
REMARK    6  A    between atoms: C_14  and  C_15
REMARK    7  A    between atoms: C_14  and  C_16
REMARK    8  A    between atoms: C_19  and  S_22
REMARK    9  A    between atoms: S_22  and  N_25
REMARK                            x       y       z     vdW  Elec       q    Type
REMARK                         _______ _______ _______ _____ _____    ______ ____
ROOT
ATOM      1  N   UNL     1       0.161   1.430  -4.729  0.00  0.00    -0.185 NA
ATOM      2  C   UNL     1       0.244   2.088  -5.845  0.00  0.00    +0.063 C 
ATOM      3  C   UNL     1       0.361   1.345  -7.151  0.00  0.00    +0.068 C 
ENDROOT
BRANCH   2   4
ATOM      4  C   UNL     1       0.222   3.563  -5.835  0.00  0.00    -0.002 A 
ATOM      5  C   UNL     1       0.306   4.274  -7.034  0.00  0.00    +0.011 A 
ATOM      6  C   UNL     1       0.285   5.653  -7.017  0.00  0.00    +0.029 A 
ATOM      7  C   UNL     1       0.183   6.332  -5.816  0.00  0.00    +0.105 A 
ATOM      8  C   UNL     1       0.101   5.634  -4.624  0.00  0.00    +0.029 A 
ATOM      9  C   UNL     1       0.113   4.255  -4.626  0.00  0.00    +0.011 A 
BRANCH   7  10
ATOM     10  S   UNL     1       0.159   8.094  -5.803  0.00  0.00    +0.056 S 
ATOM     11  O   UNL     1       0.606   8.497  -4.516  0.00  0.00    -0.153 OA
ATOM     12  O   UNL     1       0.798   8.517  -7.000  0.00  0.00    -0.153 OA
BRANCH  10  13
ATOM     13  N   UNL     1      -1.425   8.562  -5.922  0.00  0.00    -0.204 NA
ATOM     14  H   UNL     1      -1.717   9.394  -5.516  0.00  0.00    +0.144 HD
ATOM     15  H   UNL     1      -2.062   8.005  -6.397  0.00  0.00    +0.144 HD
ENDBRANCH  10  13
ENDBRANCH   7  10
ENDBRANCH   2   4
BRANCH   1  16
ATOM     16  N   UNL     1       0.181   0.030  -4.739  0.00  0.00    -0.218 N 
ATOM     17  H   UNL     1       0.257  -0.449  -5.580  0.00  0.00    +0.176 HD
BRANCH  16  18
ATOM     18  C   UNL     1       0.095  -0.654  -3.581  0.00  0.00    +0.154 C 
ATOM     19  S   UNL     1       0.120  -2.365  -3.592  0.00  0.00    -0.017 S 
BRANCH  18  20
ATOM     20  N   UNL     1      -0.010   0.011  -2.413  0.00  0.00    -0.295 N 
ATOM     21  H   UNL     1      -0.104   0.976  -2.411  0.00  0.00    +0.154 HD
BRANCH  20  24
ATOM     22  C   UNL     1      -1.912   0.706  -0.414  0.00  0.00    +0.047 C 
ATOM     23  C   UNL     1      -0.895  -0.385  -0.201  0.00  0.00    -0.011 A 
ATOM     24  C   UNL     1       0.016  -0.692  -1.204  0.00  0.00    +0.037 A 
ATOM     25  C   UNL     1       0.952  -1.698  -1.004  0.00  0.00    +0.023 A 
ATOM     26  C   UNL     1       0.975  -2.391   0.191  0.00  0.00    +0.003 A 
ATOM     27  C   UNL     1       0.068  -2.084   1.188  0.00  0.00    +0.020 A 
ATOM     28  C   UNL     1      -0.863  -1.078   0.994  0.00  0.00    +0.046 A 
ATOM     29 CL   UNL     1      -1.997  -0.692   2.251  0.00  0.00    -0.083 Cl
ENDBRANCH  20  24
ENDBRANCH  18  20
ENDBRANCH  16  18
ENDBRANCH   1  16
TORSDOF 7
