REMARK  Name = ZINC06625417
REMARK  5 active torsions:
REMARK  status: ('A' for Active; 'I' for Inactive)
REMARK    1  A    between atoms: C_1  and  S_2
REMARK    2  A    between atoms: S_2  and  C_3
REMARK    3  A    between atoms: C_7  and  N_9
REMARK    4  A    between atoms: C_10  and  C_20
REMARK    5  A    between atoms: C_23  and  N_26
REMARK                            x       y       z     vdW  Elec       q    Type
REMARK                         _______ _______ _______ _____ _____    ______ ____
ROOT
ATOM      1  C   UNL     1       2.777   3.837  -0.504  0.00  0.00    +0.190 A 
ATOM      2  N   UNL     1       1.565   3.303  -0.484  0.00  0.00    -0.226 NA
ATOM      3  C   UNL     1       1.363   2.084   0.000  0.00  0.00    +0.055 A 
ATOM      4  C   UNL     1       2.434   1.371   0.488  0.00  0.00    +0.026 A 
ATOM      5  C   UNL     1       3.702   1.957   0.457  0.00  0.00    +0.125 A 
ATOM      6  N   UNL     1       3.833   3.182  -0.042  0.00  0.00    -0.207 NA
ATOM      7  C   UNL     1       2.256  -0.008   1.044  0.00  0.00    +0.087 C 
ATOM      8  C   UNL     1       1.040  -0.685   0.469  0.00  0.00    +0.006 C 
ATOM      9  C   UNL     1       0.002  -0.004   0.002  0.00  0.00    -0.056 C 
ATOM     10  C   UNL     1      -0.018   1.504   0.010  0.00  0.00    +0.087 C 
ATOM     11  C   UNL     1      -1.221  -0.696  -0.554  0.00  0.00    +0.032 C 
ATOM     12  C   UNL     1      -0.897  -2.103  -1.044  0.00  0.00    +0.012 C 
ATOM     13  C   UNL     1      -0.238  -2.881   0.104  0.00  0.00    +0.079 C 
ATOM     14  C   UNL     1       1.046  -2.158   0.441  0.00  0.00    +0.160 C 
ATOM     15  O   UNL     1       2.061  -2.778   0.683  0.00  0.00    -0.292 OA
ENDROOT
BRANCH   7  16
ATOM     16  C   UNL     1       2.107   0.082   2.541  0.00  0.00    -0.035 A 
ATOM     17  C   UNL     1       1.044   0.776   3.089  0.00  0.00    +0.007 A 
ATOM     18  C   UNL     1       0.905   0.854   4.462  0.00  0.00    +0.033 A 
ATOM     19  C   UNL     1       1.834   0.247   5.287  0.00  0.00    +0.126 A 
ATOM     20  C   UNL     1       2.899  -0.442   4.738  0.00  0.00    +0.033 A 
ATOM     21  C   UNL     1       3.035  -0.525   3.365  0.00  0.00    +0.007 A 
BRANCH  19  22
ATOM     22  N   UNL     1       1.688   0.335   6.757  0.00  0.00    +0.056 N 
ATOM     23  O   UNL     1       2.506  -0.200   7.484  0.00  0.00    -0.126 OA
ATOM     24  O   UNL     1       0.749   0.943   7.240  0.00  0.00    -0.126 OA
ENDBRANCH  19  22
ENDBRANCH   7  16
BRANCH   5  25
ATOM     25  N   UNL     1       4.806   1.272   0.940  0.00  0.00    -0.343 N 
ATOM     26  H   UNL     1       4.701   0.379   1.302  0.00  0.00    +0.144 HD
ATOM     27  H   UNL     1       5.682   1.686   0.915  0.00  0.00    +0.144 HD
ENDBRANCH   5  25
BRANCH   1  29
ATOM     28  C   UNL     1       4.777   5.654  -0.935  0.00  0.00    +0.093 C 
ATOM     29  S   UNL     1       2.992   5.458  -1.159  0.00  0.00    -0.089 S 
ENDBRANCH   1  29
TORSDOF 4
