REMARK  Name = ZINC08747370
REMARK  9 active torsions:
REMARK  status: ('A' for Active; 'I' for Inactive)
REMARK    1  A    between atoms: C_1  and  C_2
REMARK    2  A    between atoms: C_3  and  C_23
REMARK    3  A    between atoms: C_7  and  N_22
REMARK    4  A    between atoms: C_9  and  C_11
REMARK    5  A    between atoms: C_11  and  S_12
REMARK    6  A    between atoms: S_12  and  C_13
REMARK    7  A    between atoms: N_18  and  C_19
REMARK    8  A    between atoms: C_19  and  C_20
REMARK    9  A    between atoms: C_19  and  C_21
REMARK                            x       y       z     vdW  Elec       q    Type
REMARK                         _______ _______ _______ _____ _____    ______ ____
ROOT
ATOM      1  C   UNL     1       3.773   1.431   1.567  0.00  0.00    +0.045 C 
ATOM      2  C   UNL     1       2.276   1.544   1.428  0.00  0.00    -0.028 A 
ATOM      3  C   UNL     1       1.678   2.742   1.487  0.00  0.00    -0.008 A 
ATOM      4  S   UNL     1      -0.050   2.356   1.276  0.00  0.00    -0.074 S 
ATOM      5  C   UNL     1       0.079   0.595   1.114  0.00  0.00    +0.114 A 
ATOM      6  C   UNL     1       1.466   0.355   1.229  0.00  0.00    +0.050 A 
ATOM      7  C   UNL     1       1.858  -1.008   1.133  0.00  0.00    +0.128 A 
ATOM      8  N   UNL     1       0.932  -1.935   0.949  0.00  0.00    -0.216 NA
ATOM      9  C   UNL     1      -0.351  -1.637   0.850  0.00  0.00    +0.143 A 
ATOM     10  N   UNL     1      -0.777  -0.391   0.930  0.00  0.00    -0.224 NA
ATOM     11  C   UNL     1       2.314   4.094   1.685  0.00  0.00    +0.052 C 
ENDROOT
BRANCH   7  12
ATOM     12  N   UNL     1       3.192  -1.361   1.231  0.00  0.00    -0.343 N 
ATOM     13  H   UNL     1       3.880  -0.740   0.946  0.00  0.00    +0.144 HD
ATOM     14  H   UNL     1       3.439  -2.230   1.585  0.00  0.00    +0.144 HD
ENDBRANCH   7  12
BRANCH   9  15
ATOM     15  C   UNL     1      -1.351  -2.745   0.640  0.00  0.00    +0.152 C 
BRANCH  15  16
ATOM     16  S   UNL     1      -1.922  -3.357   2.249  0.00  0.00    -0.089 S 
BRANCH  16  17
ATOM     17  C   UNL     1      -3.068  -4.630   1.839  0.00  0.00    +0.160 A 
ATOM     18  N   UNL     1      -3.447  -5.064   0.652  0.00  0.00    -0.133 NA
ATOM     19  N   UNL     1      -4.367  -6.083   0.556  0.00  0.00    -0.125 NA
ATOM     20  C   UNL     1      -4.865  -6.621   1.652  0.00  0.00    +0.183 A 
ATOM     21  S   UNL     1      -4.024  -5.685   2.919  0.00  0.00    -0.025 S 
ATOM     22  N   UNL     1      -5.793  -7.647   1.785  0.00  0.00    -0.320 N 
ATOM     23  H   UNL     1      -6.068  -7.941   2.667  0.00  0.00    +0.148 HD
BRANCH  22  24
ATOM     24  C   UNL     1      -6.357  -8.285   0.592  0.00  0.00    +0.066 C 
ATOM     25  C   UNL     1      -6.819  -9.701   0.940  0.00  0.00    +0.027 C 
ATOM     26  C   UNL     1      -7.550  -7.468   0.093  0.00  0.00    +0.027 C 
ENDBRANCH  22  24
ENDBRANCH  16  17
ENDBRANCH  15  16
ENDBRANCH   9  15
TORSDOF 5
