REMARK  Name = ZINC06674649
REMARK  6 active torsions:
REMARK  status: ('A' for Active; 'I' for Inactive)
REMARK    1  A    between atoms: C_5  and  C_7
REMARK    2  A    between atoms: N_9  and  C_10
REMARK    3  A    between atoms: C_14  and  C_16
REMARK    4  A    between atoms: N_17  and  N_18
REMARK    5  A    between atoms: C_19  and  C_21
REMARK    6  A    between atoms: C_24  and  O_27
REMARK                            x       y       z     vdW  Elec       q    Type
REMARK                         _______ _______ _______ _____ _____    ______ ____
ROOT
ATOM      1  C   UNL     1       4.844  -8.381  -0.081  0.00  0.00    +0.034 A 
ATOM      2  C   UNL     1       3.646  -9.085  -0.075  0.00  0.00    +0.023 A 
ATOM      3  C   UNL     1       2.441  -8.408  -0.053  0.00  0.00    +0.002 A 
ATOM      4  C   UNL     1       2.419  -7.029  -0.032  0.00  0.00    +0.009 A 
ATOM      5  C   UNL     1       3.618  -6.311  -0.043  0.00  0.00    -0.004 A 
ATOM      6  C   UNL     1       4.834  -6.995  -0.065  0.00  0.00    +0.032 A 
ENDROOT
BRANCH   1   9
ATOM      7  C   UNL     1       7.110  -8.566  -0.781  0.00  0.00    +0.250 C 
ATOM      8  O   UNL     1       7.026  -7.471  -1.302  0.00  0.00    -0.270 OA
ATOM      9  N   UNL     1       6.061  -9.071  -0.103  0.00  0.00    -0.281 N 
ATOM     10  H   UNL     1       6.149  -9.914   0.370  0.00  0.00    +0.155 HD
BRANCH   7  15
ATOM     11  C   UNL     1       9.634 -11.320  -0.398  0.00  0.00    +0.001 A 
ATOM     12  C   UNL     1      10.710 -10.799  -1.095  0.00  0.00    +0.001 A 
ATOM     13  C   UNL     1      10.620  -9.554  -1.690  0.00  0.00    +0.021 A 
ATOM     14  C   UNL     1       9.452  -8.821  -1.592  0.00  0.00    +0.053 A 
ATOM     15  C   UNL     1       8.362  -9.342  -0.890  0.00  0.00    +0.055 A 
ATOM     16  C   UNL     1       8.464 -10.598  -0.287  0.00  0.00    +0.014 A 
ATOM     17 CL   UNL     1       9.340  -7.258  -2.339  0.00  0.00    -0.083 Cl
ENDBRANCH   7  15
ENDBRANCH   1   9
BRANCH   5  18
ATOM     18  C   UNL     1       3.598  -4.837  -0.025  0.00  0.00    +0.138 C 
ATOM     19  N   UNL     1       2.466  -4.203  -0.005  0.00  0.00    -0.187 NA
BRANCH  19  20
ATOM     20  N   UNL     1       2.447  -2.802   0.012  0.00  0.00    -0.203 N 
ATOM     21  C   UNL     1       1.271  -2.144   0.033  0.00  0.00    +0.263 C 
ATOM     22  O   UNL     1       0.226  -2.767   0.037  0.00  0.00    -0.268 OA
ATOM     23  H   UNL     1       3.280  -2.306   0.009  0.00  0.00    +0.178 HD
BRANCH  21  24
ATOM     24  C   UNL     1       1.251  -0.669   0.051  0.00  0.00    +0.039 A 
ATOM     25  C   UNL     1       0.032   0.015   0.073  0.00  0.00    +0.016 A 
ATOM     26  C   UNL     1       0.018   1.392   0.090  0.00  0.00    +0.046 A 
ATOM     27  C   UNL     1       1.214   2.101   0.085  0.00  0.00    +0.117 A 
ATOM     28  C   UNL     1       2.428   1.425   0.063  0.00  0.00    +0.046 A 
ATOM     29  C   UNL     1       2.451   0.048   0.046  0.00  0.00    +0.016 A 
BRANCH  27  30
ATOM     30  O   UNL     1       1.196   3.458   0.101  0.00  0.00    -0.507 OA
ATOM     31  H   UNL     1       1.200   3.841   0.989  0.00  0.00    +0.292 HD
ENDBRANCH  27  30
ENDBRANCH  21  24
ENDBRANCH  19  20
ENDBRANCH   5  18
TORSDOF 6
