REMARK  Name = ZINC14545089
REMARK  7 active torsions:
REMARK  status: ('A' for Active; 'I' for Inactive)
REMARK    1  A    between atoms: C_1  and  C_2
REMARK    2  A    between atoms: C_2  and  C_3
REMARK    3  A    between atoms: C_3  and  C_5
REMARK    4  A    between atoms: C_3  and  N_6
REMARK    5  A    between atoms: N_6  and  S_7
REMARK    6  A    between atoms: S_7  and  C_10
REMARK    7  A    between atoms: C_23  and  C_26
REMARK                            x       y       z     vdW  Elec       q    Type
REMARK                         _______ _______ _______ _____ _____    ______ ____
ROOT
ATOM      1  C   UNL     1      -0.954   1.915  -1.397  0.00  0.00    +0.106 A 
ATOM      2  C   UNL     1      -1.880   1.052  -1.953  0.00  0.00    +0.030 A 
ATOM      3  C   UNL     1      -2.615   1.439  -3.054  0.00  0.00    +0.025 A 
ATOM      4  C   UNL     1      -2.421   2.693  -3.622  0.00  0.00    +0.031 A 
ATOM      5  C   UNL     1      -1.485   3.563  -3.052  0.00  0.00    -0.018 A 
ATOM      6  C   UNL     1      -0.759   3.168  -1.949  0.00  0.00    +0.034 A 
ATOM      7  C   UNL     1      -1.329   4.897  -3.669  0.00  0.00    +0.049 C 
ATOM      8  C   UNL     1      -0.061   5.665  -3.568  0.00  0.00    -0.023 C 
ATOM      9  C   UNL     1       0.077   6.403  -4.663  0.00  0.00    -0.030 C 
ATOM     10  C   UNL     1      -1.097   6.153  -5.613  0.00  0.00    +0.033 C 
ATOM     11  C   UNL     1      -1.527   4.738  -5.207  0.00  0.00    +0.029 C 
ATOM     12  C   UNL     1      -2.986   4.357  -5.389  0.00  0.00    +0.107 C 
ATOM     13  N   UNL     1      -3.131   3.026  -4.758  0.00  0.00    -0.336 N 
ATOM     14  H   UNL     1      -3.752   2.385  -5.137  0.00  0.00    +0.147 HD
ENDROOT
BRANCH  12  15
ATOM     15  C   UNL     1      -3.876   5.359  -4.700  0.00  0.00    -0.002 A 
ATOM     16  C   UNL     1      -4.383   5.258  -3.462  0.00  0.00    +0.089 A 
ATOM     17  N   UNL     1      -5.144   6.359  -3.178  0.00  0.00    -0.360 N 
ATOM     18  H   UNL     1      -5.613   6.513  -2.343  0.00  0.00    +0.165 HD
ATOM     19  C   UNL     1      -5.146   7.217  -4.255  0.00  0.00    +0.047 A 
ATOM     20  C   UNL     1      -4.346   6.631  -5.254  0.00  0.00    +0.005 A 
ATOM     21  C   UNL     1      -4.170   7.282  -6.476  0.00  0.00    +0.010 A 
ATOM     22  C   UNL     1      -4.765   8.493  -6.692  0.00  0.00    +0.001 A 
ATOM     23  C   UNL     1      -5.550   9.078  -5.708  0.00  0.00    +0.002 A 
ATOM     24  C   UNL     1      -5.743   8.450  -4.497  0.00  0.00    +0.026 A 
ENDBRANCH  12  15
BRANCH   1  25
ATOM     25  S   UNL     1      -0.017   1.417   0.010  0.00  0.00    +0.059 S 
ATOM     26  O   UNL     1       0.002  -0.004   0.002  0.00  0.00    -0.153 OA
ATOM     27  O   UNL     1       1.172   2.195   0.003  0.00  0.00    -0.153 OA
BRANCH  25  28
ATOM     28  N   UNL     1      -0.872   1.871   1.353  0.00  0.00    -0.187 NA
ATOM     29  H   UNL     1      -0.510   2.541   1.955  0.00  0.00    +0.148 HD
BRANCH  28  30
ATOM     30  C   UNL     1      -2.174   1.261   1.634  0.00  0.00    +0.073 C 
ATOM     31  C   UNL     1      -3.285   2.152   1.074  0.00  0.00    +0.025 C 
BRANCH  30  33
ATOM     32  C   UNL     1      -1.318   0.124   3.687  0.00  0.00    +0.005 C 
ATOM     33  C   UNL     1      -2.353   1.113   3.146  0.00  0.00    +0.017 C 
ENDBRANCH  30  33
ENDBRANCH  28  30
ENDBRANCH  25  28
ENDBRANCH   1  25
TORSDOF 5
