REMARK  Name = ZINC00555586
REMARK  5 active torsions:
REMARK  status: ('A' for Active; 'I' for Inactive)
REMARK    1  A    between atoms: C_1  and  O_2
REMARK    2  A    between atoms: O_2  and  C_3
REMARK    3  A    between atoms: C_6  and  C_10
REMARK    4  A    between atoms: C_12  and  C_23
REMARK    5  A    between atoms: C_13  and  N_22
REMARK                            x       y       z     vdW  Elec       q    Type
REMARK                         _______ _______ _______ _____ _____    ______ ____
ROOT
ATOM      1  C   UNL     1      -0.013   1.086   0.008  0.00  0.00    +0.101 C 
ATOM      2  C   UNL     1       1.399   1.604  -0.003  0.00  0.00    +0.098 C 
ATOM      3  C   UNL     1       1.747   2.659   0.773  0.00  0.00    +0.198 C 
ATOM      4  O   UNL     1       0.852   3.272   1.563  0.00  0.00    -0.445 OA
ATOM      5  C   UNL     1      -0.266   2.623   1.939  0.00  0.00    +0.115 C 
ATOM      6  C   UNL     1      -0.733   1.570   1.243  0.00  0.00    +0.046 C 
ATOM      7  C   UNL     1      -1.898   0.887   1.643  0.00  0.00    +0.163 C 
ATOM      8  O   UNL     1      -2.297  -0.049   0.980  0.00  0.00    -0.292 OA
ATOM      9  C   UNL     1      -2.658   1.297   2.875  0.00  0.00    +0.080 C 
ATOM     10  C   UNL     1      -1.683   1.944   3.865  0.00  0.00    +0.016 C 
ATOM     11  C   UNL     1      -0.992   3.118   3.168  0.00  0.00    +0.075 C 
ENDROOT
BRANCH   1  15
ATOM     12  C   UNL     1      -2.067   2.496  -3.465  0.00  0.00    +0.138 A 
ATOM     13  C   UNL     1      -1.547   3.400  -2.550  0.00  0.00    +0.047 A 
ATOM     14  C   UNL     1      -0.888   2.941  -1.425  0.00  0.00    +0.008 A 
ATOM     15  C   UNL     1      -0.737   1.583  -1.217  0.00  0.00    -0.033 A 
ATOM     16  C   UNL     1      -1.254   0.679  -2.127  0.00  0.00    +0.028 A 
ATOM     17  C   UNL     1      -1.919   1.133  -3.251  0.00  0.00    +0.083 A 
ATOM     18 CL   UNL     1      -2.567  -0.002  -4.394  0.00  0.00    -0.080 Cl
BRANCH  12  20
ATOM     19  C   UNL     1      -2.836   4.361  -4.723  0.00  0.00    +0.277 C 
ATOM     20  O   UNL     1      -2.721   2.945  -4.569  0.00  0.00    -0.494 OA
ENDBRANCH  12  20
ENDBRANCH   1  15
BRANCH   3  21
ATOM     21  N   UNL     1       3.043   3.110   0.750  0.00  0.00    -0.328 N 
ATOM     22  H   UNL     1       3.699   2.675   0.183  0.00  0.00    +0.145 HD
ATOM     23  H   UNL     1       3.304   3.864   1.302  0.00  0.00    +0.145 HD
ENDBRANCH   3  21
BRANCH   2  24
ATOM     24  C   UNL     1       2.380   0.979  -0.838  0.00  0.00    +0.101 C 
ATOM     25  N   UNL     1       3.158   0.484  -1.500  0.00  0.00    -0.191 NA
ENDBRANCH   2  24
TORSDOF 4
