REMARK  Name = ZINC08767215
REMARK  14 active torsions:
REMARK  status: ('A' for Active; 'I' for Inactive)
REMARK    1  A    between atoms: C_1  and  C_2
REMARK    2  A    between atoms: C_2  and  O_3
REMARK    3  A    between atoms: O_3  and  C_4
REMARK    4  A    between atoms: C_7  and  C_13
REMARK    5  A    between atoms: C_9  and  O_10
REMARK    6  A    between atoms: O_10  and  C_11
REMARK    7  A    between atoms: C_11  and  C_12
REMARK    8  A    between atoms: C_15  and  C_37
REMARK    9  A    between atoms: C_16  and  C_36
REMARK   10  A    between atoms: C_23  and  C_24
REMARK   11  A    between atoms: C_27  and  N_29
REMARK   12  A    between atoms: C_34  and  N_74
REMARK   13  A    between atoms: C_37  and  O_39
REMARK   14  A    between atoms: O_39  and  C_40
REMARK                            x       y       z     vdW  Elec       q    Type
REMARK                         _______ _______ _______ _____ _____    ______ ____
ROOT
ATOM      1  C   UNL     1       3.740   0.765  -0.292  0.00  0.00    +0.162 C 
ATOM      2  C   UNL     1       4.442   2.102  -0.220  0.00  0.00    +0.085 C 
ATOM      3  C   UNL     1       3.689   3.210   0.055  0.00  0.00    +0.053 C 
ATOM      4  N   UNL     1       2.382   3.105   0.253  0.00  0.00    -0.228 NA
ATOM      5  C   UNL     1       1.706   1.983   0.206  0.00  0.00    +0.178 A 
ATOM      6  N   UNL     1       2.270   0.757  -0.055  0.00  0.00    -0.275 N 
ATOM      7  C   UNL     1       1.469  -0.316  -0.073  0.00  0.00    +0.268 A 
ATOM      8  O   UNL     1       1.916  -1.427  -0.300  0.00  0.00    -0.266 OA
ATOM      9  C   UNL     1       0.089  -0.123   0.177  0.00  0.00    +0.084 A 
ATOM     10  C   UNL     1      -0.931  -1.051   0.215  0.00  0.00    +0.067 C 
ATOM     11  S   UNL     1       0.023   1.642   0.432  0.00  0.00    -0.046 S 
ATOM     12  C   UNL     1       4.351   4.561   0.136  0.00  0.00    +0.066 C 
ENDROOT
BRANCH   1  16
ATOM     13  C   UNL     1       4.452  -0.889  -4.171  0.00  0.00    +0.162 A 
ATOM     14  C   UNL     1       3.379  -0.036  -3.964  0.00  0.00    +0.050 A 
ATOM     15  C   UNL     1       3.149   0.492  -2.708  0.00  0.00    +0.010 A 
ATOM     16  C   UNL     1       3.993   0.181  -1.658  0.00  0.00    -0.016 A 
ATOM     17  C   UNL     1       5.065  -0.669  -1.858  0.00  0.00    +0.055 A 
ATOM     18  C   UNL     1       5.298  -1.207  -3.113  0.00  0.00    +0.162 A 
BRANCH  13  19
ATOM     19  O   UNL     1       4.677  -1.414  -5.405  0.00  0.00    -0.489 OA
BRANCH  19  21
ATOM     20  C   UNL     1       4.178  -1.728  -7.749  0.00  0.00    +0.048 C 
ATOM     21  C   UNL     1       3.767  -1.044  -6.443  0.00  0.00    +0.226 C 
ENDBRANCH  19  21
ENDBRANCH  13  19
BRANCH  18  22
ATOM     22  O   UNL     1       6.353  -2.042  -3.311  0.00  0.00    -0.489 OA
BRANCH  22  23
ATOM     23  C   UNL     1       7.179  -2.324  -2.180  0.00  0.00    +0.226 C 
ATOM     24  C   UNL     1       8.304  -3.275  -2.594  0.00  0.00    +0.048 C 
ENDBRANCH  22  23
ENDBRANCH  18  22
ENDBRANCH   1  16
BRANCH  10  25
ATOM     25  C   UNL     1      -2.247  -0.638   0.486  0.00  0.00    +0.131 A 
ATOM     26  C   UNL     1      -3.363  -1.457   0.548  0.00  0.00    +0.051 A 
ATOM     27  C   UNL     1      -4.450  -0.633   0.845  0.00  0.00    +0.066 A 
ATOM     28  C   UNL     1      -3.974   0.643   0.943  0.00  0.00    +0.189 A 
ATOM     29  O   UNL     1      -2.650   0.631   0.726  0.00  0.00    -0.442 OA
BRANCH  28  30
ATOM     30  N   UNL     1      -4.732   1.763   1.221  0.00  0.00    -0.305 N 
ATOM     31  C   UNL     1      -5.829   1.911   0.254  0.00  0.00    +0.089 C 
ATOM     32  C   UNL     1      -6.689   3.115   0.643  0.00  0.00    -0.060 C 
ATOM     33  C   UNL     1      -4.755   4.175   1.640  0.00  0.00    -0.060 C 
ATOM     34  C   UNL     1      -3.895   2.971   1.251  0.00  0.00    +0.089 C 
ATOM     35  C   UNL     1      -6.658   5.514   0.969  0.00  0.00    -0.096 C 
ATOM     36  N   UNL     1      -5.841   4.325   0.648  0.00  0.00    +0.380 N 
ATOM     37  H   UNL     1      -5.427   4.447  -0.284  0.00  0.00    -0.082 HD
ENDBRANCH  28  30
ENDBRANCH  10  25
BRANCH   2  38
ATOM     38  C   UNL     1       5.826   2.203  -0.431  0.00  0.00    +0.339 C 
ATOM     39  O   UNL     1       6.354   3.299  -0.495  0.00  0.00    -0.245 OA
BRANCH  38  40
ATOM     40  O   UNL     1       6.573   1.085  -0.562  0.00  0.00    -0.465 OA
ATOM     41  C   UNL     1       7.975   1.263  -0.775  0.00  0.00    +0.280 C 
ENDBRANCH  38  40
ENDBRANCH   2  38
TORSDOF 9
