REMARK  Name = ZINC59019461
REMARK  12 active torsions:
REMARK  status: ('A' for Active; 'I' for Inactive)
REMARK    1  A    between atoms: C_1  and  C_2
REMARK    2  A    between atoms: C_2  and  N_3
REMARK    3  A    between atoms: N_3  and  C_4
REMARK    4  A    between atoms: N_3  and  C_6
REMARK    5  A    between atoms: C_4  and  C_5
REMARK    6  A    between atoms: C_9  and  N_12
REMARK    7  A    between atoms: C_13  and  C_15
REMARK    8  A    between atoms: C_15  and  S_16
REMARK    9  A    between atoms: S_16  and  C_17
REMARK   10  A    between atoms: N_22  and  N_23
REMARK   11  A    between atoms: C_24  and  C_25
REMARK   12  A    between atoms: C_28  and  C_31
REMARK                            x       y       z     vdW  Elec       q    Type
REMARK                         _______ _______ _______ _____ _____    ______ ____
ROOT
ATOM      1  S   UNL     1       3.934  -8.768   1.791  0.00  0.00    -0.075 S 
ENDROOT
BRANCH   1   2
ATOM      2  C   UNL     1       3.853 -10.526   1.694  0.00  0.00    +0.211 A 
ATOM      3  N   UNL     1       4.885 -11.361   1.853  0.00  0.00    -0.186 NA
ATOM      4  C   UNL     1       4.474 -12.604   1.717  0.00  0.00    +0.232 A 
ATOM      5  N   UNL     1       3.148 -12.579   1.465  0.00  0.00    -0.245 N 
ATOM      6  N   UNL     1       2.769 -11.227   1.461  0.00  0.00    -0.144 NA
ATOM      7  N   UNL     1       5.262 -13.737   1.815  0.00  0.00    -0.205 N 
ATOM      8  H   UNL     1       4.866 -14.615   1.699  0.00  0.00    +0.177 HD
ATOM      9  H   UNL     1       2.570 -13.345   1.319  0.00  0.00    +0.192 HD
BRANCH   7  10
ATOM     10  N   UNL     1       6.631 -13.616   2.083  0.00  0.00    -0.188 NA
ATOM     11  C   UNL     1       7.371 -14.679   2.175  0.00  0.00    +0.138 C 
BRANCH  11  12
ATOM     12  C   UNL     1       8.813 -14.552   2.457  0.00  0.00    -0.005 A 
ATOM     13  C   UNL     1       9.385 -13.290   2.631  0.00  0.00    +0.010 A 
ATOM     14  C   UNL     1      10.735 -13.179   2.895  0.00  0.00    +0.004 A 
ATOM     15  C   UNL     1      11.521 -14.314   2.988  0.00  0.00    -0.050 A 
ATOM     16  C   UNL     1      10.960 -15.568   2.816  0.00  0.00    +0.004 A 
ATOM     17  C   UNL     1       9.611 -15.694   2.557  0.00  0.00    +0.010 A 
ATOM     18  C   UNL     1      12.994 -14.184   3.276  0.00  0.00    +0.044 C 
ENDBRANCH  11  12
ENDBRANCH   7  10
ENDBRANCH   1   2
BRANCH   1  19
ATOM     19  C   UNL     1       2.226  -8.234   1.498  0.00  0.00    +0.173 C 
BRANCH  19  21
ATOM     20  N   UNL     1       0.976  -6.104   1.364  0.00  0.00    -0.285 N 
ATOM     21  C   UNL     1       2.154  -6.729   1.554  0.00  0.00    +0.227 C 
ATOM     22  O   UNL     1       3.156  -6.082   1.770  0.00  0.00    -0.275 OA
ATOM     23  H   UNL     1       0.162  -6.622   1.264  0.00  0.00    +0.155 HD
BRANCH  20  27
ATOM     24  C   UNL     1       0.828  -1.943   1.204  0.00  0.00    +0.014 A 
ATOM     25  C   UNL     1       1.927  -2.614   0.701  0.00  0.00    +0.023 A 
ATOM     26  C   UNL     1       1.979  -3.993   0.752  0.00  0.00    +0.025 A 
ATOM     27  C   UNL     1       0.926  -4.706   1.310  0.00  0.00    +0.034 A 
ATOM     28  C   UNL     1      -0.176  -4.029   1.816  0.00  0.00    +0.025 A 
ATOM     29  C   UNL     1      -0.220  -2.650   1.766  0.00  0.00    +0.023 A 
BRANCH  24  30
ATOM     30  N   UNL     1       0.778  -0.547   1.151  0.00  0.00    -0.394 NA
ATOM     31  H   UNL     1      -0.085  -0.225   1.562  0.00  0.00    +0.126 HD
BRANCH  30  33
ATOM     32  C   UNL     1       1.791  -0.364   3.373  0.00  0.00    +0.022 C 
ATOM     33  C   UNL     1       1.914   0.012   1.895  0.00  0.00    +0.081 C 
ENDBRANCH  30  33
BRANCH  30  34
ATOM     34  C   UNL     1       0.846  -0.108  -0.250  0.00  0.00    +0.081 C 
ATOM     35  C   UNL     1      -0.394  -0.599  -0.999  0.00  0.00    +0.022 C 
ENDBRANCH  30  34
ENDBRANCH  24  30
ENDBRANCH  20  27
ENDBRANCH  19  21
ENDBRANCH   1  19
TORSDOF 9
