REMARK  Name = ZINC05386507
REMARK  4 active torsions:
REMARK  status: ('A' for Active; 'I' for Inactive)
REMARK    1  A    between atoms: C_6  and  C_10
REMARK    2  A    between atoms: N_11  and  N_12
REMARK    3  A    between atoms: N_12  and  C_13
REMARK    4  A    between atoms: C_13  and  N_15
REMARK                            x       y       z     vdW  Elec       q    Type
REMARK                         _______ _______ _______ _____ _____    ______ ____
ROOT
ATOM      1  C   UNL     1       4.151  -1.593  -0.087  0.00  0.00    +0.101 A 
ATOM      2  C   UNL     1       5.479  -1.681  -0.153  0.00  0.00    +0.067 A 
ATOM      3  S   UNL     1       5.957   0.038  -0.235  0.00  0.00    -0.058 S 
ATOM      4  C   UNL     1       4.325   0.740  -0.162  0.00  0.00    +0.179 A 
ATOM      5  N   UNL     1       3.524  -0.368  -0.088  0.00  0.00    -0.291 N 
ATOM      6  C   UNL     1       2.217   0.138  -0.034  0.00  0.00    +0.100 A 
ATOM      7  C   UNL     1       2.313   1.510  -0.070  0.00  0.00    +0.134 A 
ATOM      8  N   UNL     1       3.607   1.830  -0.147  0.00  0.00    -0.214 NA
ATOM      9 BR   UNL     1       0.868   2.727  -0.019  0.00  0.00    -0.026 Br
ENDROOT
BRANCH   6  10
ATOM     10  C   UNL     1       0.983  -0.645   0.051  0.00  0.00    +0.159 C 
ATOM     11  N   UNL     1       0.824  -1.508   1.013  0.00  0.00    -0.187 NA
BRANCH  11  12
ATOM     12  N   UNL     1       1.778  -1.601   2.034  0.00  0.00    -0.219 N 
ATOM     13  H   UNL     1       2.581  -1.058   1.999  0.00  0.00    +0.176 HD
BRANCH  12  14
ATOM     14  C   UNL     1       1.577  -2.441   3.069  0.00  0.00    +0.147 C 
ATOM     15  S   UNL     1       2.678  -2.462   4.380  0.00  0.00    -0.017 S 
BRANCH  14  16
ATOM     16  N   UNL     1       0.510  -3.264   3.072  0.00  0.00    -0.339 N 
ATOM     17  H   UNL     1      -0.113  -3.252   2.329  0.00  0.00    +0.144 HD
ATOM     18  H   UNL     1       0.366  -3.869   3.816  0.00  0.00    +0.144 HD
ENDBRANCH  14  16
ENDBRANCH  12  14
ENDBRANCH  11  12
ENDBRANCH   6  10
TORSDOF 4
