REMARK  Name = ZINC27664429
REMARK  10 active torsions:
REMARK  status: ('A' for Active; 'I' for Inactive)
REMARK    1  A    between atoms: C_1  and  C_2
REMARK    2  A    between atoms: C_2  and  O_3
REMARK    3  A    between atoms: O_3  and  C_4
REMARK    4  A    between atoms: C_6  and  C_11
REMARK    5  A    between atoms: C_9  and  O_10
REMARK    6  A    between atoms: C_13  and  C_25
REMARK    7  A    between atoms: C_15  and  C_20
REMARK    8  A    between atoms: C_15  and  O_24
REMARK    9  A    between atoms: C_25  and  C_27
REMARK   10  A    between atoms: C_30  and  C_33
REMARK                            x       y       z     vdW  Elec       q    Type
REMARK                         _______ _______ _______ _____ _____    ______ ____
ROOT
ATOM      1  C   UNL     1      -4.900   0.866   0.641  0.00  0.00    +0.120 C 
ATOM      2  C   UNL     1      -4.018   2.033   0.185  0.00  0.00    +0.144 C 
ATOM      3  C   UNL     1      -4.395   2.397  -1.255  0.00  0.00    +0.243 C 
ATOM      4  N   UNL     1      -4.279   1.205  -2.097  0.00  0.00    -0.264 N 
ATOM      5  C   UNL     1      -4.467  -0.025  -1.596  0.00  0.00    +0.302 C 
ATOM      6  O   UNL     1      -4.369  -0.981  -2.341  0.00  0.00    -0.253 OA
ATOM      7  N   UNL     1      -4.757  -0.242  -0.304  0.00  0.00    -0.292 N 
ATOM      8  H   UNL     1      -4.034   1.308  -3.164  0.00  0.00    +0.153 HD
ATOM      9  H   UNL     1      -4.888  -1.279   0.040  0.00  0.00    +0.151 HD
ENDROOT
BRANCH   1  12
ATOM     10  C   UNL     1      -4.651   0.577   4.400  0.00  0.00    +0.162 A 
ATOM     11  C   UNL     1      -5.040   0.992   3.136  0.00  0.00    +0.055 A 
ATOM     12  C   UNL     1      -4.472   0.417   2.014  0.00  0.00    -0.023 A 
ATOM     13  C   UNL     1      -3.508  -0.565   2.150  0.00  0.00    +0.009 A 
ATOM     14  C   UNL     1      -3.112  -0.980   3.408  0.00  0.00    +0.049 A 
ATOM     15  C   UNL     1      -3.681  -0.411   4.536  0.00  0.00    +0.158 A 
BRANCH  15  16
ATOM     16  O   UNL     1      -3.292  -0.819   5.774  0.00  0.00    -0.503 OA
ATOM     17  H   UNL     1      -2.525  -1.600   5.880  0.00  0.00    +0.292 HD
ENDBRANCH  15  16
BRANCH  10  18
ATOM     18  O   UNL     1      -5.213   1.137   5.504  0.00  0.00    -0.489 OA
BRANCH  18  20
ATOM     19  C   UNL     1      -6.715   2.655   6.637  0.00  0.00    +0.048 C 
ATOM     20  C   UNL     1      -6.202   2.146   5.288  0.00  0.00    +0.226 C 
ENDBRANCH  18  20
ENDBRANCH  10  18
ENDBRANCH   1  12
BRANCH   3  21
ATOM     21  C   UNL     1      -5.836   2.910  -1.292  0.00  0.00    +0.436 C 
ATOM     22  F   UNL     1      -5.947   4.045  -0.481  0.00  0.00    -0.166 F 
ATOM     23  F   UNL     1      -6.179   3.242  -2.607  0.00  0.00    -0.166 F 
ATOM     24  F   UNL     1      -6.698   1.915  -0.822  0.00  0.00    -0.166 F 
ENDBRANCH   3  21
BRANCH   3  25
ATOM     25  O   UNL     1      -3.512   3.411  -1.738  0.00  0.00    -0.364 OA
ATOM     26  H   UNL     1      -3.630   3.801  -2.760  0.00  0.00    +0.212 HD
ENDBRANCH   3  25
BRANCH   2  27
ATOM     27  C   UNL     1      -2.569   1.623   0.241  0.00  0.00    +0.173 C 
ATOM     28  O   UNL     1      -2.250   0.484  -0.028  0.00  0.00    -0.292 OA
BRANCH  27  29
ATOM     29  C   UNL     1      -1.540   2.605   0.621  0.00  0.00    +0.018 A 
ATOM     30  C   UNL     1      -0.194   2.228   0.674  0.00  0.00    +0.011 A 
ATOM     31  C   UNL     1       0.764   3.155   1.026  0.00  0.00    +0.004 A 
ATOM     32  C   UNL     1       0.396   4.454   1.332  0.00  0.00    -0.050 A 
ATOM     33  C   UNL     1      -0.934   4.833   1.287  0.00  0.00    +0.004 A 
ATOM     34  C   UNL     1      -1.904   3.918   0.936  0.00  0.00    +0.011 A 
ATOM     35  C   UNL     1       1.450   5.460   1.716  0.00  0.00    +0.044 C 
ENDBRANCH  27  29
ENDBRANCH   2  27
TORSDOF 8
