REMARK  Name = ZINC08321313
REMARK  8 active torsions:
REMARK  status: ('A' for Active; 'I' for Inactive)
REMARK    1  A    between atoms: C_1  and  C_2
REMARK    2  A    between atoms: C_7  and  O_8
REMARK    3  A    between atoms: O_8  and  C_9
REMARK    4  A    between atoms: C_9  and  C_10
REMARK    5  A    between atoms: N_12  and  C_13
REMARK    6  A    between atoms: C_13  and  N_15
REMARK    7  A    between atoms: N_15  and  C_16
REMARK    8  A    between atoms: C_17  and  C_25
REMARK                            x       y       z     vdW  Elec       q    Type
REMARK                         _______ _______ _______ _____ _____    ______ ____
ROOT
ATOM      1  N   UNL     1      -4.184   7.201   0.061  0.00  0.00    -0.291 N 
ATOM      2  H   UNL     1      -3.422   7.801   0.061  0.00  0.00    +0.154 HD
ENDROOT
BRANCH   1   3
ATOM      3  C   UNL     1      -5.471   7.714   0.070  0.00  0.00    +0.084 A 
ATOM      4  C   UNL     1      -5.869   9.044   0.085  0.00  0.00    +0.068 A 
ATOM      5  C   UNL     1      -7.296   9.317   0.088  0.00  0.00    -0.023 A 
ATOM      6  C   UNL     1      -8.091   8.225   0.087  0.00  0.00    -0.004 A 
ATOM      7  S   UNL     1      -6.974   6.852   0.073  0.00  0.00    -0.077 S 
ATOM      8  C   UNL     1      -9.588   8.198   0.095  0.00  0.00    +0.043 C 
ATOM      9  C   UNL     1     -10.095   9.595   0.484  0.00  0.00    +0.005 C 
ATOM     10  C   UNL     1      -9.350  10.640  -0.351  0.00  0.00    +0.005 C 
ATOM     11  C   UNL     1      -7.890  10.720   0.098  0.00  0.00    +0.037 C 
BRANCH   4  12
ATOM     12  C   UNL     1      -4.886  10.132   0.092  0.00  0.00    +0.244 C 
ATOM     13  O   UNL     1      -4.482  10.594  -0.958  0.00  0.00    -0.270 OA
ATOM     14  N   UNL     1      -4.430  10.619   1.263  0.00  0.00    -0.325 N 
ATOM     15  H   UNL     1      -4.752  10.251   2.100  0.00  0.00    +0.145 HD
ATOM     16  H   UNL     1      -3.780  11.339   1.268  0.00  0.00    +0.145 HD
ENDBRANCH   4  12
ENDBRANCH   1   3
BRANCH   1  17
ATOM     17  C   UNL     1      -3.990   5.867   0.053  0.00  0.00    +0.141 C 
ATOM     18  S   UNL     1      -5.335   4.807   0.053  0.00  0.00    -0.018 S 
BRANCH  17  21
ATOM     19  C   UNL     1      -2.545   4.034   0.036  0.00  0.00    +0.256 C 
ATOM     20  O   UNL     1      -3.497   3.283   0.036  0.00  0.00    -0.272 OA
ATOM     21  N   UNL     1      -2.738   5.367   0.044  0.00  0.00    -0.265 N 
ATOM     22  H   UNL     1      -1.977   5.968   0.044  0.00  0.00    +0.157 HD
BRANCH  19  23
ATOM     23  C   UNL     1      -1.145   3.475   0.026  0.00  0.00    +0.325 C 
BRANCH  23  24
ATOM     24  O   UNL     1      -1.202   2.047   0.019  0.00  0.00    -0.483 OA
BRANCH  24  31
ATOM     25  C   UNL     1      -1.292  -0.776   0.010  0.00  0.00    +0.047 C 
ATOM     26  C   UNL     1       0.002  -0.004   0.002  0.00  0.00    -0.009 A 
ATOM     27  C   UNL     1       1.208  -0.677  -0.013  0.00  0.00    +0.007 A 
ATOM     28  C   UNL     1       2.396   0.030  -0.021  0.00  0.00    +0.000 A 
ATOM     29  C   UNL     1       2.380   1.413  -0.013  0.00  0.00    +0.004 A 
ATOM     30  C   UNL     1       1.177   2.091   0.002  0.00  0.00    +0.046 A 
ATOM     31  C   UNL     1      -0.017   1.383   0.010  0.00  0.00    +0.124 A 
ENDBRANCH  24  31
ENDBRANCH  23  24
ENDBRANCH  19  23
ENDBRANCH  17  21
ENDBRANCH   1  17
TORSDOF 7
