REMARK  Name = ZINC05764571
REMARK  8 active torsions:
REMARK  status: ('A' for Active; 'I' for Inactive)
REMARK    1  A    between atoms: C_1  and  C_2
REMARK    2  A    between atoms: C_4  and  O_32
REMARK    3  A    between atoms: C_13  and  O_21
REMARK    4  A    between atoms: C_15  and  C_16
REMARK    5  A    between atoms: C_15  and  O_20
REMARK    6  A    between atoms: C_16  and  C_18
REMARK    7  A    between atoms: C_18  and  O_19
REMARK    8  A    between atoms: C_30  and  C_31
REMARK                            x       y       z     vdW  Elec       q    Type
REMARK                         _______ _______ _______ _____ _____    ______ ____
ROOT
ATOM      1  C   UNL     1       0.548   1.691   0.009  0.00  0.00    +0.015 C 
ATOM      2  C   UNL     1       0.287   0.188   0.086  0.00  0.00    +0.012 C 
ATOM      3  C   UNL     1      -1.164  -0.111   0.345  0.00  0.00    +0.042 C 
ATOM      4  C   UNL     1      -1.551   0.157   1.808  0.00  0.00    +0.120 C 
ATOM      5  C   UNL     1      -0.422   0.722   2.643  0.00  0.00    +0.035 C 
ATOM      6  C   UNL     1       0.866  -0.091   2.541  0.00  0.00    -0.000 C 
ATOM      7  C   UNL     1       1.158  -0.527   1.137  0.00  0.00    +0.004 C 
ATOM      8  C   UNL     1       2.572  -0.293   0.590  0.00  0.00    +0.039 C 
ATOM      9  C   UNL     1       2.383  -0.518  -0.937  0.00  0.00    +0.154 C 
ATOM     10  C   UNL     1       0.862  -0.422  -1.210  0.00  0.00    +0.157 C 
ATOM     11  C   UNL     1       2.030   0.682   3.166  0.00  0.00    +0.008 C 
ATOM     12  C   UNL     1       1.741   0.876   4.663  0.00  0.00    +0.032 C 
ATOM     13  C   UNL     1       0.390   1.557   4.783  0.00  0.00    -0.056 C 
ATOM     14  C   UNL     1       0.312   2.706   5.435  0.00  0.00    +0.051 C 
ATOM     15  C   UNL     1      -0.969   3.419   5.552  0.00  0.00    +0.179 C 
ATOM     16  O   UNL     1      -1.041   4.483   6.137  0.00  0.00    -0.288 OA
ATOM     17  C   UNL     1      -2.162   2.814   4.937  0.00  0.00    +0.047 C 
ATOM     18  C   UNL     1      -2.060   1.659   4.298  0.00  0.00    -0.012 C 
ATOM     19  C   UNL     1      -0.793   0.896   4.122  0.00  0.00    +0.013 C 
ATOM     20  C   UNL     1      -1.002  -0.469   4.771  0.00  0.00    +0.020 C 
ENDROOT
BRANCH  10  21
ATOM     21  C   UNL     1       0.588   0.494  -2.370  0.00  0.00    +0.193 C 
ATOM     22  O   UNL     1       1.350   1.397  -2.620  0.00  0.00    -0.292 OA
BRANCH  21  23
ATOM     23  C   UNL     1      -0.638   0.285  -3.222  0.00  0.00    +0.233 C 
BRANCH  23  24
ATOM     24  O   UNL     1      -0.676   1.275  -4.252  0.00  0.00    -0.387 OA
ATOM     25  H   UNL     1      -1.440   1.201  -4.840  0.00  0.00    +0.210 HD
ENDBRANCH  23  24
ENDBRANCH  21  23
ENDBRANCH  10  21
BRANCH  10  26
ATOM     26  O   UNL     1       0.307  -1.715  -1.435  0.00  0.00    -0.378 OA
ATOM     27  H   UNL     1       0.631  -2.148  -2.236  0.00  0.00    +0.211 HD
ENDBRANCH  10  26
BRANCH   9  28
ATOM     28  O   UNL     1       3.082   0.487  -1.672  0.00  0.00    -0.388 OA
ATOM     29  H   UNL     1       4.038   0.489  -1.525  0.00  0.00    +0.210 HD
ENDBRANCH   9  28
BRANCH   4  30
ATOM     30  O   UNL     1      -2.657   1.076   1.795  0.00  0.00    -0.391 OA
ATOM     31  H   UNL     1      -3.437   0.746   1.329  0.00  0.00    +0.210 HD
ENDBRANCH   4  30
TORSDOF 6
