REMARK  Name = ZINC54352503
REMARK  7 active torsions:
REMARK  status: ('A' for Active; 'I' for Inactive)
REMARK    1  A    between atoms: C_1  and  C_2
REMARK    2  A    between atoms: C_2  and  C_4
REMARK    3  A    between atoms: C_2  and  N_15
REMARK    4  A    between atoms: C_7  and  S_10
REMARK    5  A    between atoms: S_10  and  N_13
REMARK    6  A    between atoms: N_13  and  C_14
REMARK    7  A    between atoms: N_18  and  C_19
REMARK                            x       y       z     vdW  Elec       q    Type
REMARK                         _______ _______ _______ _____ _____    ______ ____
ROOT
ATOM      1  N   UNL     1       0.687  -0.493  -1.197  0.00  0.00    -0.293 N 
ATOM      2  C   UNL     1       2.031  -0.594  -1.212  0.00  0.00    +0.304 C 
ATOM      3  O   UNL     1       2.674  -0.298  -0.224  0.00  0.00    -0.252 OA
ATOM      4  N   UNL     1       2.662  -1.022  -2.324  0.00  0.00    -0.267 N 
ATOM      5  H   UNL     1       0.174  -0.729  -1.985  0.00  0.00    +0.151 HD
ATOM      6  H   UNL     1       2.147  -1.319  -3.090  0.00  0.00    +0.156 HD
ENDROOT
BRANCH   4   7
ATOM      7  C   UNL     1       4.063  -1.037  -2.373  0.00  0.00    +0.073 A 
ATOM      8  C   UNL     1       4.795  -1.326  -1.229  0.00  0.00    +0.029 A 
ATOM      9  C   UNL     1       6.176  -1.341  -1.278  0.00  0.00    +0.043 A 
ATOM     10  C   UNL     1       6.831  -1.068  -2.466  0.00  0.00    +0.161 A 
ATOM     11  C   UNL     1       6.104  -0.779  -3.611  0.00  0.00    +0.195 A 
ATOM     12  C   UNL     1       4.720  -0.769  -3.567  0.00  0.00    +0.182 A 
ATOM     13  F   UNL     1       4.011  -0.493  -4.683  0.00  0.00    -0.200 F 
ATOM     14  F   UNL     1       6.746  -0.513  -4.769  0.00  0.00    -0.199 F 
ATOM     15  F   UNL     1       8.182  -1.083  -2.510  0.00  0.00    -0.202 F 
ENDBRANCH   4   7
BRANCH   1  17
ATOM     16  C   UNL     1      -0.031   1.502   0.023  0.00  0.00    +0.033 C 
ATOM     17  C   UNL     1       0.001  -0.028   0.012  0.00  0.00    +0.102 C 
BRANCH  17  18
ATOM     18  C   UNL     1      -1.408  -0.560   0.026  0.00  0.00    -0.027 A 
ATOM     19  C   UNL     1      -2.141  -0.607  -1.146  0.00  0.00    +0.007 A 
ATOM     20  C   UNL     1      -3.434  -1.095  -1.133  0.00  0.00    +0.029 A 
ATOM     21  C   UNL     1      -3.995  -1.538   0.051  0.00  0.00    +0.105 A 
ATOM     22  C   UNL     1      -3.261  -1.492   1.222  0.00  0.00    +0.029 A 
ATOM     23  C   UNL     1      -1.967  -1.007   1.208  0.00  0.00    +0.007 A 
BRANCH  21  24
ATOM     24  S   UNL     1      -5.643  -2.159   0.068  0.00  0.00    +0.058 S 
ATOM     25  O   UNL     1      -6.123  -2.001   1.396  0.00  0.00    -0.153 OA
ATOM     26  O   UNL     1      -6.304  -1.589  -1.054  0.00  0.00    -0.153 OA
BRANCH  24  27
ATOM     27  N   UNL     1      -5.555  -3.788  -0.213  0.00  0.00    -0.193 NA
ATOM     28  C   UNL     1      -4.899  -4.665   0.760  0.00  0.00    +0.127 C 
ATOM     29  H   UNL     1      -5.938  -4.163  -1.022  0.00  0.00    +0.148 HD
ENDBRANCH  24  27
ENDBRANCH  21  24
ENDBRANCH  17  18
ENDBRANCH   1  17
TORSDOF 5
