REMARK  Name = ZINC50323646
REMARK  4 active torsions:
REMARK  status: ('A' for Active; 'I' for Inactive)
REMARK    1  A    between atoms: C_5  and  N_8
REMARK    2  A    between atoms: C_9  and  C_11
REMARK    3  A    between atoms: C_12  and  N_20
REMARK    4  A    between atoms: C_13  and  C_17
REMARK                            x       y       z     vdW  Elec       q    Type
REMARK                         _______ _______ _______ _____ _____    ______ ____
ROOT
ATOM      1  C   UNL     1       2.994  -3.112  -3.781  0.00  0.00    +0.141 A 
ATOM      2  C   UNL     1       3.650  -4.333  -3.653  0.00  0.00    +0.078 A 
ATOM      3  C   UNL     1       3.779  -4.820  -4.964  0.00  0.00    +0.087 A 
ATOM      4  N   UNL     1       3.240  -3.946  -5.773  0.00  0.00    -0.176 NA
ATOM      5  N   UNL     1       2.768  -2.942  -5.125  0.00  0.00    -0.271 N 
ATOM      6  H   UNL     1       2.321  -2.179  -5.525  0.00  0.00    +0.189 HD
ENDROOT
BRANCH   1   8
ATOM      7  N   UNL     1       1.976  -1.046  -2.987  0.00  0.00    -0.307 N 
ATOM      8  C   UNL     1       2.617  -2.197  -2.702  0.00  0.00    +0.264 C 
ATOM      9  O   UNL     1       2.882  -2.475  -1.547  0.00  0.00    -0.268 OA
ATOM     10  H   UNL     1       1.764  -0.824  -3.907  0.00  0.00    +0.149 HD
BRANCH   7  15
ATOM     11  C   UNL     1      -0.019   1.538   0.011  0.00  0.00    +0.000 C 
ATOM     12  C   UNL     1       1.401   2.036  -0.000  0.00  0.00    +0.000 C 
ATOM     13  C   UNL     1       1.910   2.335  -1.423  0.00  0.00    +0.002 C 
ATOM     14  C   UNL     1       1.480   1.268  -2.449  0.00  0.00    +0.022 C 
ATOM     15  C   UNL     1       1.598  -0.131  -1.907  0.00  0.00    +0.073 C 
ATOM     16  C   UNL     1       0.231  -0.548  -1.328  0.00  0.00    +0.022 C 
ATOM     17  C   UNL     1       0.002  -0.004   0.002  0.00  0.00    +0.002 C 
ENDBRANCH   7  15
ENDBRANCH   1   8
BRANCH   3  18
ATOM     18  C   UNL     1       4.425  -6.120  -5.368  0.00  0.00    +0.041 C 
ATOM     19  C   UNL     1       4.641  -6.367  -6.862  0.00  0.00    +0.010 C 
ATOM     20  C   UNL     1       3.558  -7.140  -6.107  0.00  0.00    +0.010 C 
ENDBRANCH   3  18
BRANCH   2  21
ATOM     21  N   UNL     1       4.086  -4.941  -2.478  0.00  0.00    -0.355 N 
ATOM     22  H   UNL     1       3.939  -4.506  -1.623  0.00  0.00    +0.142 HD
ATOM     23  H   UNL     1       4.535  -5.800  -2.514  0.00  0.00    +0.142 HD
ENDBRANCH   2  21
TORSDOF 4
