REMARK  Name = ZINC63281646
REMARK  10 active torsions:
REMARK  status: ('A' for Active; 'I' for Inactive)
REMARK    1  A    between atoms: C_1  and  C_2
REMARK    2  A    between atoms: C_4  and  C_9
REMARK    3  A    between atoms: N_6  and  C_8
REMARK    4  A    between atoms: C_9  and  N_10
REMARK    5  A    between atoms: C_11  and  C_13
REMARK    6  A    between atoms: N_15  and  C_16
REMARK    7  A    between atoms: C_21  and  C_22
REMARK    8  A    between atoms: N_24  and  C_25
REMARK    9  A    between atoms: C_25  and  C_26
REMARK   10  A    between atoms: C_26  and  C_27
REMARK                            x       y       z     vdW  Elec       q    Type
REMARK                         _______ _______ _______ _____ _____    ______ ____
ROOT
ATOM      1  C   UNL     1      -3.434  -3.261  -6.497  0.00  0.00    +0.046 A 
ATOM      2  C   UNL     1      -3.917  -4.239  -5.637  0.00  0.00    +0.024 A 
ATOM      3  C   UNL     1      -4.770  -5.215  -6.111  0.00  0.00    +0.002 A 
ATOM      4  C   UNL     1      -5.151  -5.229  -7.443  0.00  0.00    +0.001 A 
ATOM      5  C   UNL     1      -4.681  -4.266  -8.310  0.00  0.00    +0.015 A 
ATOM      6  C   UNL     1      -3.822  -3.268  -7.845  0.00  0.00    +0.058 A 
ENDROOT
BRANCH   1   9
ATOM      7  C   UNL     1      -1.671  -2.573  -5.067  0.00  0.00    +0.303 C 
ATOM      8  O   UNL     1      -1.660  -3.677  -4.564  0.00  0.00    -0.265 OA
ATOM      9  N   UNL     1      -2.574  -2.276  -6.022  0.00  0.00    -0.277 N 
ATOM     10  H   UNL     1      -2.626  -1.375  -6.378  0.00  0.00    +0.155 HD
BRANCH   7  12
ATOM     11  N   UNL     1       0.223  -1.840  -3.675  0.00  0.00    -0.304 N 
ATOM     12  C   UNL     1      -0.681  -1.543  -4.629  0.00  0.00    +0.300 C 
ATOM     13  O   UNL     1      -0.691  -0.439  -5.133  0.00  0.00    -0.265 OA
ATOM     14  H   UNL     1       0.231  -2.723  -3.272  0.00  0.00    +0.149 HD
BRANCH  11  15
ATOM     15  C   UNL     1       1.193  -0.830  -3.245  0.00  0.00    +0.138 C 
BRANCH  15  18
ATOM     16  C   UNL     1       1.631  -0.060  -0.121  0.00  0.00    +0.030 C 
ATOM     17  C   UNL     1       1.790  -1.470  -0.692  0.00  0.00    +0.098 C 
ATOM     18  C   UNL     1       2.083  -1.411  -2.176  0.00  0.00    -0.020 C 
ATOM     19  C   UNL     1       3.264  -1.966  -2.354  0.00  0.00    +0.089 C 
ATOM     20  N   UNL     1       3.812  -2.397  -1.162  0.00  0.00    -0.277 N 
ATOM     21  N   UNL     1       2.975  -2.132  -0.111  0.00  0.00    -0.234 NA
ATOM     22  C   UNL     1       5.115  -3.054  -1.037  0.00  0.00    +0.149 C 
ATOM     23  H   UNL     1       3.425  -1.537   0.569  0.00  0.00    +0.145 HD
ENDBRANCH  15  18
ENDBRANCH  11  15
ENDBRANCH   7  12
ENDBRANCH   1   9
BRANCH   6  24
ATOM     24  C   UNL     1      -3.320  -2.232  -8.767  0.00  0.00    +0.246 C 
ATOM     25  O   UNL     1      -2.494  -1.426  -8.384  0.00  0.00    -0.270 OA
ATOM     26  N   UNL     1      -3.778  -2.178 -10.034  0.00  0.00    -0.311 N 
ATOM     27  H   UNL     1      -4.437  -2.820 -10.339  0.00  0.00    +0.149 HD
BRANCH  26  28
ATOM     28  C   UNL     1      -3.280  -1.148 -10.949  0.00  0.00    +0.109 C 
BRANCH  28  29
ATOM     29  C   UNL     1      -3.955  -1.308 -12.313  0.00  0.00    +0.052 C 
BRANCH  29  30
ATOM     30  C   UNL     1      -3.443  -0.249 -13.255  0.00  0.00    -0.040 C 
ATOM     31  C   UNL     1      -2.436  -0.374 -14.149  0.00  0.00    -0.001 A 
ATOM     32  C   UNL     1      -1.549  -1.491 -14.497  0.00  0.00    +0.010 A 
ATOM     33  C   UNL     1      -0.613  -1.310 -15.456  0.00  0.00    +0.001 A 
ATOM     34  C   UNL     1      -0.468  -0.086 -16.124  0.00  0.00    +0.002 A 
ATOM     35  C   UNL     1      -1.245   0.986 -15.859  0.00  0.00    +0.026 A 
ATOM     36  C   UNL     1      -2.263   0.908 -14.868  0.00  0.00    +0.043 A 
ATOM     37  N   UNL     1      -3.130   1.791 -14.436  0.00  0.00    -0.380 N 
ATOM     38  C   UNL     1      -3.956   1.167 -13.396  0.00  0.00    +0.144 C 
ATOM     39  H   UNL     1      -3.214   2.704 -14.754  0.00  0.00    +0.160 HD
ENDBRANCH  29  30
ENDBRANCH  28  29
ENDBRANCH  26  28
ENDBRANCH   6  24
TORSDOF 8
