REMARK  Name = ZINC36516711
REMARK  19 active torsions:
REMARK  status: ('A' for Active; 'I' for Inactive)
REMARK    1  A    between atoms: C_1  and  C_2
REMARK    2  A    between atoms: C_2  and  C_3
REMARK    3  A    between atoms: C_3  and  C_4
REMARK    4  A    between atoms: C_4  and  C_5
REMARK    5  A    between atoms: C_5  and  C_6
REMARK    6  A    between atoms: C_6  and  N_7
REMARK    7  A    between atoms: N_7  and  C_8
REMARK    8  A    between atoms: C_8  and  C_10
REMARK    9  A    between atoms: C_8  and  C_19
REMARK   10  A    between atoms: C_11  and  O_18
REMARK   11  A    between atoms: C_13  and  O_17
REMARK   12  A    between atoms: C_15  and  O_16
REMARK   13  A    between atoms: N_21  and  C_22
REMARK   14  A    between atoms: C_22  and  C_23
REMARK   15  A    between atoms: C_22  and  C_24
REMARK   16  A    between atoms: C_22  and  C_25
REMARK   17  A    between atoms: C_26  and  C_28
REMARK   18  A    between atoms: C_29  and  C_30
REMARK   19  A    between atoms: C_29  and  C_31
REMARK                            x       y       z     vdW  Elec       q    Type
REMARK                         _______ _______ _______ _____ _____    ______ ____
ROOT
ATOM      1  C   UNL     1       4.454  -5.012  -4.938  0.00  0.00    +0.199 C 
ENDROOT
BRANCH   1   2
ATOM      2  C   UNL     1       4.340  -4.203  -6.205  0.00  0.00    +0.065 A 
ATOM      3  C   UNL     1       5.109  -3.061  -6.370  0.00  0.00    +0.129 A 
ATOM      4  C   UNL     1       5.004  -2.317  -7.535  0.00  0.00    +0.091 A 
ATOM      5  C   UNL     1       4.130  -2.716  -8.536  0.00  0.00    +0.124 A 
ATOM      6  C   UNL     1       3.363  -3.859  -8.371  0.00  0.00    +0.091 A 
ATOM      7  C   UNL     1       3.471  -4.605  -7.208  0.00  0.00    +0.129 A 
BRANCH   7   8
ATOM      8  O   UNL     1       2.722  -5.728  -7.048  0.00  0.00    -0.506 OA
ATOM      9  H   UNL     1       1.861  -5.571  -6.637  0.00  0.00    +0.292 HD
ENDBRANCH   7   8
BRANCH   5  10
ATOM     10  O   UNL     1       4.027  -1.986  -9.678  0.00  0.00    -0.507 OA
ATOM     11  H   UNL     1       4.639  -2.259 -10.376  0.00  0.00    +0.292 HD
ENDBRANCH   5  10
BRANCH   3  12
ATOM     12  O   UNL     1       5.964  -2.670  -5.389  0.00  0.00    -0.506 OA
ATOM     13  H   UNL     1       6.872  -2.978  -5.513  0.00  0.00    +0.292 HD
ENDBRANCH   3  12
ENDBRANCH   1   2
BRANCH   1  14
ATOM     14  C   UNL     1       5.156  -6.312  -5.233  0.00  0.00    +0.239 C 
ATOM     15  O   UNL     1       4.552  -7.360  -5.149  0.00  0.00    -0.273 OA
ATOM     16  N   UNL     1       6.456  -6.310  -5.592  0.00  0.00    -0.309 N 
ATOM     17  H   UNL     1       6.939  -5.472  -5.660  0.00  0.00    +0.149 HD
BRANCH  16  18
ATOM     18  C   UNL     1       7.138  -7.574  -5.879  0.00  0.00    +0.026 C 
ATOM     19  C   UNL     1       6.435  -8.281  -7.040  0.00  0.00    +0.031 C 
ATOM     20  C   UNL     1       8.593  -7.293  -6.259  0.00  0.00    +0.031 C 
ATOM     21  C   UNL     1       7.098  -8.469  -4.638  0.00  0.00    +0.031 C 
ENDBRANCH  16  18
ENDBRANCH   1  14
BRANCH   1  22
ATOM     22  N   UNL     1       3.115  -5.288  -4.413  0.00  0.00    -0.282 N 
ATOM     23  C   UNL     1       2.490  -4.373  -3.646  0.00  0.00    +0.240 C 
ATOM     24  O   UNL     1       2.993  -3.280  -3.470  0.00  0.00    -0.271 OA
BRANCH  23  25
ATOM     25  C   UNL     1       1.198  -4.697  -3.020  0.00  0.00    +0.066 C 
ATOM     26  C   UNL     1       0.610  -3.817  -2.215  0.00  0.00    -0.071 C 
ATOM     27  C   UNL     1       1.347  -2.570  -1.795  0.00  0.00    +0.039 C 
ATOM     28  C   UNL     1      -0.792  -4.065  -1.722  0.00  0.00    +0.039 C 
ENDBRANCH  23  25
BRANCH  22  29
ATOM     29  C   UNL     1       2.455  -6.559  -4.721  0.00  0.00    +0.109 C 
BRANCH  29  30
ATOM     30  C   UNL     1       2.732  -7.563  -3.600  0.00  0.00    +0.019 C 
BRANCH  30  31
ATOM     31  C   UNL     1       2.043  -8.890  -3.922  0.00  0.00    +0.002 C 
BRANCH  31  32
ATOM     32  C   UNL     1       2.320  -9.894  -2.801  0.00  0.00    -0.000 C 
BRANCH  32  34
ATOM     33  C   UNL     1       1.908 -12.226  -2.003  0.00  0.00    +0.004 C 
ATOM     34  C   UNL     1       1.631 -11.222  -3.124  0.00  0.00    -0.003 C 
ENDBRANCH  32  34
ENDBRANCH  31  32
ENDBRANCH  30  31
ENDBRANCH  29  30
ENDBRANCH  22  29
ENDBRANCH   1  22
TORSDOF 13
