REMARK  Name = ZINC14275950
REMARK  8 active torsions:
REMARK  status: ('A' for Active; 'I' for Inactive)
REMARK    1  A    between atoms: C_3  and  S_28
REMARK    2  A    between atoms: C_6  and  N_7
REMARK    3  A    between atoms: N_7  and  C_8
REMARK    4  A    between atoms: C_8  and  N_10
REMARK    5  A    between atoms: C_11  and  C_13
REMARK    6  A    between atoms: C_14  and  C_15
REMARK    7  A    between atoms: C_18  and  C_20
REMARK    8  A    between atoms: S_28  and  N_31
REMARK                            x       y       z     vdW  Elec       q    Type
REMARK                         _______ _______ _______ _____ _____    ______ ____
ROOT
ATOM      1  N   UNL     1       4.981  -3.539  -0.475  0.00  0.00    -0.264 N 
ATOM      2  C   UNL     1       3.708  -3.311  -0.853  0.00  0.00    +0.242 C 
ATOM      3  O   UNL     1       2.995  -4.241  -1.187  0.00  0.00    -0.270 OA
ATOM      4  H   UNL     1       5.548  -2.799  -0.209  0.00  0.00    +0.157 HD
ENDROOT
BRANCH   1   5
ATOM      5  C   UNL     1       5.466  -4.797  -0.466  0.00  0.00    +0.141 C 
ATOM      6  S   UNL     1       4.465  -6.104  -0.935  0.00  0.00    -0.018 S 
BRANCH   5   7
ATOM      7  N   UNL     1       6.739  -5.025  -0.088  0.00  0.00    -0.297 N 
ATOM      8  H   UNL     1       7.325  -4.280   0.118  0.00  0.00    +0.154 HD
BRANCH   7  14
ATOM      9  C   UNL     1       7.963  -6.728   1.110  0.00  0.00    +0.025 A 
ATOM     10  C   UNL     1       8.428  -8.025   1.203  0.00  0.00    +0.030 A 
ATOM     11  C   UNL     1       8.160  -8.931   0.193  0.00  0.00    +0.105 A 
ATOM     12  C   UNL     1       7.421  -8.543  -0.910  0.00  0.00    +0.030 A 
ATOM     13  C   UNL     1       6.949  -7.249  -1.006  0.00  0.00    +0.025 A 
ATOM     14  C   UNL     1       7.216  -6.337   0.006  0.00  0.00    +0.033 A 
BRANCH  11  15
ATOM     15  S   UNL     1       8.761 -10.583   0.311  0.00  0.00    +0.056 S 
ATOM     16  O   UNL     1       8.960 -10.845   1.694  0.00  0.00    -0.153 OA
ATOM     17  O   UNL     1       7.914 -11.383  -0.502  0.00  0.00    -0.153 OA
BRANCH  15  18
ATOM     18  N   UNL     1      10.259 -10.611  -0.396  0.00  0.00    -0.204 NA
ATOM     19  H   UNL     1      10.633  -9.799  -0.772  0.00  0.00    +0.144 HD
ATOM     20  H   UNL     1      10.762 -11.439  -0.432  0.00  0.00    +0.144 HD
ENDBRANCH  15  18
ENDBRANCH  11  15
ENDBRANCH   7  14
ENDBRANCH   5   7
ENDBRANCH   1   5
BRANCH   2  21
ATOM     21  C   UNL     1       3.199  -1.993  -0.863  0.00  0.00    +0.071 C 
ATOM     22  C   UNL     1       1.915  -1.762  -1.244  0.00  0.00    +0.051 C 
BRANCH  22  23
ATOM     23  C   UNL     1       1.407  -0.444  -1.253  0.00  0.00    +0.129 A 
ATOM     24  C   UNL     1       0.126  -0.072  -1.617  0.00  0.00    +0.050 A 
ATOM     25  C   UNL     1       0.054   1.317  -1.479  0.00  0.00    +0.050 A 
ATOM     26  C   UNL     1       1.287   1.741  -1.038  0.00  0.00    +0.136 A 
ATOM     27  O   UNL     1       2.088   0.669  -0.908  0.00  0.00    -0.455 OA
BRANCH  26  28
ATOM     28  C   UNL     1       1.666   3.140  -0.755  0.00  0.00    +0.020 A 
ATOM     29  C   UNL     1       0.739   4.168  -0.937  0.00  0.00    +0.031 A 
ATOM     30  C   UNL     1       1.098   5.473  -0.665  0.00  0.00    +0.043 A 
ATOM     31  C   UNL     1       2.378   5.765  -0.224  0.00  0.00    +0.040 A 
ATOM     32  C   UNL     1       3.304   4.750  -0.048  0.00  0.00    +0.043 A 
ATOM     33  C   UNL     1       2.955   3.440  -0.311  0.00  0.00    +0.031 A 
ATOM     34 CL   UNL     1       4.906   5.126   0.504  0.00  0.00    -0.083 Cl
ATOM     35 CL   UNL     1      -0.055   6.753  -0.884  0.00  0.00    -0.083 Cl
ENDBRANCH  26  28
ENDBRANCH  22  23
ENDBRANCH   2  21
TORSDOF 8
