REMARK  Name = ZINC14271569
REMARK  10 active torsions:
REMARK  status: ('A' for Active; 'I' for Inactive)
REMARK    1  A    between atoms: C_1  and  C_2
REMARK    2  A    between atoms: C_2  and  C_3
REMARK    3  A    between atoms: C_2  and  C_4
REMARK    4  A    between atoms: C_2  and  C_5
REMARK    5  A    between atoms: C_12  and  N_17
REMARK    6  A    between atoms: C_13  and  C_14
REMARK    7  A    between atoms: N_17  and  C_18
REMARK    8  A    between atoms: C_18  and  N_20
REMARK    9  A    between atoms: C_21  and  C_23
REMARK   10  A    between atoms: C_28  and  N_29
REMARK                            x       y       z     vdW  Elec       q    Type
REMARK                         _______ _______ _______ _____ _____    ______ ____
ROOT
ATOM      1  C   UNL     1      -6.711  -0.791   0.632  0.00  0.00    -0.000 C 
ATOM      2  C   UNL     1      -6.988   0.416   1.533  0.00  0.00    +0.009 C 
ATOM      3  C   UNL     1      -6.205   1.630   1.030  0.00  0.00    +0.037 C 
ATOM      4  C   UNL     1      -4.740   1.240   0.875  0.00  0.00    -0.023 A 
ATOM      5  C   UNL     1      -4.370  -0.057   0.804  0.00  0.00    -0.004 A 
ATOM      6  S   UNL     1      -2.608  -0.016   0.632  0.00  0.00    -0.077 S 
ATOM      7  C   UNL     1      -2.365   1.699   0.655  0.00  0.00    +0.084 A 
ATOM      8  C   UNL     1      -3.651   2.199   0.800  0.00  0.00    +0.068 A 
ATOM      9  C   UNL     1      -5.265  -1.256   0.859  0.00  0.00    +0.046 C 
ENDROOT
BRANCH   8  10
ATOM     10  C   UNL     1      -3.903   3.642   0.870  0.00  0.00    +0.244 C 
ATOM     11  O   UNL     1      -4.113   4.273  -0.148  0.00  0.00    -0.270 OA
ATOM     12  N   UNL     1      -3.901   4.268   2.064  0.00  0.00    -0.325 N 
ATOM     13  H   UNL     1      -3.733   3.764   2.876  0.00  0.00    +0.145 HD
ATOM     14  H   UNL     1      -4.067   5.223   2.111  0.00  0.00    +0.145 HD
ENDBRANCH   8  10
BRANCH   1  16
ATOM     15  C   UNL     1      -7.491  -2.315   2.452  0.00  0.00    +0.011 C 
ATOM     16  C   UNL     1      -7.676  -1.925   0.984  0.00  0.00    -0.035 C 
ATOM     17  C   UNL     1      -9.115  -1.459   0.758  0.00  0.00    +0.011 C 
ATOM     18  C   UNL     1      -7.386  -3.136   0.095  0.00  0.00    +0.011 C 
ENDBRANCH   1  16
BRANCH   7  19
ATOM     19  N   UNL     1      -1.174   2.401   0.557  0.00  0.00    -0.291 N 
ATOM     20  H   UNL     1      -1.179   3.370   0.584  0.00  0.00    +0.154 HD
BRANCH  19  21
ATOM     21  C   UNL     1      -0.009   1.736   0.425  0.00  0.00    +0.141 C 
ATOM     22  S   UNL     1      -0.000   0.025   0.378  0.00  0.00    -0.018 S 
BRANCH  21  23
ATOM     23  N   UNL     1       1.149   2.419   0.325  0.00  0.00    -0.263 N 
ATOM     24  C   UNL     1       2.313   1.754   0.187  0.00  0.00    +0.252 C 
ATOM     25  O   UNL     1       2.320   0.539   0.154  0.00  0.00    -0.270 OA
ATOM     26  H   UNL     1       1.144   3.388   0.352  0.00  0.00    +0.157 HD
BRANCH  24  27
ATOM     27  C   UNL     1       3.583   2.503   0.077  0.00  0.00    +0.067 A 
ATOM     28  C   UNL     1       3.569   3.896  -0.021  0.00  0.00    +0.015 A 
ATOM     29  C   UNL     1       4.758   4.588  -0.123  0.00  0.00    +0.001 A 
ATOM     30  C   UNL     1       5.962   3.906  -0.129  0.00  0.00    +0.002 A 
ATOM     31  C   UNL     1       5.982   2.526  -0.032  0.00  0.00    +0.033 A 
ATOM     32  C   UNL     1       4.801   1.821   0.077  0.00  0.00    +0.138 A 
BRANCH  32  33
ATOM     33  N   UNL     1       4.825   0.345   0.187  0.00  0.00    +0.057 N 
ATOM     34  O   UNL     1       4.202  -0.209   1.075  0.00  0.00    -0.126 OA
ATOM     35  O   UNL     1       5.468  -0.314  -0.610  0.00  0.00    -0.126 OA
ENDBRANCH  32  33
ENDBRANCH  24  27
ENDBRANCH  21  23
ENDBRANCH  19  21
ENDBRANCH   7  19
TORSDOF 7
