REMARK  Name = ZINC09316572
REMARK  9 active torsions:
REMARK  status: ('A' for Active; 'I' for Inactive)
REMARK    1  A    between atoms: C_1  and  C_2
REMARK    2  A    between atoms: C_5  and  N_9
REMARK    3  A    between atoms: C_6  and  C_8
REMARK    4  A    between atoms: C_10  and  C_12
REMARK    5  A    between atoms: C_19  and  C_22
REMARK    6  A    between atoms: C_20  and  N_21
REMARK    7  A    between atoms: C_22  and  C_24
REMARK    8  A    between atoms: C_28  and  O_30
REMARK    9  A    between atoms: O_30  and  C_31
REMARK                            x       y       z     vdW  Elec       q    Type
REMARK                         _______ _______ _______ _____ _____    ______ ____
ROOT
ATOM      1  C   UNL     1      -8.059   0.125   3.432  0.00  0.00    +0.083 A 
ATOM      2  C   UNL     1      -8.222   0.863   4.627  0.00  0.00    +0.061 A 
ATOM      3  C   UNL     1      -9.321   1.022   5.481  0.00  0.00    +0.027 A 
ATOM      4  C   UNL     1      -9.200   1.809   6.591  0.00  0.00    +0.003 A 
ATOM      5  C   UNL     1      -7.979   2.442   6.854  0.00  0.00    +0.018 A 
ATOM      6  C   UNL     1      -6.931   2.275   6.015  0.00  0.00    +0.092 A 
ATOM      7  N   UNL     1      -7.043   1.491   4.907  0.00  0.00    -0.311 N 
ATOM      8  C   UNL     1      -6.122   1.175   3.917  0.00  0.00    +0.116 A 
ATOM      9  C   UNL     1      -6.737   0.333   2.993  0.00  0.00    +0.067 A 
ENDROOT
BRANCH   1  11
ATOM     10  N   UNL     1      -9.196  -2.000   3.088  0.00  0.00    -0.281 N 
ATOM     11  C   UNL     1      -9.075  -0.695   2.773  0.00  0.00    +0.252 C 
ATOM     12  O   UNL     1      -9.810  -0.200   1.938  0.00  0.00    -0.270 OA
ATOM     13  H   UNL     1      -8.655  -2.380   3.798  0.00  0.00    +0.155 HD
BRANCH  10  18
ATOM     14  C   UNL     1     -12.870  -5.271   0.262  0.00  0.00    +0.044 C 
ATOM     15  C   UNL     1     -11.894  -4.402   1.014  0.00  0.00    -0.050 A 
ATOM     16  C   UNL     1     -12.200  -3.076   1.262  0.00  0.00    +0.005 A 
ATOM     17  C   UNL     1     -11.307  -2.277   1.949  0.00  0.00    +0.024 A 
ATOM     18  C   UNL     1     -10.102  -2.807   2.392  0.00  0.00    +0.037 A 
ATOM     19  C   UNL     1      -9.796  -4.137   2.137  0.00  0.00    -0.029 A 
ATOM     20  C   UNL     1     -10.695  -4.932   1.453  0.00  0.00    +0.008 A 
ATOM     21  C   UNL     1      -8.487  -4.714   2.610  0.00  0.00    +0.045 C 
ENDBRANCH  10  18
ENDBRANCH   1  11
BRANCH   9  22
ATOM     22  N   UNL     1      -6.155  -0.202   1.855  0.00  0.00    -0.356 N 
ATOM     23  H   UNL     1      -5.213  -0.057   1.678  0.00  0.00    +0.142 HD
ATOM     24  H   UNL     1      -6.691  -0.720   1.234  0.00  0.00    +0.142 HD
ENDBRANCH   9  22
BRANCH   8  25
ATOM     25  C   UNL     1      -4.792   1.633   3.856  0.00  0.00    +0.212 C 
ATOM     26  O   UNL     1      -4.541   2.712   3.348  0.00  0.00    -0.285 OA
BRANCH  25  27
ATOM     27  C   UNL     1      -3.697   0.803   4.407  0.00  0.00    +0.027 A 
ATOM     28  C   UNL     1      -3.990  -0.383   5.083  0.00  0.00    +0.012 A 
ATOM     29  C   UNL     1      -2.967  -1.154   5.597  0.00  0.00    +0.004 A 
ATOM     30  C   UNL     1      -1.651  -0.758   5.439  0.00  0.00    +0.045 A 
ATOM     31  C   UNL     1      -1.351   0.422   4.773  0.00  0.00    +0.121 A 
ATOM     32  C   UNL     1      -2.370   1.203   4.254  0.00  0.00    +0.057 A 
BRANCH  31  33
ATOM     33  O   UNL     1      -0.057   0.809   4.626  0.00  0.00    -0.495 OA
ATOM     34  C   UNL     1       0.943  -0.045   5.186  0.00  0.00    +0.277 C 
ENDBRANCH  31  33
ENDBRANCH  25  27
ENDBRANCH   8  25
TORSDOF 6
