REMARK  Name = ZINC67220082
REMARK  7 active torsions:
REMARK  status: ('A' for Active; 'I' for Inactive)
REMARK    1  A    between atoms: C_2  and  C_3
REMARK    2  A    between atoms: C_7  and  N_9
REMARK    3  A    between atoms: N_9  and  C_10
REMARK    4  A    between atoms: C_10  and  N_12
REMARK    5  A    between atoms: N_12  and  N_13
REMARK    6  A    between atoms: C_14  and  C_16
REMARK    7  A    between atoms: C_21  and  N_22
REMARK                            x       y       z     vdW  Elec       q    Type
REMARK                         _______ _______ _______ _____ _____    ______ ____
ROOT
ATOM      1  N   UNL     1       4.730   5.718  -0.154  0.00  0.00    -0.231 N 
ATOM      2  C   UNL     1       5.900   6.370  -0.306  0.00  0.00    +0.262 C 
ATOM      3  O   UNL     1       5.912   7.582  -0.403  0.00  0.00    -0.269 OA
ATOM      4  H   UNL     1       4.721   4.751  -0.076  0.00  0.00    +0.173 HD
ENDROOT
BRANCH   2   5
ATOM      5  C   UNL     1       7.166   5.614  -0.354  0.00  0.00    +0.072 A 
ATOM      6  C   UNL     1       7.500   4.739   0.684  0.00  0.00    +0.064 A 
ATOM      7  C   UNL     1       8.686   4.031   0.635  0.00  0.00    +0.163 A 
ATOM      8  C   UNL     1       9.547   4.189  -0.449  0.00  0.00    +0.164 A 
ATOM      9  C   UNL     1       9.215   5.060  -1.479  0.00  0.00    +0.083 A 
ATOM     10  C   UNL     1       8.032   5.765  -1.439  0.00  0.00    +0.142 A 
ATOM     11  O   UNL     1      10.713   3.494  -0.516  0.00  0.00    -0.485 OA
ATOM     12  C   UNL     1      11.191   2.917   0.704  0.00  0.00    +0.270 C 
ATOM     13  C   UNL     1      10.015   2.212   1.394  0.00  0.00    +0.270 C 
ATOM     14  O   UNL     1       8.999   3.186   1.655  0.00  0.00    -0.485 OA
BRANCH  10  15
ATOM     15  N   UNL     1       7.681   6.687  -2.543  0.00  0.00    +0.057 N 
ATOM     16  O   UNL     1       8.486   6.920  -3.414  0.00  0.00    -0.126 OA
ATOM     17  O   UNL     1       6.590   7.208  -2.572  0.00  0.00    -0.126 OA
ENDBRANCH  10  15
ENDBRANCH   2   5
BRANCH   1  18
ATOM     18  N   UNL     1       3.528   6.436  -0.108  0.00  0.00    -0.245 N 
ATOM     19  H   UNL     1       3.538   7.403  -0.186  0.00  0.00    +0.172 HD
BRANCH  18  20
ATOM     20  C   UNL     1       2.359   5.784   0.043  0.00  0.00    +0.151 C 
ATOM     21  S   UNL     1       0.890   6.662   0.099  0.00  0.00    -0.017 S 
BRANCH  20  22
ATOM     22  N   UNL     1       2.345   4.441   0.151  0.00  0.00    -0.296 N 
ATOM     23  H   UNL     1       3.181   3.950   0.202  0.00  0.00    +0.154 HD
BRANCH  22  28
ATOM     24  C   UNL     1      -1.126   3.453  -0.597  0.00  0.00    +0.026 A 
ATOM     25  C   UNL     1      -1.284   2.381   0.283  0.00  0.00    +0.017 A 
ATOM     26  C   UNL     1      -0.242   2.003   1.105  0.00  0.00    +0.003 A 
ATOM     27  C   UNL     1       0.960   2.684   1.062  0.00  0.00    +0.023 A 
ATOM     28  C   UNL     1       1.127   3.754   0.191  0.00  0.00    +0.034 A 
ATOM     29  C   UNL     1       0.088   4.137  -0.644  0.00  0.00    +0.040 A 
BRANCH  24  31
ATOM     30  C   UNL     1      -3.090   4.169  -2.152  0.00  0.00    +0.009 C 
ATOM     31  C   UNL     1      -2.205   3.846  -1.451  0.00  0.00    -0.070 C 
ENDBRANCH  24  31
ENDBRANCH  22  28
ENDBRANCH  20  22
ENDBRANCH  18  20
ENDBRANCH   1  18
TORSDOF 7
