REMARK  Name = ZINC31808252
REMARK  8 active torsions:
REMARK  status: ('A' for Active; 'I' for Inactive)
REMARK    1  A    between atoms: C_1  and  C_2
REMARK    2  A    between atoms: C_3  and  S_12
REMARK    3  A    between atoms: S_12  and  N_15
REMARK    4  A    between atoms: C_19  and  C_22
REMARK    5  A    between atoms: N_24  and  C_25
REMARK    6  A    between atoms: C_25  and  C_26
REMARK    7  A    between atoms: C_26  and  C_27
REMARK    8  A    between atoms: C_26  and  C_28
REMARK                            x       y       z     vdW  Elec       q    Type
REMARK                         _______ _______ _______ _____ _____    ______ ____
ROOT
ATOM      1  S   UNL     1       3.849   2.299  -0.023  0.00  0.00    +0.068 S 
ATOM      2  O   UNL     1       4.690   1.667  -0.978  0.00  0.00    -0.153 OA
ATOM      3  O   UNL     1       3.506   3.676  -0.103  0.00  0.00    -0.153 OA
ENDROOT
BRANCH   1   6
ATOM      4  C   UNL     1       1.119   3.561   0.011  0.00  0.00    +0.065 C 
ATOM      5  C   UNL     1       1.152   2.054   0.002  0.00  0.00    +0.049 A 
ATOM      6  C   UNL     1       2.334   1.401  -0.013  0.00  0.00    +0.188 A 
ATOM      7  C   UNL     1       2.338  -0.014  -0.021  0.00  0.00    +0.281 A 
ATOM      8  O   UNL     1       3.392  -0.625  -0.035  0.00  0.00    -0.266 OA
ATOM      9  N   UNL     1       1.166  -0.680  -0.013  0.00  0.00    -0.273 N 
ATOM     10  H   UNL     1       1.158  -1.780  -0.019  0.00  0.00    +0.173 HD
ATOM     11  C   UNL     1       0.002  -0.004   0.002  0.00  0.00    +0.327 A 
ATOM     12  O   UNL     1      -1.048  -0.618   0.009  0.00  0.00    -0.247 OA
ATOM     13  N   UNL     1      -0.016   1.341   0.009  0.00  0.00    -0.310 N 
ATOM     14  H   UNL     1      -0.982   1.868   0.021  0.00  0.00    +0.170 HD
ENDBRANCH   1   6
BRANCH   1  15
ATOM     15  N   UNL     1       4.561   2.075   1.456  0.00  0.00    -0.176 NA
ATOM     16  C   UNL     1       4.286   2.997   2.566  0.00  0.00    +0.109 C 
ATOM     17  C   UNL     1       3.818   2.176   3.778  0.00  0.00    +0.018 C 
ATOM     18  C   UNL     1       4.864   1.104   4.095  0.00  0.00    +0.015 C 
ATOM     19  C   UNL     1       5.007   0.159   2.900  0.00  0.00    +0.091 C 
ATOM     20  C   UNL     1       5.484   0.954   1.680  0.00  0.00    +0.122 C 
BRANCH  19  21
ATOM     21  C   UNL     1       6.013  -0.914   3.225  0.00  0.00    +0.217 C 
ATOM     22  O   UNL     1       7.013  -1.034   2.549  0.00  0.00    -0.275 OA
ATOM     23  N   UNL     1       5.802  -1.742   4.268  0.00  0.00    -0.315 N 
ATOM     24  H   UNL     1       4.895  -1.634   4.881  0.00  0.00    +0.149 HD
BRANCH  23  25
ATOM     25  C   UNL     1       6.780  -2.786   4.584  0.00  0.00    +0.107 C 
BRANCH  25  26
ATOM     26  C   UNL     1       6.303  -3.579   5.803  0.00  0.00    -0.000 C 
ATOM     27  C   UNL     1       5.014  -4.325   5.453  0.00  0.00    +0.009 C 
ATOM     28  C   UNL     1       7.381  -4.587   6.209  0.00  0.00    +0.009 C 
ENDBRANCH  25  26
ENDBRANCH  23  25
ENDBRANCH  19  21
ENDBRANCH   1  15
TORSDOF 5
