REMARK  Name = ZINC20907505
REMARK  7 active torsions:
REMARK  status: ('A' for Active; 'I' for Inactive)
REMARK    1  A    between atoms: C_1  and  C_2
REMARK    2  A    between atoms: C_9  and  C_11
REMARK    3  A    between atoms: C_11  and  S_12
REMARK    4  A    between atoms: S_12  and  C_13
REMARK    5  A    between atoms: N_19  and  N_20
REMARK    6  A    between atoms: C_21  and  C_22
REMARK    7  A    between atoms: C_31  and  O_32
REMARK                            x       y       z     vdW  Elec       q    Type
REMARK                         _______ _______ _______ _____ _____    ______ ____
ROOT
ATOM      1  C   UNL     1      -1.417  -7.701   3.358  0.00  0.00    +0.210 A 
ATOM      2  N   UNL     1      -2.413  -8.493   3.768  0.00  0.00    -0.186 NA
ATOM      3  C   UNL     1      -1.917  -9.570   4.339  0.00  0.00    +0.232 A 
ATOM      4  N   UNL     1      -0.570  -9.479   4.301  0.00  0.00    -0.245 N 
ATOM      5  H   UNL     1       0.066 -10.124   4.646  0.00  0.00    +0.192 HD
ATOM      6  N   UNL     1      -0.272  -8.266   3.658  0.00  0.00    -0.144 NA
ATOM      7  N   UNL     1      -2.645 -10.611   4.883  0.00  0.00    -0.205 N 
ATOM      8  H   UNL     1      -2.187 -11.366   5.285  0.00  0.00    +0.177 HD
ENDROOT
BRANCH   7   9
ATOM      9  N   UNL     1      -4.045 -10.576   4.854  0.00  0.00    -0.187 NA
ATOM     10  C   UNL     1      -4.731 -11.556   5.365  0.00  0.00    +0.142 C 
BRANCH  10  11
ATOM     11  C   UNL     1      -6.200 -11.519   5.335  0.00  0.00    +0.044 A 
ATOM     12  C   UNL     1      -6.986 -12.609   5.911  0.00  0.00    -0.006 A 
ATOM     13  C   UNL     1      -6.372 -13.717   6.507  0.00  0.00    +0.009 A 
ATOM     14  C   UNL     1      -7.142 -14.712   7.032  0.00  0.00    +0.001 A 
ATOM     15  C   UNL     1      -8.532 -14.641   6.985  0.00  0.00    +0.001 A 
ATOM     16  C   UNL     1      -9.161 -13.578   6.413  0.00  0.00    +0.008 A 
ATOM     17  C   UNL     1      -8.399 -12.534   5.861  0.00  0.00    -0.017 A 
ATOM     18  C   UNL     1      -9.014 -11.420   5.263  0.00  0.00    +0.012 A 
ATOM     19  C   UNL     1      -8.267 -10.415   4.733  0.00  0.00    +0.046 A 
ATOM     20  C   UNL     1      -6.874 -10.441   4.762  0.00  0.00    +0.126 A 
BRANCH  20  21
ATOM     21  O   UNL     1      -6.168  -9.413   4.224  0.00  0.00    -0.506 OA
ATOM     22  H   UNL     1      -5.958  -9.527   3.288  0.00  0.00    +0.292 HD
ENDBRANCH  20  21
ENDBRANCH  10  11
ENDBRANCH   7   9
BRANCH   1  23
ATOM     23  S   UNL     1      -1.611  -6.152   2.541  0.00  0.00    -0.077 S 
BRANCH  23  24
ATOM     24  C   UNL     1       0.090  -5.594   2.249  0.00  0.00    +0.151 C 
BRANCH  24  33
ATOM     25  C   UNL     1      -0.018   1.503   0.010  0.00  0.00    +0.044 C 
ATOM     26  C   UNL     1       0.002  -0.004   0.002  0.00  0.00    -0.048 A 
ATOM     27  C   UNL     1       0.006  -0.687  -1.206  0.00  0.00    +0.005 A 
ATOM     28  C   UNL     1       0.024  -2.052  -1.235  0.00  0.00    +0.030 A 
ATOM     29  C   UNL     1       0.040  -2.774  -0.039  0.00  0.00    +0.089 A 
ATOM     30  C   UNL     1       0.037  -2.083   1.185  0.00  0.00    +0.066 A 
ATOM     31  C   UNL     1       0.023  -0.695   1.195  0.00  0.00    +0.031 A 
ATOM     32  N   UNL     1       0.055  -3.051   2.169  0.00  0.00    -0.341 N 
ATOM     33  C   UNL     1       0.068  -4.261   1.546  0.00  0.00    +0.118 A 
ATOM     34  N   UNL     1       0.059  -4.099   0.255  0.00  0.00    -0.232 NA
ATOM     35  H   UNL     1       0.058  -2.898   3.127  0.00  0.00    +0.167 HD
ENDBRANCH  24  33
ENDBRANCH  23  24
ENDBRANCH   1  23
TORSDOF 6
