REMARK  Name = ZINC00896445
REMARK  8 active torsions:
REMARK  status: ('A' for Active; 'I' for Inactive)
REMARK    1  A    between atoms: C_1  and  C_2
REMARK    2  A    between atoms: C_2  and  O_3
REMARK    3  A    between atoms: O_3  and  C_4
REMARK    4  A    between atoms: C_4  and  C_6
REMARK    5  A    between atoms: C_7  and  N_29
REMARK    6  A    between atoms: C_19  and  C_21
REMARK    7  A    between atoms: C_24  and  O_27
REMARK    8  A    between atoms: O_27  and  C_28
REMARK                            x       y       z     vdW  Elec       q    Type
REMARK                         _______ _______ _______ _____ _____    ______ ____
ROOT
ATOM      1  C   UNL     1      -0.775   1.581   3.565  0.00  0.00    +0.105 C 
ATOM      2  C   UNL     1      -0.283   1.145   4.754  0.00  0.00    +0.195 C 
ATOM      3  O   UNL     1      -0.812   1.543   5.921  0.00  0.00    -0.441 OA
ATOM      4  C   UNL     1      -1.573   2.665   5.979  0.00  0.00    +0.135 A 
ATOM      5  C   UNL     1      -1.763   3.288   7.221  0.00  0.00    +0.047 A 
ATOM      6  C   UNL     1      -2.516   4.412   7.339  0.00  0.00    +0.012 A 
ATOM      7  C   UNL     1      -3.121   4.967   6.198  0.00  0.00    -0.017 A 
ATOM      8  C   UNL     1      -3.909   6.127   6.281  0.00  0.00    +0.008 A 
ATOM      9  C   UNL     1      -4.479   6.636   5.154  0.00  0.00    +0.001 A 
ATOM     10  C   UNL     1      -4.292   6.023   3.916  0.00  0.00    +0.001 A 
ATOM     11  C   UNL     1      -3.536   4.898   3.798  0.00  0.00    +0.009 A 
ATOM     12  C   UNL     1      -2.932   4.343   4.940  0.00  0.00    -0.010 A 
ATOM     13  C   UNL     1      -2.145   3.181   4.852  0.00  0.00    +0.015 A 
ATOM     14  C   UNL     1      -1.946   2.522   3.514  0.00  0.00    +0.095 C 
ENDROOT
BRANCH  14  15
ATOM     15  C   UNL     1      -3.189   1.753   3.146  0.00  0.00    -0.035 A 
ATOM     16  C   UNL     1      -3.620   0.714   3.951  0.00  0.00    +0.008 A 
ATOM     17  C   UNL     1      -4.763   0.011   3.619  0.00  0.00    +0.046 A 
ATOM     18  C   UNL     1      -5.470   0.341   2.472  0.00  0.00    +0.120 A 
ATOM     19  C   UNL     1      -5.031   1.379   1.664  0.00  0.00    +0.046 A 
ATOM     20  C   UNL     1      -3.892   2.083   2.002  0.00  0.00    +0.008 A 
BRANCH  18  21
ATOM     21  O   UNL     1      -6.591  -0.353   2.142  0.00  0.00    -0.495 OA
ATOM     22  C   UNL     1      -6.984  -1.409   3.020  0.00  0.00    +0.277 C 
ENDBRANCH  18  21
ENDBRANCH  14  15
BRANCH   2  23
ATOM     23  N   UNL     1       0.782   0.284   4.762  0.00  0.00    -0.329 N 
ATOM     24  H   UNL     1       1.234   0.065   3.932  0.00  0.00    +0.145 HD
ATOM     25  H   UNL     1       1.085  -0.105   5.597  0.00  0.00    +0.145 HD
ENDBRANCH   2  23
BRANCH   1  26
ATOM     26  C   UNL     1      -0.187   1.142   2.370  0.00  0.00    +0.341 C 
ATOM     27  O   UNL     1       0.577   1.871   1.764  0.00  0.00    -0.245 OA
BRANCH  26  28
ATOM     28  O   UNL     1      -0.467  -0.090   1.892  0.00  0.00    -0.462 OA
BRANCH  28  30
ATOM     29  C   UNL     1      -0.268  -1.888   0.289  0.00  0.00    +0.048 C 
ATOM     30  C   UNL     1       0.168  -0.472   0.670  0.00  0.00    +0.229 C 
ENDBRANCH  28  30
ENDBRANCH  26  28
ENDBRANCH   1  26
TORSDOF 6
