REMARK  Name = ZINC02790873
REMARK  5 active torsions:
REMARK  status: ('A' for Active; 'I' for Inactive)
REMARK    1  A    between atoms: C_1  and  C_2
REMARK    2  A    between atoms: C_3  and  C_24
REMARK    3  A    between atoms: C_9  and  C_14
REMARK    4  A    between atoms: C_17  and  O_20
REMARK    5  A    between atoms: O_20  and  C_21
REMARK                            x       y       z     vdW  Elec       q    Type
REMARK                         _______ _______ _______ _____ _____    ______ ____
ROOT
ATOM      1  C   UNL     1      -1.420  -2.139   0.006  0.00  0.00    +0.045 C 
ATOM      2  C   UNL     1      -1.301  -0.636   0.012  0.00  0.00    -0.028 A 
ATOM      3  C   UNL     1      -2.404   0.133   0.028  0.00  0.00    -0.008 A 
ATOM      4  S   UNL     1      -1.748   1.791   0.036  0.00  0.00    -0.074 S 
ATOM      5  C   UNL     1      -0.017   1.403   0.010  0.00  0.00    +0.114 A 
ATOM      6  C   UNL     1       0.002  -0.004   0.002  0.00  0.00    +0.055 A 
ATOM      7  C   UNL     1       1.348  -0.610  -0.015  0.00  0.00    +0.168 A 
ATOM      8  N   UNL     1       1.778  -1.855  -0.026  0.00  0.00    -0.206 NA
ATOM      9  C   UNL     1       3.115  -1.864  -0.039  0.00  0.00    +0.182 A 
ATOM     10  N   UNL     1       3.560  -0.623  -0.037  0.00  0.00    -0.143 NA
ATOM     11  N   UNL     1       2.436   0.216  -0.021  0.00  0.00    -0.201 N 
ATOM     12  C   UNL     1       2.281   1.567  -0.013  0.00  0.00    +0.226 A 
ATOM     13  N   UNL     1       1.100   2.120   0.003  0.00  0.00    -0.228 NA
ATOM     14  C   UNL     1      -3.846  -0.302   0.040  0.00  0.00    +0.052 C 
ENDROOT
BRANCH   9  15
ATOM     15  C   UNL     1       3.965  -3.080  -0.054  0.00  0.00    +0.021 A 
ATOM     16  C   UNL     1       3.376  -4.344  -0.049  0.00  0.00    +0.015 A 
ATOM     17  C   UNL     1       4.169  -5.472  -0.067  0.00  0.00    +0.046 A 
ATOM     18  C   UNL     1       5.552  -5.351  -0.080  0.00  0.00    +0.127 A 
ATOM     19  C   UNL     1       6.141  -4.094  -0.081  0.00  0.00    +0.046 A 
ATOM     20  C   UNL     1       5.354  -2.962  -0.068  0.00  0.00    +0.015 A 
BRANCH  18  21
ATOM     21  O   UNL     1       6.330  -6.464  -0.092  0.00  0.00    -0.434 OA
BRANCH  21  22
ATOM     22  C   UNL     1       5.658  -7.726  -0.091  0.00  0.00    +0.541 C 
ATOM     23  F   UNL     1       4.868  -7.832   1.059  0.00  0.00    -0.166 F 
ATOM     24  F   UNL     1       4.846  -7.822  -1.226  0.00  0.00    -0.166 F 
ENDBRANCH  21  22
ENDBRANCH  18  21
ENDBRANCH   9  15
TORSDOF 3
