REMARK  Name = ZINC54557295
REMARK  6 active torsions:
REMARK  status: ('A' for Active; 'I' for Inactive)
REMARK    1  A    between atoms: C_1  and  C_2
REMARK    2  A    between atoms: C_2  and  C_3
REMARK    3  A    between atoms: C_2  and  C_4
REMARK    4  A    between atoms: C_7  and  C_10
REMARK    5  A    between atoms: C_7  and  N_13
REMARK    6  A    between atoms: N_13  and  C_14
REMARK                            x       y       z     vdW  Elec       q    Type
REMARK                         _______ _______ _______ _____ _____    ______ ____
ROOT
ATOM      1  C   UNL     1      -1.828  -0.150   0.335  0.00  0.00    -0.008 C 
ATOM      2  C   UNL     1      -2.589   0.339  -0.899  0.00  0.00    +0.006 C 
ATOM      3  C   UNL     1      -3.930  -0.392  -0.993  0.00  0.00    +0.035 C 
ATOM      4  C   UNL     1      -3.684  -1.897  -1.110  0.00  0.00    +0.108 C 
ATOM      5  C   UNL     1      -2.923  -2.386   0.124  0.00  0.00    +0.035 C 
ATOM      6  C   UNL     1      -1.582  -1.656   0.218  0.00  0.00    +0.006 C 
ENDROOT
BRANCH   4   7
ATOM      7  C   UNL     1      -2.871  -2.179  -2.347  0.00  0.00    +0.234 C 
ATOM      8  O   UNL     1      -2.214  -1.294  -2.855  0.00  0.00    -0.274 OA
ATOM      9  N   UNL     1      -2.872  -3.413  -2.888  0.00  0.00    -0.328 N 
ATOM     10  H   UNL     1      -3.452  -4.101  -2.525  0.00  0.00    +0.145 HD
ATOM     11  H   UNL     1      -2.293  -3.613  -3.640  0.00  0.00    +0.145 HD
ENDBRANCH   4   7
BRANCH   1  13
ATOM     12  C   UNL     1      -0.733   2.086   0.546  0.00  0.00    +0.007 C 
ATOM     13  C   UNL     1      -0.487   0.580   0.429  0.00  0.00    -0.014 C 
ATOM     14  C   UNL     1       0.275   0.091   1.663  0.00  0.00    +0.007 C 
ENDBRANCH   1  13
BRANCH   4  15
ATOM     15  N   UNL     1      -4.968  -2.596  -1.200  0.00  0.00    -0.330 N 
ATOM     16  H   UNL     1      -5.225  -3.230  -0.512  0.00  0.00    +0.147 HD
BRANCH  15  17
ATOM     17  C   UNL     1      -5.823  -2.351  -2.278  0.00  0.00    +0.028 A 
ATOM     18  C   UNL     1      -5.405  -1.543  -3.327  0.00  0.00    +0.024 A 
ATOM     19  C   UNL     1      -6.253  -1.302  -4.391  0.00  0.00    +0.017 A 
ATOM     20  C   UNL     1      -7.516  -1.864  -4.412  0.00  0.00    +0.018 A 
ATOM     21  C   UNL     1      -7.935  -2.670  -3.368  0.00  0.00    +0.017 A 
ATOM     22  C   UNL     1      -7.090  -2.919  -2.304  0.00  0.00    +0.024 A 
ATOM     23 BR   UNL     1      -8.674  -1.531  -5.870  0.00  0.00    -0.050 Br
ENDBRANCH  15  17
ENDBRANCH   4  15
TORSDOF 4
