REMARK  Name = ZINC09161442
REMARK  7 active torsions:
REMARK  status: ('A' for Active; 'I' for Inactive)
REMARK    1  A    between atoms: C_1  and  C_2
REMARK    2  A    between atoms: C_5  and  C_8
REMARK    3  A    between atoms: C_8  and  N_9
REMARK    4  A    between atoms: C_13  and  N_28
REMARK    5  A    between atoms: C_14  and  N_16
REMARK    6  A    between atoms: C_21  and  C_22
REMARK    7  A    between atoms: C_21  and  N_59
REMARK                            x       y       z     vdW  Elec       q    Type
REMARK                         _______ _______ _______ _____ _____    ______ ____
ROOT
ATOM      1  N   UNL     1      -2.395   4.024   0.333  0.00  0.00    -0.309 N 
ATOM      2  C   UNL     1      -1.187   3.370   0.172  0.00  0.00    +0.219 A 
ATOM      3  N   UNL     1      -1.171   2.046   0.125  0.00  0.00    -0.197 NA
ATOM      4  C   UNL     1      -0.028   1.383  -0.025  0.00  0.00    +0.154 A 
ATOM      5  C   UNL     1       1.160   2.098  -0.144  0.00  0.00    +0.205 A 
ATOM      6  C   UNL     1       1.104   3.488  -0.096  0.00  0.00    +0.159 A 
ATOM      7  N   UNL     1      -0.077   4.083   0.061  0.00  0.00    -0.197 NA
ATOM      8  N   UNL     1      -0.020  -0.003  -0.067  0.00  0.00    -0.341 N 
ATOM      9  H   UNL     1      -2.421   4.994   0.365  0.00  0.00    +0.149 HD
ATOM     10  H   UNL     1       0.817  -0.480  -0.180  0.00  0.00    +0.144 HD
ATOM     11  H   UNL     1      -0.851  -0.495   0.017  0.00  0.00    +0.144 HD
ENDROOT
BRANCH   6  12
ATOM     12  N   UNL     1       2.261   4.242  -0.211  0.00  0.00    -0.317 N 
ATOM     13  C   UNL     1       2.495   5.037   1.003  0.00  0.00    +0.088 C 
ATOM     14  C   UNL     1       3.819   5.792   0.868  0.00  0.00    -0.059 C 
ATOM     15  C   UNL     1       3.536   5.859  -1.535  0.00  0.00    -0.059 C 
ATOM     16  C   UNL     1       2.212   5.104  -1.400  0.00  0.00    +0.088 C 
ATOM     17  N   UNL     1       3.748   6.671  -0.318  0.00  0.00    +0.384 N 
ATOM     18  H   UNL     1       2.958   7.318  -0.207  0.00  0.00    -0.081 HD
BRANCH  17  19
ATOM     19  C   UNL     1       4.996   7.453  -0.443  0.00  0.00    -0.043 C 
BRANCH  19  20
ATOM     20  C   UNL     1       5.075   8.431   0.702  0.00  0.00    -0.064 A 
ATOM     21  C   UNL     1       4.523   9.691   0.573  0.00  0.00    +0.002 A 
ATOM     22  C   UNL     1       4.590  10.586   1.625  0.00  0.00    +0.000 A 
ATOM     23  C   UNL     1       5.219  10.223   2.801  0.00  0.00    +0.000 A 
ATOM     24  C   UNL     1       5.776   8.965   2.928  0.00  0.00    +0.000 A 
ATOM     25  C   UNL     1       5.704   8.068   1.878  0.00  0.00    +0.002 A 
ENDBRANCH  19  20
ENDBRANCH  17  19
ENDBRANCH   6  12
BRANCH   5  26
ATOM     26  N   UNL     1       2.453   1.398  -0.317  0.00  0.00    +0.063 N 
ATOM     27  O   UNL     1       2.861   1.141  -1.435  0.00  0.00    -0.126 OA
ATOM     28  O   UNL     1       3.108   1.079   0.659  0.00  0.00    -0.126 OA
ENDBRANCH   5  26
BRANCH   1  29
ATOM     29  C   UNL     1      -3.635   3.254   0.457  0.00  0.00    +0.139 C 
BRANCH  29  34
ATOM     30  C   UNL     1      -8.097   6.871   1.090  0.00  0.00    +0.044 C 
ATOM     31  C   UNL     1      -6.934   5.928   0.925  0.00  0.00    -0.050 A 
ATOM     32  C   UNL     1      -6.540   5.530  -0.339  0.00  0.00    +0.003 A 
ATOM     33  C   UNL     1      -5.472   4.665  -0.490  0.00  0.00    +0.005 A 
ATOM     34  C   UNL     1      -4.798   4.197   0.622  0.00  0.00    -0.030 A 
ATOM     35  C   UNL     1      -5.195   4.591   1.887  0.00  0.00    +0.005 A 
ATOM     36  C   UNL     1      -6.260   5.460   2.038  0.00  0.00    +0.003 A 
ENDBRANCH  29  34
ENDBRANCH   1  29
TORSDOF 6
