REMARK  Name = ZINC47757474
REMARK  9 active torsions:
REMARK  status: ('A' for Active; 'I' for Inactive)
REMARK    1  A    between atoms: C_1  and  C_2
REMARK    2  A    between atoms: C_2  and  C_4
REMARK    3  A    between atoms: C_2  and  N_13
REMARK    4  A    between atoms: C_4  and  C_5
REMARK    5  A    between atoms: C_5  and  C_6
REMARK    6  A    between atoms: C_9  and  O_12
REMARK    7  A    between atoms: N_16  and  C_17
REMARK    8  A    between atoms: C_20  and  C_23
REMARK    9  A    between atoms: N_25  and  C_26
REMARK                            x       y       z     vdW  Elec       q    Type
REMARK                         _______ _______ _______ _____ _____    ______ ____
ROOT
ATOM      1  N   UNL     1       0.710  -0.495   1.188  0.00  0.00    -0.297 N 
ATOM      2  C   UNL     1       0.052  -0.631   2.356  0.00  0.00    +0.304 C 
ATOM      3  O   UNL     1      -1.129  -0.349   2.425  0.00  0.00    -0.253 OA
ATOM      4  N   UNL     1       0.703  -1.080   3.447  0.00  0.00    -0.269 N 
ATOM      5  H   UNL     1       1.652  -0.720   1.132  0.00  0.00    +0.151 HD
ATOM      6  H   UNL     1       1.627  -1.368   3.377  0.00  0.00    +0.156 HD
ENDROOT
BRANCH   4   7
ATOM      7  C   UNL     1       0.049  -1.130   4.678  0.00  0.00    +0.035 A 
ATOM      8  C   UNL     1      -1.304  -1.448   4.732  0.00  0.00    +0.024 A 
ATOM      9  C   UNL     1      -1.953  -1.499   5.945  0.00  0.00    +0.015 A 
ATOM     10  C   UNL     1      -1.251  -1.231   7.123  0.00  0.00    +0.037 A 
ATOM     11  C   UNL     1       0.109  -0.912   7.065  0.00  0.00    +0.015 A 
ATOM     12  C   UNL     1       0.753  -0.868   5.849  0.00  0.00    +0.024 A 
BRANCH  10  13
ATOM     13  C   UNL     1      -1.943  -1.284   8.425  0.00  0.00    +0.244 C 
ATOM     14  O   UNL     1      -3.126  -1.560   8.474  0.00  0.00    -0.270 OA
ATOM     15  N   UNL     1      -1.264  -1.025   9.560  0.00  0.00    -0.308 N 
ATOM     16  H   UNL     1      -0.320  -0.804   9.521  0.00  0.00    +0.149 HD
BRANCH  15  17
ATOM     17  C   UNL     1      -1.951  -1.077  10.853  0.00  0.00    +0.073 C 
ATOM     18  C   UNL     1      -2.579   0.295  11.174  0.00  0.00    +0.022 C 
ATOM     19  C   UNL     1      -2.390   0.451  12.703  0.00  0.00    +0.002 C 
ATOM     20  C   UNL     1      -0.990  -0.168  12.939  0.00  0.00    +0.002 C 
ATOM     21  C   UNL     1      -0.941  -1.371  11.976  0.00  0.00    +0.022 C 
ENDBRANCH  15  17
ENDBRANCH  10  13
ENDBRANCH   4   7
BRANCH   1  23
ATOM     22  C   UNL     1      -0.007   1.523   0.006  0.00  0.00    +0.028 C 
ATOM     23  C   UNL     1       0.002  -0.007   0.001  0.00  0.00    +0.072 C 
BRANCH  23  24
ATOM     24  C   UNL     1       0.711  -0.509  -1.258  0.00  0.00    +0.026 C 
BRANCH  24  25
ATOM     25  C   UNL     1       0.612  -2.034  -1.326  0.00  0.00    +0.037 C 
BRANCH  25  26
ATOM     26  C   UNL     1       1.310  -2.528  -2.567  0.00  0.00    -0.047 A 
ATOM     27  C   UNL     1       0.608  -2.655  -3.751  0.00  0.00    +0.007 A 
ATOM     28  C   UNL     1       1.246  -3.108  -4.889  0.00  0.00    +0.045 A 
ATOM     29  C   UNL     1       2.593  -3.436  -4.843  0.00  0.00    +0.117 A 
ATOM     30  C   UNL     1       3.296  -3.307  -3.655  0.00  0.00    +0.045 A 
ATOM     31  C   UNL     1       2.655  -2.849  -2.520  0.00  0.00    +0.007 A 
BRANCH  29  32
ATOM     32  O   UNL     1       3.223  -3.882  -5.962  0.00  0.00    -0.507 OA
ATOM     33  H   UNL     1       3.614  -3.181  -6.500  0.00  0.00    +0.292 HD
ENDBRANCH  29  32
ENDBRANCH  25  26
ENDBRANCH  24  25
ENDBRANCH  23  24
ENDBRANCH   1  23
TORSDOF 8
