REMARK  Name = ZINC35431171
REMARK  3 active torsions:
REMARK  status: ('A' for Active; 'I' for Inactive)
REMARK    1  A    between atoms: C_6  and  S_7
REMARK    2  A    between atoms: S_7  and  N_10
REMARK    3  A    between atoms: N_10  and  N_11
REMARK                            x       y       z     vdW  Elec       q    Type
REMARK                         _______ _______ _______ _____ _____    ______ ____
ROOT
ATOM      1  C   UNL     1      -0.017   1.378   0.010  0.00  0.00    +0.028 A 
ATOM      2  C   UNL     1       1.169   2.091   0.002  0.00  0.00    +0.049 A 
ATOM      3  C   UNL     1       2.378   1.419  -0.013  0.00  0.00    +0.142 A 
ATOM      4  C   UNL     1       2.397   0.025  -0.021  0.00  0.00    +0.077 A 
ATOM      5  C   UNL     1       1.207  -0.684  -0.013  0.00  0.00    +0.051 A 
ATOM      6  C   UNL     1       0.002  -0.004   0.002  0.00  0.00    +0.063 A 
ATOM      7  N   UNL     1       3.629  -0.644  -0.038  0.00  0.00    -0.280 N 
ATOM      8  C   UNL     1       4.751   0.043   0.269  0.00  0.00    +0.255 C 
ATOM      9  O   UNL     1       5.831  -0.507   0.231  0.00  0.00    -0.272 OA
ATOM     10  C   UNL     1       4.655   1.496   0.659  0.00  0.00    +0.325 C 
ATOM     11  O   UNL     1       3.552   2.104  -0.020  0.00  0.00    -0.481 OA
ATOM     12  H   UNL     1       3.675  -1.586  -0.267  0.00  0.00    +0.155 HD
ENDROOT
BRANCH   6  13
ATOM     13  S   UNL     1      -1.513  -0.903   0.013  0.00  0.00    -0.096 S 
ATOM     14  O   UNL     1      -1.222  -2.184   0.554  0.00  0.00    -0.195 OA
ATOM     15  O   UNL     1      -2.492  -0.042   0.578  0.00  0.00    -0.195 OA
BRANCH  13  16
ATOM     16  N   UNL     1      -1.950  -1.144  -1.566  0.00  0.00    +0.409 NA
BRANCH  16  17
ATOM     17  N   UNL     1      -3.099  -1.823  -1.861  0.00  0.00    +0.372 N 
ATOM     18  H   UNL     1      -3.047  -2.754  -1.477  0.00  0.00    -0.137 HD
ATOM     19  H   UNL     1      -3.888  -1.337  -1.461  0.00  0.00    -0.137 HD
ATOM     20  H   UNL     1      -3.210  -1.877  -2.862  0.00  0.00    -0.137 HD
ENDBRANCH  16  17
ENDBRANCH  13  16
ENDBRANCH   6  13
TORSDOF 3
