REMARK  Name = ZINC37700818
REMARK  6 active torsions:
REMARK  status: ('A' for Active; 'I' for Inactive)
REMARK    1  A    between atoms: C_6  and  N_7
REMARK    2  A    between atoms: C_8  and  C_10
REMARK    3  A    between atoms: C_10  and  O_11
REMARK    4  A    between atoms: O_11  and  C_12
REMARK    5  A    between atoms: C_17  and  C_18
REMARK    6  A    between atoms: C_18  and  N_19
REMARK                            x       y       z     vdW  Elec       q    Type
REMARK                         _______ _______ _______ _____ _____    ______ ____
ROOT
ATOM      1  O   UNL     1      -2.200  -4.226  -0.309  0.00  0.00    -0.483 OA
ENDROOT
BRANCH   1   2
ATOM      2  C   UNL     1      -3.267  -5.061  -0.412  0.00  0.00    +0.123 A 
ATOM      3  C   UNL     1      -4.555  -4.545  -0.418  0.00  0.00    +0.047 A 
ATOM      4  C   UNL     1      -5.638  -5.396  -0.523  0.00  0.00    +0.019 A 
ATOM      5  C   UNL     1      -5.440  -6.762  -0.622  0.00  0.00    +0.018 A 
ATOM      6  C   UNL     1      -4.157  -7.278  -0.616  0.00  0.00    +0.020 A 
ATOM      7  C   UNL     1      -3.070  -6.430  -0.517  0.00  0.00    -0.022 A 
ATOM      8 BR   UNL     1      -6.924  -7.924  -0.765  0.00  0.00    -0.050 Br
BRANCH   7   9
ATOM      9  C   UNL     1      -1.672  -6.993  -0.518  0.00  0.00    -0.047 C 
BRANCH   9  10
ATOM     10  N   UNL     1      -1.172  -7.064   0.862  0.00  0.00    +0.381 N 
ATOM     11  H   UNL     1      -1.162  -6.139   1.264  0.00  0.00    -0.090 HD
ATOM     12  H   UNL     1      -1.775  -7.662   1.407  0.00  0.00    -0.090 HD
ATOM     13  H   UNL     1      -0.236  -7.441   0.861  0.00  0.00    -0.090 HD
ENDBRANCH   9  10
ENDBRANCH   7   9
ENDBRANCH   1   2
BRANCH   1  14
ATOM     14  C   UNL     1      -2.478  -2.828  -0.204  0.00  0.00    +0.324 C 
BRANCH  14  16
ATOM     15  N   UNL     1      -1.200  -0.722   0.010  0.00  0.00    -0.283 N 
ATOM     16  C   UNL     1      -1.183  -2.065  -0.099  0.00  0.00    +0.255 C 
ATOM     17  O   UNL     1      -0.126  -2.659  -0.113  0.00  0.00    -0.272 OA
ATOM     18  H   UNL     1      -2.044  -0.252   0.098  0.00  0.00    +0.155 HD
BRANCH  15  24
ATOM     19  C   UNL     1       1.072  -0.453  -0.766  0.00  0.00    +0.024 A 
ATOM     20  C   UNL     1       2.256   0.258  -0.778  0.00  0.00    +0.017 A 
ATOM     21  C   UNL     1       2.377   1.416  -0.032  0.00  0.00    +0.018 A 
ATOM     22  C   UNL     1       1.312   1.866   0.729  0.00  0.00    +0.017 A 
ATOM     23  C   UNL     1       0.126   1.159   0.745  0.00  0.00    +0.024 A 
ATOM     24  C   UNL     1       0.002  -0.004  -0.004  0.00  0.00    +0.034 A 
ATOM     25 BR   UNL     1       4.000   2.387  -0.051  0.00  0.00    -0.050 Br
ENDBRANCH  15  24
ENDBRANCH  14  16
ENDBRANCH   1  14
TORSDOF 6
