REMARK  Name = ZINC20858303
REMARK  12 active torsions:
REMARK  status: ('A' for Active; 'I' for Inactive)
REMARK    1  A    between atoms: C_1  and  C_2
REMARK    2  A    between atoms: C_5  and  S_9
REMARK    3  A    between atoms: C_6  and  C_8
REMARK    4  A    between atoms: S_9  and  C_12
REMARK    5  A    between atoms: C_12  and  C_13
REMARK    6  A    between atoms: C_14  and  C_30
REMARK    7  A    between atoms: C_15  and  C_21
REMARK    8  A    between atoms: C_24  and  O_29
REMARK    9  A    between atoms: C_25  and  O_27
REMARK   10  A    between atoms: O_27  and  C_28
REMARK   11  A    between atoms: C_30  and  O_32
REMARK   12  A    between atoms: O_32  and  C_33
REMARK                            x       y       z     vdW  Elec       q    Type
REMARK                         _______ _______ _______ _____ _____    ______ ____
ROOT
ATOM      1  C   UNL     1       0.833  -1.310  -1.774  0.00  0.00    +0.045 C 
ATOM      2  C   UNL     1       0.016  -0.335  -1.320  0.00  0.00    +0.080 C 
ATOM      3  C   UNL     1       0.260   0.196   0.078  0.00  0.00    +0.144 C 
ATOM      4  N   UNL     1       1.376  -0.399   0.832  0.00  0.00    -0.288 N 
ATOM      5  C   UNL     1       2.105  -1.367   0.242  0.00  0.00    +0.304 C 
ATOM      6  O   UNL     1       3.029  -1.864   0.856  0.00  0.00    -0.252 OA
ATOM      7  N   UNL     1       1.845  -1.799  -0.998  0.00  0.00    -0.271 N 
ATOM      8  H   UNL     1       1.598  -0.051   1.852  0.00  0.00    +0.151 HD
ATOM      9  H   UNL     1       2.501  -2.592  -1.386  0.00  0.00    +0.156 HD
ENDROOT
BRANCH   3  10
ATOM     10  C   UNL     1       0.506   1.679  -0.024  0.00  0.00    -0.019 A 
ATOM     11  C   UNL     1       1.785   2.151  -0.255  0.00  0.00    +0.009 A 
ATOM     12  C   UNL     1       2.016   3.511  -0.351  0.00  0.00    +0.049 A 
ATOM     13  C   UNL     1       0.965   4.403  -0.215  0.00  0.00    +0.158 A 
ATOM     14  C   UNL     1      -0.322   3.928   0.018  0.00  0.00    +0.162 A 
ATOM     15  C   UNL     1      -0.548   2.564   0.107  0.00  0.00    +0.055 A 
BRANCH  14  16
ATOM     16  O   UNL     1      -1.357   4.800   0.152  0.00  0.00    -0.491 OA
ATOM     17  C   UNL     1      -2.650   4.240   0.389  0.00  0.00    +0.277 C 
ENDBRANCH  14  16
BRANCH  13  18
ATOM     18  O   UNL     1       1.190   5.741  -0.309  0.00  0.00    -0.503 OA
ATOM     19  H   UNL     1       0.355   6.449  -0.202  0.00  0.00    +0.292 HD
ENDBRANCH  13  18
ENDBRANCH   3  10
BRANCH   2  20
ATOM     20  C   UNL     1      -1.033   0.172  -2.122  0.00  0.00    +0.339 C 
ATOM     21  O   UNL     1      -1.123  -0.162  -3.289  0.00  0.00    -0.245 OA
BRANCH  20  22
ATOM     22  O   UNL     1      -1.934   1.027  -1.594  0.00  0.00    -0.465 OA
ATOM     23  C   UNL     1      -2.966   1.500  -2.461  0.00  0.00    +0.280 C 
ENDBRANCH  20  22
ENDBRANCH   2  20
BRANCH   1  24
ATOM     24  C   UNL     1       0.625  -1.866  -3.159  0.00  0.00    +0.223 C 
BRANCH  24  25
ATOM     25  S   UNL     1       1.811  -1.104  -4.301  0.00  0.00    +0.002 S 
ATOM     26  O   UNL     1       1.511   0.275  -4.469  0.00  0.00    -0.169 OA
ATOM     27  O   UNL     1       3.131  -1.526  -3.989  0.00  0.00    -0.169 OA
BRANCH  25  32
ATOM     28  C   UNL     1       0.625  -3.603  -9.663  0.00  0.00    +0.044 C 
ATOM     29  C   UNL     1       0.921  -2.979  -8.324  0.00  0.00    -0.050 A 
ATOM     30  C   UNL     1       0.713  -1.625  -8.131  0.00  0.00    +0.005 A 
ATOM     31  C   UNL     1       0.985  -1.053  -6.902  0.00  0.00    +0.027 A 
ATOM     32  C   UNL     1       1.464  -1.834  -5.867  0.00  0.00    +0.091 A 
ATOM     33  C   UNL     1       1.677  -3.186  -6.062  0.00  0.00    -0.025 A 
ATOM     34  C   UNL     1       1.400  -3.759  -7.289  0.00  0.00    +0.008 A 
ATOM     35  C   UNL     1       2.205  -4.035  -4.935  0.00  0.00    +0.046 C 
ENDBRANCH  25  32
ENDBRANCH  24  25
ENDBRANCH   1  24
TORSDOF 8
