REMARK  Name = ZINC21443667
REMARK  9 active torsions:
REMARK  status: ('A' for Active; 'I' for Inactive)
REMARK    1  A    between atoms: C_1  and  C_2
REMARK    2  A    between atoms: C_2  and  C_3
REMARK    3  A    between atoms: C_2  and  C_4
REMARK    4  A    between atoms: C_2  and  C_5
REMARK    5  A    between atoms: C_8  and  O_26
REMARK    6  A    between atoms: C_9  and  N_11
REMARK    7  A    between atoms: C_12  and  C_14
REMARK    8  A    between atoms: C_14  and  N_15
REMARK    9  A    between atoms: C_16  and  C_18
REMARK                            x       y       z     vdW  Elec       q    Type
REMARK                         _______ _______ _______ _____ _____    ______ ____
ROOT
ATOM      1  N   UNL     1      -6.149   1.591   0.040  0.00  0.00    -0.281 N 
ATOM      2  C   UNL     1      -4.979   1.276  -0.550  0.00  0.00    +0.234 C 
ATOM      3  O   UNL     1      -4.843   0.198  -1.088  0.00  0.00    -0.274 OA
ATOM      4  H   UNL     1      -6.250   2.538   0.591  0.00  0.00    +0.155 HD
ENDROOT
BRANCH   1   9
ATOM      5  C   UNL     1      -8.103  -1.521  -0.142  0.00  0.00    -0.040 A 
ATOM      6  C   UNL     1      -9.390  -1.022  -0.228  0.00  0.00    +0.008 A 
ATOM      7  C   UNL     1      -9.607   0.343  -0.226  0.00  0.00    +0.047 A 
ATOM      8  C   UNL     1      -8.534   1.216  -0.137  0.00  0.00    +0.138 A 
ATOM      9  C   UNL     1      -7.238   0.714  -0.050  0.00  0.00    +0.076 A 
ATOM     10  C   UNL     1      -7.027  -0.657  -0.058  0.00  0.00    +0.031 A 
BRANCH   5  12
ATOM     11  C   UNL     1      -9.216  -3.734  -0.253  0.00  0.00    +0.015 C 
ATOM     12  C   UNL     1      -7.873  -3.010  -0.146  0.00  0.00    -0.013 C 
ATOM     13  C   UNL     1      -6.994  -3.387  -1.341  0.00  0.00    +0.015 C 
ATOM     14  C   UNL     1      -7.174  -3.422   1.151  0.00  0.00    +0.015 C 
ENDBRANCH   5  12
BRANCH   8  15
ATOM     15  O   UNL     1      -8.747   2.559  -0.136  0.00  0.00    -0.505 OA
ATOM     16  H   UNL     1      -7.894   3.250  -0.065  0.00  0.00    +0.292 HD
ENDBRANCH   8  15
ENDBRANCH   1   9
BRANCH   2  17
ATOM     17  C   UNL     1      -3.840   2.263  -0.539  0.00  0.00    +0.200 C 
BRANCH  17  18
ATOM     18  N   UNL     1      -2.689   1.687  -1.239  0.00  0.00    -0.303 N 
ATOM     19  C   UNL     1      -1.548   2.395  -1.355  0.00  0.00    +0.247 C 
ATOM     20  O   UNL     1      -1.474   3.511  -0.879  0.00  0.00    -0.270 OA
ATOM     21  H   UNL     1      -2.756   0.677  -1.669  0.00  0.00    +0.150 HD
BRANCH  19  22
ATOM     22  C   UNL     1      -0.388   1.815  -2.060  0.00  0.00    +0.072 A 
ATOM     23  C   UNL     1      -0.470   0.532  -2.608  0.00  0.00    +0.019 A 
ATOM     24  C   UNL     1       0.613  -0.002  -3.269  0.00  0.00    +0.039 A 
ATOM     25  C   UNL     1       1.786   0.730  -3.393  0.00  0.00    +0.126 A 
ATOM     26  C   UNL     1       1.875   2.002  -2.853  0.00  0.00    +0.077 A 
ATOM     27  C   UNL     1       0.795   2.549  -2.187  0.00  0.00    +0.138 A 
ATOM     28  F   UNL     1       0.883   3.791  -1.661  0.00  0.00    -0.205 F 
ATOM     29  F   UNL     1       2.845   0.199  -4.044  0.00  0.00    -0.205 F 
ENDBRANCH  19  22
ENDBRANCH  17  18
ENDBRANCH   2  17
TORSDOF 6
