REMARK  Name = ZINC61589847
REMARK  4 active torsions:
REMARK  status: ('A' for Active; 'I' for Inactive)
REMARK    1  A    between atoms: C_1  and  C_2
REMARK    2  A    between atoms: C_3  and  S_8
REMARK    3  A    between atoms: S_8  and  C_9
REMARK    4  A    between atoms: C_9  and  C_15
REMARK                            x       y       z     vdW  Elec       q    Type
REMARK                         _______ _______ _______ _____ _____    ______ ____
ROOT
ATOM      1  S   UNL     1       0.001  -0.054  -2.847  0.00  0.00    -0.097 S 
ENDROOT
BRANCH   1   4
ATOM      2  C   UNL     1       0.021   1.550  -0.028  0.00  0.00    +0.067 C 
ATOM      3  C   UNL     1       0.037   0.043  -0.018  0.00  0.00    +0.061 A 
ATOM      4  C   UNL     1       0.029  -0.649  -1.189  0.00  0.00    +0.070 A 
ATOM      5  S   UNL     1       0.055  -2.330  -0.580  0.00  0.00    -0.046 S 
ATOM      6  C   UNL     1       0.074  -1.934   1.163  0.00  0.00    +0.157 A 
ATOM      7  N   UNL     1       0.065  -0.614   1.129  0.00  0.00    -0.229 NA
ATOM      8  N   UNL     1       0.097  -2.786   2.260  0.00  0.00    -0.337 N 
ATOM      9  H   UNL     1       0.105  -3.747   2.127  0.00  0.00    +0.144 HD
ATOM     10  H   UNL     1       0.105  -2.421   3.158  0.00  0.00    +0.144 HD
ENDBRANCH   1   4
BRANCH   1  11
ATOM     11  C   UNL     1       0.003  -1.562  -3.855  0.00  0.00    +0.131 C 
ATOM     12  C   UNL     1      -0.009  -1.184  -5.333  0.00  0.00    +0.031 C 
ATOM     13  C   UNL     1       0.276  -2.402  -6.207  0.00  0.00    +0.013 C 
ATOM     14  C   UNL     1      -0.925  -3.352  -6.186  0.00  0.00    +0.069 C 
ATOM     15  S   UNL     1      -1.173  -3.941  -4.483  0.00  0.00    -0.159 S 
ATOM     16  C   UNL     1      -1.234  -2.400  -3.520  0.00  0.00    +0.098 C 
BRANCH  11  17
ATOM     17  C   UNL     1       1.245  -2.362  -3.555  0.00  0.00    +0.373 C 
ATOM     18  O   UNL     1       1.158  -3.553  -3.310  0.00  0.00    -0.245 OA
ATOM     19  O   UNL     1       2.336  -1.818  -3.558  0.00  0.00    -0.245 OA
ENDBRANCH  11  17
ENDBRANCH   1  11
TORSDOF 3
