REMARK  Name = ZINC39291251
REMARK  6 active torsions:
REMARK  status: ('A' for Active; 'I' for Inactive)
REMARK    1  A    between atoms: C_3  and  O_20
REMARK    2  A    between atoms: C_6  and  C_7
REMARK    3  A    between atoms: C_7  and  C_17
REMARK    4  A    between atoms: C_8  and  C_9
REMARK    5  A    between atoms: C_11  and  O_16
REMARK    6  A    between atoms: C_13  and  O_15
REMARK                            x       y       z     vdW  Elec       q    Type
REMARK                         _______ _______ _______ _____ _____    ______ ____
ROOT
ATOM      1  C   UNL     1      -1.133  -0.920   0.090  0.00  0.00    +0.071 C 
ATOM      2  C   UNL     1      -1.625  -1.487  -1.046  0.00  0.00    +0.024 C 
ENDROOT
BRANCH   1   8
ATOM      3  C   UNL     1      -0.224   1.382   0.385  0.00  0.00    +0.012 A 
ATOM      4  C   UNL     1       0.814   2.286   0.310  0.00  0.00    +0.046 A 
ATOM      5  C   UNL     1       2.063   1.875  -0.139  0.00  0.00    +0.117 A 
ATOM      6  C   UNL     1       2.270   0.554  -0.513  0.00  0.00    +0.046 A 
ATOM      7  C   UNL     1       1.236  -0.355  -0.440  0.00  0.00    +0.012 A 
ATOM      8  C   UNL     1      -0.020   0.054   0.011  0.00  0.00    -0.011 A 
BRANCH   5   9
ATOM      9  O   UNL     1       3.084   2.769  -0.212  0.00  0.00    -0.507 OA
ATOM     10  H   UNL     1       3.612   2.829   0.596  0.00  0.00    +0.292 HD
ENDBRANCH   5   9
ENDBRANCH   1   8
BRANCH   2  11
ATOM     11  C   UNL     1      -2.870  -2.264  -1.000  0.00  0.00    -0.017 A 
ATOM     12  C   UNL     1      -3.990  -1.757  -0.332  0.00  0.00    +0.053 A 
ATOM     13  C   UNL     1      -5.161  -2.495  -0.292  0.00  0.00    +0.121 A 
ATOM     14  C   UNL     1      -5.224  -3.736  -0.911  0.00  0.00    +0.090 A 
ATOM     15  C   UNL     1      -4.116  -4.244  -1.574  0.00  0.00    +0.121 A 
ATOM     16  C   UNL     1      -2.942  -3.513  -1.627  0.00  0.00    +0.053 A 
BRANCH  15  17
ATOM     17  O   UNL     1      -4.185  -5.460  -2.178  0.00  0.00    -0.507 OA
ATOM     18  H   UNL     1      -4.476  -5.426  -3.099  0.00  0.00    +0.292 HD
ENDBRANCH  15  17
BRANCH  13  19
ATOM     19  O   UNL     1      -6.250  -2.004   0.356  0.00  0.00    -0.507 OA
ATOM     20  H   UNL     1      -6.835  -1.475  -0.204  0.00  0.00    +0.292 HD
ENDBRANCH  13  19
ENDBRANCH   2  11
BRANCH   1  21
ATOM     21  C   UNL     1      -1.706  -1.274   1.394  0.00  0.00    +0.387 C 
ATOM     22  O   UNL     1      -2.528  -2.177   1.477  0.00  0.00    -0.241 OA
ATOM     23  O   UNL     1      -1.361  -0.666   2.400  0.00  0.00    -0.241 OA
ENDBRANCH   1  21
TORSDOF 6
