REMARK  Name = ZINC12769372
REMARK  6 active torsions:
REMARK  status: ('A' for Active; 'I' for Inactive)
REMARK    1  A    between atoms: C_3  and  N_8
REMARK    2  A    between atoms: N_8  and  S_9
REMARK    3  A    between atoms: S_9  and  C_12
REMARK    4  A    between atoms: C_15  and  O_29
REMARK    5  A    between atoms: C_16  and  N_18
REMARK    6  A    between atoms: C_19  and  C_21
REMARK                            x       y       z     vdW  Elec       q    Type
REMARK                         _______ _______ _______ _____ _____    ______ ____
ROOT
ATOM      1  C   UNL     1       2.207   1.438  -0.117  0.00  0.00    +0.110 A 
ATOM      2  C   UNL     1       1.052   2.199  -0.106  0.00  0.00    +0.032 A 
ATOM      3  C   UNL     1      -0.185   1.586  -0.187  0.00  0.00    +0.049 A 
ATOM      4  C   UNL     1      -0.270   0.207  -0.280  0.00  0.00    +0.138 A 
ATOM      5  C   UNL     1       0.892  -0.561  -0.291  0.00  0.00    +0.077 A 
ATOM      6  C   UNL     1       2.130   0.061  -0.209  0.00  0.00    +0.055 A 
ENDROOT
BRANCH   5   7
ATOM      7  N   UNL     1       0.812  -1.956  -0.384  0.00  0.00    -0.278 N 
ATOM      8  C   UNL     1       1.760  -2.643  -1.052  0.00  0.00    +0.251 C 
ATOM      9  O   UNL     1       2.730  -2.061  -1.500  0.00  0.00    -0.270 OA
ATOM     10  H   UNL     1       0.074  -2.428   0.033  0.00  0.00    +0.155 HD
BRANCH   8  11
ATOM     11  C   UNL     1       1.622  -4.095  -1.239  0.00  0.00    +0.068 A 
ATOM     12  C   UNL     1       0.519  -4.774  -0.725  0.00  0.00    +0.017 A 
ATOM     13  C   UNL     1       0.420  -6.151  -0.927  0.00  0.00    +0.018 A 
ATOM     14  C   UNL     1       1.392  -6.812  -1.605  0.00  0.00    +0.083 A 
ATOM     15  N   UNL     1       2.470  -6.159  -2.102  0.00  0.00    -0.355 N 
ATOM     16  H   UNL     1       3.150  -6.656  -2.582  0.00  0.00    +0.166 HD
ATOM     17  C   UNL     1       2.612  -4.829  -1.940  0.00  0.00    +0.096 A 
ATOM     18  S   UNL     1       3.984  -4.029  -2.578  0.00  0.00    -0.032 S 
ENDBRANCH   8  11
ENDBRANCH   5   7
BRANCH   1  19
ATOM     19  S   UNL     1       3.780   2.225  -0.014  0.00  0.00    +0.072 S 
ATOM     20  O   UNL     1       3.584   3.430   0.714  0.00  0.00    -0.150 OA
ATOM     21  O   UNL     1       4.707   1.229   0.396  0.00  0.00    -0.150 OA
BRANCH  19  22
ATOM     22  N   UNL     1       4.208   2.667  -1.552  0.00  0.00    -0.216 N 
ATOM     23  H   UNL     1       4.985   2.267  -1.972  0.00  0.00    +0.174 HD
BRANCH  22  26
ATOM     24  C   UNL     1       2.801   5.895  -2.604  0.00  0.00    +0.003 A 
ATOM     25  C   UNL     1       3.553   4.960  -1.918  0.00  0.00    +0.024 A 
ATOM     26  C   UNL     1       3.449   3.614  -2.244  0.00  0.00    +0.049 A 
ATOM     27  C   UNL     1       2.594   3.212  -3.262  0.00  0.00    +0.044 A 
ATOM     28  C   UNL     1       1.841   4.151  -3.940  0.00  0.00    +0.043 A 
ATOM     29  C   UNL     1       1.947   5.492  -3.613  0.00  0.00    +0.020 A 
ATOM     30 CL   UNL     1       0.766   3.650  -5.208  0.00  0.00    -0.083 Cl
ENDBRANCH  22  26
ENDBRANCH  19  22
ENDBRANCH   1  19
BRANCH   4  31
ATOM     31  O   UNL     1      -1.486  -0.397  -0.359  0.00  0.00    -0.505 OA
ATOM     32  H   UNL     1      -1.809  -0.514  -1.263  0.00  0.00    +0.292 HD
ENDBRANCH   4  31
TORSDOF 6
