REMARK  Name = ZINC65868946
REMARK  7 active torsions:
REMARK  status: ('A' for Active; 'I' for Inactive)
REMARK    1  A    between atoms: C_1  and  C_2
REMARK    2  A    between atoms: C_2  and  C_3
REMARK    3  A    between atoms: C_2  and  N_15
REMARK    4  A    between atoms: C_16  and  C_18
REMARK    5  A    between atoms: C_18  and  C_24
REMARK    6  A    between atoms: C_27  and  O_30
REMARK    7  A    between atoms: O_30  and  C_31
REMARK                            x       y       z     vdW  Elec       q    Type
REMARK                         _______ _______ _______ _____ _____    ______ ____
ROOT
ATOM      1  N   UNL     1      -1.170  -1.162  -2.011  0.00  0.00    -0.308 N 
ATOM      2  C   UNL     1       0.008  -0.607  -2.357  0.00  0.00    +0.224 C 
ATOM      3  O   UNL     1       0.446   0.331  -1.725  0.00  0.00    -0.275 OA
ATOM      4  H   UNL     1      -1.555  -1.864  -2.560  0.00  0.00    +0.149 HD
ENDROOT
BRANCH   2   5
ATOM      5  C   UNL     1       0.782  -1.152  -3.530  0.00  0.00    +0.072 C 
ATOM      6  C   UNL     1       1.979  -0.243  -3.818  0.00  0.00    +0.021 C 
ATOM      7  C   UNL     1       1.482   1.167  -4.146  0.00  0.00    +0.001 C 
ATOM      8  C   UNL     1       0.573   1.114  -5.376  0.00  0.00    +0.000 C 
ATOM      9  C   UNL     1      -0.623   0.205  -5.088  0.00  0.00    +0.001 C 
ATOM     10  C   UNL     1      -0.126  -1.204  -4.761  0.00  0.00    +0.021 C 
BRANCH   5  11
ATOM     11  C   UNL     1       1.272  -2.540  -3.208  0.00  0.00    -0.032 A 
ATOM     12  C   UNL     1       0.972  -3.592  -4.054  0.00  0.00    +0.008 A 
ATOM     13  C   UNL     1       1.419  -4.865  -3.760  0.00  0.00    +0.046 A 
ATOM     14  C   UNL     1       2.171  -5.088  -2.616  0.00  0.00    +0.120 A 
ATOM     15  C   UNL     1       2.472  -4.031  -1.769  0.00  0.00    +0.046 A 
ATOM     16  C   UNL     1       2.026  -2.759  -2.070  0.00  0.00    +0.008 A 
BRANCH  14  17
ATOM     17  O   UNL     1       2.612  -6.340  -2.325  0.00  0.00    -0.495 OA
ATOM     18  C   UNL     1       3.381  -6.496  -1.130  0.00  0.00    +0.277 C 
ENDBRANCH  14  17
ENDBRANCH   5  11
ENDBRANCH   2   5
BRANCH   1  20
ATOM     19  C   UNL     1      -1.325  -1.455   0.412  0.00  0.00    +0.033 C 
ATOM     20  C   UNL     1      -1.869  -0.707  -0.807  0.00  0.00    +0.100 C 
BRANCH  20  21
ATOM     21  C   UNL     1      -3.344  -0.981  -0.948  0.00  0.00    -0.025 A 
ATOM     22  C   UNL     1      -3.773  -2.167  -1.520  0.00  0.00    +0.007 A 
ATOM     23  C   UNL     1      -5.122  -2.427  -1.653  0.00  0.00    +0.028 A 
ATOM     24  C   UNL     1      -6.052  -1.497  -1.213  0.00  0.00    +0.067 A 
ATOM     25  C   UNL     1      -5.619  -0.301  -0.637  0.00  0.00    +0.067 A 
ATOM     26  C   UNL     1      -4.262  -0.051  -0.502  0.00  0.00    +0.033 A 
ATOM     27  N   UNL     1      -6.762   0.419  -0.298  0.00  0.00    -0.306 N 
ATOM     28  H   UNL     1      -6.778   1.294   0.121  0.00  0.00    +0.170 HD
ATOM     29  C   UNL     1      -7.840  -0.305  -0.652  0.00  0.00    +0.325 A 
ATOM     30  O   UNL     1      -8.997   0.038  -0.494  0.00  0.00    -0.247 OA
ATOM     31  N   UNL     1      -7.444  -1.466  -1.207  0.00  0.00    -0.306 N 
ATOM     32  H   UNL     1      -8.029  -2.162  -1.544  0.00  0.00    +0.170 HD
ENDBRANCH  20  21
ENDBRANCH   1  20
TORSDOF 5
