REMARK  Name = ZINC42642877
REMARK  8 active torsions:
REMARK  status: ('A' for Active; 'I' for Inactive)
REMARK    1  A    between atoms: C_1  and  C_2
REMARK    2  A    between atoms: C_3  and  O_28
REMARK    3  A    between atoms: C_12  and  C_13
REMARK    4  A    between atoms: C_13  and  N_14
REMARK    5  A    between atoms: N_14  and  C_15
REMARK    6  A    between atoms: C_18  and  N_21
REMARK    7  A    between atoms: N_24  and  C_25
REMARK    8  A    between atoms: C_25  and  C_26
REMARK                            x       y       z     vdW  Elec       q    Type
REMARK                         _______ _______ _______ _____ _____    ______ ____
ROOT
ATOM      1  N   UNL     1      -1.286  -4.862   2.336  0.00  0.00    -0.340 N 
ATOM      2  H   UNL     1      -2.029  -4.240   2.387  0.00  0.00    +0.146 HD
ENDROOT
BRANCH   1   3
ATOM      3  C   UNL     1      -1.526  -6.240   2.343  0.00  0.00    +0.027 A 
ATOM      4  C   UNL     1      -0.463  -7.131   2.277  0.00  0.00    +0.025 A 
ATOM      5  C   UNL     1      -0.700  -8.491   2.283  0.00  0.00    +0.025 A 
ATOM      6  C   UNL     1      -2.002  -8.968   2.357  0.00  0.00    +0.035 A 
ATOM      7  C   UNL     1      -3.065  -8.078   2.424  0.00  0.00    +0.025 A 
ATOM      8  C   UNL     1      -2.828  -6.718   2.422  0.00  0.00    +0.025 A 
BRANCH   6   9
ATOM      9  N   UNL     1      -2.242 -10.350   2.363  0.00  0.00    -0.269 N 
ATOM     10  C   UNL     1      -1.361 -11.184   2.949  0.00  0.00    +0.304 C 
ATOM     11  O   UNL     1      -0.407 -10.735   3.555  0.00  0.00    -0.253 OA
ATOM     12  N   UNL     1      -1.536 -12.518   2.862  0.00  0.00    -0.296 N 
ATOM     13  H   UNL     1      -3.043 -10.704   1.946  0.00  0.00    +0.156 HD
ATOM     14  H   UNL     1      -2.297 -12.877   2.379  0.00  0.00    +0.151 HD
BRANCH  12  15
ATOM     15  C   UNL     1      -0.578 -13.425   3.499  0.00  0.00    +0.132 C 
BRANCH  15  16
ATOM     16  C   UNL     1      -1.000 -14.852   3.256  0.00  0.00    -0.016 C 
ATOM     17  C   UNL     1      -0.163 -15.697   2.706  0.00  0.00    +0.005 C 
ENDBRANCH  15  16
ENDBRANCH  12  15
ENDBRANCH   6   9
ENDBRANCH   1   3
BRANCH   1  18
ATOM     18  C   UNL     1       0.087  -4.358   2.253  0.00  0.00    +0.137 C 
BRANCH  18  30
ATOM     19  C   UNL     1      -0.333   1.547  -0.041  0.00  0.00    +0.051 C 
ATOM     20  C   UNL     1      -0.321   0.041  -0.084  0.00  0.00    +0.034 A 
ATOM     21  C   UNL     1      -0.494  -0.622  -1.288  0.00  0.00    +0.123 A 
ATOM     22  C   UNL     1      -0.485  -2.014  -1.338  0.00  0.00    +0.046 A 
ATOM     23  C   UNL     1      -0.303  -2.745  -0.199  0.00  0.00    +0.015 A 
ATOM     24  C   UNL     1      -0.126  -2.093   1.026  0.00  0.00    +0.023 A 
ATOM     25  C   UNL     1      -0.129  -0.686   1.081  0.00  0.00    +0.146 A 
ATOM     26  O   UNL     1       0.048  -0.060   2.264  0.00  0.00    -0.422 OA
ATOM     27  C   UNL     1       0.234  -0.749   3.401  0.00  0.00    +0.338 A 
ATOM     28  O   UNL     1       0.389  -0.141   4.445  0.00  0.00    -0.245 OA
ATOM     29  C   UNL     1       0.255  -2.159   3.417  0.00  0.00    +0.097 A 
ATOM     30  C   UNL     1       0.070  -2.851   2.263  0.00  0.00    -0.013 A 
BRANCH  21  31
ATOM     31  O   UNL     1      -0.676   0.091  -2.429  0.00  0.00    -0.506 OA
ATOM     32  H   UNL     1       0.145   0.309  -2.892  0.00  0.00    +0.292 HD
ENDBRANCH  21  31
ENDBRANCH  18  30
ENDBRANCH   1  18
TORSDOF 7
