REMARK  Name = ZINC20457377
REMARK  6 active torsions:
REMARK  status: ('A' for Active; 'I' for Inactive)
REMARK    1  A    between atoms: C_2  and  C_21
REMARK    2  A    between atoms: C_5  and  C_7
REMARK    3  A    between atoms: N_8  and  C_9
REMARK    4  A    between atoms: C_13  and  C_14
REMARK    5  A    between atoms: N_22  and  C_23
REMARK    6  A    between atoms: C_27  and  C_28
REMARK                            x       y       z     vdW  Elec       q    Type
REMARK                         _______ _______ _______ _____ _____    ______ ____
ROOT
ATOM      1  C   UNL     1      -0.016   1.360   0.009  0.00  0.00    +0.010 A 
ATOM      2  C   UNL     1       1.188   2.077   0.002  0.00  0.00    -0.007 A 
ATOM      3  C   UNL     1       2.410   1.393  -0.013  0.00  0.00    +0.010 A 
ATOM      4  C   UNL     1       2.429   0.029  -0.020  0.00  0.00    +0.010 A 
ATOM      5  C   UNL     1       1.225  -0.688  -0.012  0.00  0.00    -0.007 A 
ATOM      6  C   UNL     1       0.002  -0.004   0.002  0.00  0.00    +0.010 A 
ENDROOT
BRANCH   5   7
ATOM      7  C   UNL     1       1.245  -2.157  -0.020  0.00  0.00    +0.120 C 
ATOM      8  N   UNL     1       0.121  -2.826  -0.012  0.00  0.00    -0.247 NA
BRANCH   8   9
ATOM      9  C   UNL     1       0.140  -4.175  -0.020  0.00  0.00    +0.114 A 
ATOM     10  S   UNL     1       1.540  -5.283  -0.033  0.00  0.00    -0.073 S 
ATOM     11  C   UNL     1       0.648  -6.815  -0.036  0.00  0.00    -0.004 A 
ATOM     12  C   UNL     1      -0.659  -6.451  -0.029  0.00  0.00    -0.023 A 
ATOM     13  C   UNL     1      -0.935  -5.073  -0.014  0.00  0.00    +0.072 A 
ATOM     14  C   UNL     1      -1.756  -7.512  -0.030  0.00  0.00    +0.037 C 
ATOM     15  C   UNL     1      -1.161  -8.838  -0.503  0.00  0.00    +0.005 C 
ATOM     16  C   UNL     1       0.079  -9.180   0.328  0.00  0.00    +0.005 C 
ATOM     17  C   UNL     1       1.205  -8.204  -0.045  0.00  0.00    +0.043 C 
BRANCH  13  18
ATOM     18  C   UNL     1      -2.319  -4.586   0.003  0.00  0.00    +0.244 C 
ATOM     19  O   UNL     1      -2.904  -4.378  -1.043  0.00  0.00    -0.270 OA
ATOM     20  N   UNL     1      -2.942  -4.368   1.178  0.00  0.00    -0.325 N 
ATOM     21  H   UNL     1      -2.476  -4.534   2.013  0.00  0.00    +0.145 HD
ATOM     22  H   UNL     1      -3.857  -4.046   1.190  0.00  0.00    +0.145 HD
ENDBRANCH  13  18
ENDBRANCH   8   9
ENDBRANCH   5   7
BRANCH   2  23
ATOM     23  C   UNL     1       1.168   3.546   0.009  0.00  0.00    +0.120 C 
ATOM     24  N   UNL     1       2.291   4.215   0.002  0.00  0.00    -0.247 NA
BRANCH  24  25
ATOM     25  C   UNL     1       2.273   5.564   0.009  0.00  0.00    +0.114 A 
ATOM     26  S   UNL     1       0.872   6.672   0.036  0.00  0.00    -0.073 S 
ATOM     27  C   UNL     1       1.764   8.204   0.031  0.00  0.00    -0.004 A 
ATOM     28  C   UNL     1       3.071   7.840   0.009  0.00  0.00    -0.023 A 
ATOM     29  C   UNL     1       3.347   6.462   0.004  0.00  0.00    +0.072 A 
ATOM     30  C   UNL     1       4.169   8.901  -0.003  0.00  0.00    +0.037 C 
ATOM     31  C   UNL     1       3.564  10.232  -0.450  0.00  0.00    +0.005 C 
ATOM     32  C   UNL     1       2.341  10.565   0.409  0.00  0.00    +0.005 C 
ATOM     33  C   UNL     1       1.208   9.594   0.048  0.00  0.00    +0.043 C 
BRANCH  29  34
ATOM     34  C   UNL     1       4.732   5.975  -0.012  0.00  0.00    +0.244 C 
ATOM     35  O   UNL     1       5.296   5.779  -1.072  0.00  0.00    -0.270 OA
ATOM     36  N   UNL     1       5.378   5.745   1.148  0.00  0.00    -0.325 N 
ATOM     37  H   UNL     1       4.928   5.902   1.993  0.00  0.00    +0.145 HD
ATOM     38  H   UNL     1       6.293   5.423   1.138  0.00  0.00    +0.145 HD
ENDBRANCH  29  34
ENDBRANCH  24  25
ENDBRANCH   2  23
TORSDOF 6
