REMARK  Name = ZINC05408296
REMARK  8 active torsions:
REMARK  status: ('A' for Active; 'I' for Inactive)
REMARK    1  A    between atoms: C_1  and  C_2
REMARK    2  A    between atoms: C_2  and  C_3
REMARK    3  A    between atoms: C_3  and  N_4
REMARK    4  A    between atoms: C_11  and  C_23
REMARK    5  A    between atoms: C_13  and  C_19
REMARK    6  A    between atoms: C_13  and  C_21
REMARK    7  A    between atoms: C_14  and  N_18
REMARK    8  A    between atoms: C_15  and  C_16
REMARK                            x       y       z     vdW  Elec       q    Type
REMARK                         _______ _______ _______ _____ _____    ______ ____
ROOT
ATOM      1  N   UNL     1       4.195  -1.438   3.245  0.00  0.00    -0.298 NA
ATOM      2  C   UNL     1       5.641  -1.439   3.531  0.00  0.00    +0.112 C 
ATOM      3  C   UNL     1       6.365  -1.568   2.213  0.00  0.00    -0.007 C 
ATOM      4  C   UNL     1       5.852  -1.029   1.123  0.00  0.00    -0.026 C 
ATOM      5  C   UNL     1       4.582  -0.227   1.129  0.00  0.00    +0.044 C 
ATOM      6  C   UNL     1       3.838  -0.264   2.444  0.00  0.00    +0.093 C 
ATOM      7  C   UNL     1       3.715  -0.704  -0.038  0.00  0.00    +0.069 C 
ATOM      8  C   UNL     1       4.446  -0.414  -1.349  0.00  0.00    +0.188 C 
ATOM      9  C   UNL     1       5.854  -0.925  -1.326  0.00  0.00    +0.054 C 
ATOM     10  C   UNL     1       6.532  -1.206  -0.184  0.00  0.00    +0.074 C 
ENDROOT
BRANCH   7  11
ATOM     11  C   UNL     1       2.398   0.030  -0.021  0.00  0.00    -0.021 A 
ATOM     12  C   UNL     1       2.378   1.411   0.046  0.00  0.00    +0.005 A 
ATOM     13  C   UNL     1       1.171   2.085   0.062  0.00  0.00    +0.002 A 
ATOM     14  C   UNL     1      -0.017   1.379   0.010  0.00  0.00    +0.021 A 
ATOM     15  C   UNL     1       0.002  -0.002  -0.058  0.00  0.00    +0.060 A 
ATOM     16  C   UNL     1       1.211  -0.678  -0.073  0.00  0.00    +0.063 A 
ATOM     17 CL   UNL     1       1.237  -2.411  -0.158  0.00  0.00    -0.082 Cl
ATOM     18 CL   UNL     1      -1.489  -0.889  -0.123  0.00  0.00    -0.082 Cl
ENDBRANCH   7  11
BRANCH   9  19
ATOM     19  N   UNL     1       6.491  -1.118  -2.520  0.00  0.00    -0.358 N 
ATOM     20  H   UNL     1       7.526  -1.492  -2.537  0.00  0.00    +0.142 HD
ATOM     21  H   UNL     1       5.969  -0.900  -3.463  0.00  0.00    +0.142 HD
ENDBRANCH   9  19
BRANCH  10  22
ATOM     22  C   UNL     1       7.887  -1.668  -0.240  0.00  0.00    +0.101 C 
ATOM     23  N   UNL     1       8.961  -2.034  -0.284  0.00  0.00    -0.191 NA
ENDBRANCH  10  22
BRANCH   8  24
ATOM     24  C   UNL     1       3.720  -1.059  -2.455  0.00  0.00    +0.091 C 
ATOM     25  N   UNL     1       3.160  -1.557  -3.309  0.00  0.00    -0.194 NA
ENDBRANCH   8  24
BRANCH   8  26
ATOM     26  C   UNL     1       4.466   1.040  -1.575  0.00  0.00    +0.091 C 
ATOM     27  N   UNL     1       4.482   2.163  -1.750  0.00  0.00    -0.194 NA
ENDBRANCH   8  26
BRANCH   1  28
ATOM     28  C   UNL     1       3.413  -1.484   4.489  0.00  0.00    +0.084 C 
BRANCH  28  30
ATOM     29  C   UNL     1       2.811  -2.882   6.469  0.00  0.00    +0.005 C 
ATOM     30  C   UNL     1       3.626  -2.835   5.175  0.00  0.00    +0.012 C 
ENDBRANCH  28  30
ENDBRANCH   1  28
TORSDOF 7
