REMARK  Name = ZINC39124427
REMARK  5 active torsions:
REMARK  status: ('A' for Active; 'I' for Inactive)
REMARK    1  A    between atoms: C_1  and  C_2
REMARK    2  A    between atoms: C_6  and  N_15
REMARK    3  A    between atoms: C_7  and  O_13
REMARK    4  A    between atoms: O_13  and  C_14
REMARK    5  A    between atoms: N_18  and  N_19
REMARK                            x       y       z     vdW  Elec       q    Type
REMARK                         _______ _______ _______ _____ _____    ______ ____
ROOT
ATOM      1  C   UNL     1      -0.342   1.489   0.006  0.00  0.00    +0.088 C 
ATOM      2  C   UNL     1      -0.235  -0.014  -0.001  0.00  0.00    +0.128 A 
ATOM      3  N   UNL     1      -0.156  -0.621  -1.145  0.00  0.00    -0.228 NA
ATOM      4  C   UNL     1      -0.058  -1.973  -1.228  0.00  0.00    +0.126 A 
ATOM      5  C   UNL     1      -0.043  -2.733  -0.034  0.00  0.00    +0.094 A 
ATOM      6  C   UNL     1       0.056  -4.128  -0.092  0.00  0.00    +0.085 A 
ATOM      7  C   UNL     1       0.140  -4.756  -1.327  0.00  0.00    +0.187 A 
ATOM      8  C   UNL     1       0.125  -4.009  -2.504  0.00  0.00    +0.212 A 
ATOM      9  C   UNL     1       0.028  -2.624  -2.459  0.00  0.00    +0.196 A 
ATOM     10  O   UNL     1       0.035  -2.142  -3.738  0.00  0.00    -0.450 OA
ATOM     11  C   UNL     1       0.552  -3.215  -4.548  0.00  0.00    +0.467 C 
ATOM     12  O   UNL     1       0.193  -4.399  -3.811  0.00  0.00    -0.449 OA
ATOM     13  C   UNL     1      -0.134  -2.016   1.241  0.00  0.00    +0.280 A 
ATOM     14  O   UNL     1      -0.125  -2.612   2.303  0.00  0.00    -0.265 OA
ATOM     15  N   UNL     1      -0.222  -0.666   1.193  0.00  0.00    -0.219 N 
ENDROOT
BRANCH   6  16
ATOM     16  N   UNL     1       0.072  -4.881   1.083  0.00  0.00    -0.354 N 
ATOM     17  H   UNL     1       0.144  -4.438   1.943  0.00  0.00    +0.142 HD
ATOM     18  H   UNL     1       0.011  -5.848   1.040  0.00  0.00    +0.142 HD
ENDBRANCH   6  16
BRANCH  15  19
ATOM     19  N   UNL     1      -0.303   0.048   2.355  0.00  0.00    -0.294 N 
ATOM     20  H   UNL     1      -0.282  -0.564   3.157  0.00  0.00    +0.163 HD
ATOM     21  H   UNL     1       0.430   0.738   2.407  0.00  0.00    +0.163 HD
ENDBRANCH  15  19
BRANCH   7  22
ATOM     22  O   UNL     1       0.237  -6.113  -1.389  0.00  0.00    -0.490 OA
ATOM     23  C   UNL     1      -0.987  -6.848  -1.459  0.00  0.00    +0.277 C 
ENDBRANCH   7  22
TORSDOF 3
