REMARK  Name = ZINC40782406
REMARK  6 active torsions:
REMARK  status: ('A' for Active; 'I' for Inactive)
REMARK    1  A    between atoms: C_3  and  O_23
REMARK    2  A    between atoms: C_6  and  N_7
REMARK    3  A    between atoms: C_9  and  N_22
REMARK    4  A    between atoms: C_10  and  N_14
REMARK    5  A    between atoms: N_14  and  C_15
REMARK    6  A    between atoms: O_23  and  C_24
REMARK                            x       y       z     vdW  Elec       q    Type
REMARK                         _______ _______ _______ _____ _____    ______ ____
ROOT
ATOM      1  N   UNL     1      -1.165  -0.719  -0.321  0.00  0.00    -0.298 N 
ATOM      2  C   UNL     1      -1.164  -2.105  -0.432  0.00  0.00    +0.149 A 
ATOM      3  C   UNL     1      -2.360  -2.822  -0.365  0.00  0.00    +0.106 A 
ATOM      4  C   UNL     1      -2.303  -4.212  -0.482  0.00  0.00    +0.149 A 
ATOM      5  N   UNL     1      -1.118  -4.796  -0.652  0.00  0.00    -0.219 NA
ATOM      6  C   UNL     1      -0.013  -4.082  -0.709  0.00  0.00    +0.225 A 
ATOM      7  N   UNL     1      -0.024  -2.768  -0.609  0.00  0.00    -0.219 NA
ATOM      8  H   UNL     1      -1.990  -0.249  -0.121  0.00  0.00    +0.154 HD
ENDROOT
BRANCH   1  14
ATOM      9  C   UNL     1       0.985  -0.459  -1.389  0.00  0.00    +0.027 A 
ATOM     10  C   UNL     1       2.158   0.250  -1.562  0.00  0.00    +0.048 A 
ATOM     11  C   UNL     1       2.376   1.417  -0.846  0.00  0.00    +0.130 A 
ATOM     12  C   UNL     1       1.417   1.874   0.046  0.00  0.00    +0.048 A 
ATOM     13  C   UNL     1       0.243   1.167   0.221  0.00  0.00    +0.027 A 
ATOM     14  C   UNL     1       0.024  -0.002  -0.497  0.00  0.00    +0.033 A 
BRANCH  11  15
ATOM     15  O   UNL     1       3.531   2.114  -1.017  0.00  0.00    -0.406 OA
BRANCH  15  16
ATOM     16  C   UNL     1       3.689   3.307  -0.247  0.00  0.00    +0.575 C 
ATOM     17  F   UNL     1       3.638   2.993   1.116  0.00  0.00    -0.133 F 
ATOM     18  F   UNL     1       4.924   3.894  -0.544  0.00  0.00    -0.133 F 
ATOM     19  F   UNL     1       2.660   4.203  -0.558  0.00  0.00    -0.133 F 
ENDBRANCH  15  16
ENDBRANCH  11  15
ENDBRANCH   1  14
BRANCH   3  20
ATOM     20  N   UNL     1      -3.587  -2.164  -0.184  0.00  0.00    -0.353 N 
ATOM     21  H   UNL     1      -3.612  -1.198  -0.104  0.00  0.00    +0.143 HD
ATOM     22  H   UNL     1      -4.410  -2.676  -0.140  0.00  0.00    +0.143 HD
ENDBRANCH   3  20
BRANCH   4  23
ATOM     23  N   UNL     1      -3.464  -4.974  -0.422  0.00  0.00    -0.298 N 
ATOM     24  H   UNL     1      -4.329  -4.538  -0.377  0.00  0.00    +0.154 HD
BRANCH  23  25
ATOM     25  C   UNL     1      -3.384  -6.370  -0.427  0.00  0.00    +0.032 A 
ATOM     26  C   UNL     1      -4.383  -7.122  -1.034  0.00  0.00    +0.024 A 
ATOM     27  C   UNL     1      -4.301  -8.500  -1.037  0.00  0.00    +0.016 A 
ATOM     28  C   UNL     1      -3.228  -9.133  -0.437  0.00  0.00    +0.013 A 
ATOM     29  C   UNL     1      -2.232  -8.387   0.169  0.00  0.00    +0.016 A 
ATOM     30  C   UNL     1      -2.304  -7.008   0.170  0.00  0.00    +0.024 A 
ATOM     31  I   UNL     1      -3.109 -11.224  -0.444  0.00  0.00    -0.044 I 
ENDBRANCH  23  25
ENDBRANCH   4  23
TORSDOF 6
