REMARK  Name = ZINC05780472
REMARK  4 active torsions:
REMARK  status: ('A' for Active; 'I' for Inactive)
REMARK    1  A    between atoms: C_9  and  S_11
REMARK    2  A    between atoms: S_11  and  C_12
REMARK    3  A    between atoms: C_12  and  C_13
REMARK    4  A    between atoms: N_18  and  C_19
REMARK                            x       y       z     vdW  Elec       q    Type
REMARK                         _______ _______ _______ _____ _____    ______ ____
ROOT
ATOM      1  C   UNL     1       6.118   6.964  -0.017  0.00  0.00    +0.231 C 
ATOM      2  O   UNL     1       6.026   8.173  -0.009  0.00  0.00    -0.274 OA
ATOM      3  N   UNL     1       7.333   6.381  -0.032  0.00  0.00    -0.240 N 
ATOM      4  C   UNL     1       8.446   7.141  -0.038  0.00  0.00    +0.306 C 
ATOM      5  O   UNL     1       8.354   8.353  -0.030  0.00  0.00    -0.252 OA
ATOM      6  N   UNL     1       9.661   6.558  -0.053  0.00  0.00    -0.296 N 
ATOM      7  H   UNL     1       7.406   5.414  -0.038  0.00  0.00    +0.159 HD
ATOM      8  H   UNL     1       9.734   5.590  -0.059  0.00  0.00    +0.151 HD
ENDROOT
BRANCH   6   9
ATOM      9  C   UNL     1      10.870   7.384  -0.059  0.00  0.00    +0.074 C 
ATOM     10  C   UNL     1      11.207   7.784  -1.497  0.00  0.00    +0.022 C 
ATOM     11  C   UNL     1      12.470   8.647  -1.504  0.00  0.00    +0.002 C 
ATOM     12  C   UNL     1      13.634   7.852  -0.910  0.00  0.00    +0.000 C 
ATOM     13  C   UNL     1      13.298   7.452   0.528  0.00  0.00    +0.002 C 
ATOM     14  C   UNL     1      12.034   6.589   0.535  0.00  0.00    +0.022 C 
ENDBRANCH   6   9
BRANCH   1  15
ATOM     15  C   UNL     1       4.874   6.114  -0.010  0.00  0.00    +0.172 C 
BRANCH  15  16
ATOM     16  S   UNL     1       3.413   7.183   0.009  0.00  0.00    -0.089 S 
BRANCH  16  25
ATOM     17  C   UNL     1      -1.241   2.394   0.021  0.00  0.00    +0.021 A 
ATOM     18  C   UNL     1      -1.261   3.777   0.034  0.00  0.00    +0.018 A 
ATOM     19  C   UNL     1      -0.078   4.472   0.027  0.00  0.00    +0.040 A 
ATOM     20  C   UNL     1       1.183   3.832   0.011  0.00  0.00    +0.081 A 
ATOM     21  C   UNL     1       1.166   2.419   0.004  0.00  0.00    +0.049 A 
ATOM     22  C   UNL     1      -0.021   1.732   0.012  0.00  0.00    +0.043 A 
ATOM     23 CL   UNL     1       0.002  -0.004   0.002  0.00  0.00    -0.083 Cl
ATOM     24  N   UNL     1       2.256   4.653   0.006  0.00  0.00    -0.233 NA
ATOM     25  C   UNL     1       2.142   5.963   0.015  0.00  0.00    +0.136 A 
ATOM     26  S   UNL     1       0.369   6.191   0.032  0.00  0.00    -0.061 S 
ENDBRANCH  16  25
ENDBRANCH  15  16
ENDBRANCH   1  15
TORSDOF 4
