REMARK  Name = ZINC05003844
REMARK  4 active torsions:
REMARK  status: ('A' for Active; 'I' for Inactive)
REMARK    1  A    between atoms: C_3  and  N_22
REMARK    2  A    between atoms: C_4  and  N_19
REMARK    3  A    between atoms: C_6  and  O_7
REMARK    4  A    between atoms: O_7  and  C_8
REMARK                            x       y       z     vdW  Elec       q    Type
REMARK                         _______ _______ _______ _____ _____    ______ ____
ROOT
ATOM      1  C   UNL     1       1.167   3.164  -0.009  0.00  0.00    +0.048 A 
ATOM      2  C   UNL     1      -0.033   3.848   0.032  0.00  0.00    +0.028 A 
ATOM      3  C   UNL     1      -1.231   3.147   0.057  0.00  0.00    +0.055 A 
ATOM      4  C   UNL     1      -1.223   1.758   0.035  0.00  0.00    +0.150 A 
ATOM      5  C   UNL     1      -0.023   1.076  -0.000  0.00  0.00    +0.080 A 
ATOM      6  C   UNL     1       1.174   1.777  -0.025  0.00  0.00    +0.131 A 
ENDROOT
BRANCH   4   7
ATOM      7  N   UNL     1      -2.500   1.010   0.055  0.00  0.00    +0.058 N 
ATOM      8  O   UNL     1      -2.493  -0.204   0.156  0.00  0.00    -0.126 OA
ATOM      9  O   UNL     1      -3.557   1.608  -0.029  0.00  0.00    -0.126 OA
ENDBRANCH   4   7
BRANCH   3  10
ATOM     10  N   UNL     1      -2.446   3.839   0.098  0.00  0.00    -0.356 N 
ATOM     11  H   UNL     1      -2.498   4.749  -0.234  0.00  0.00    +0.142 HD
ATOM     12  H   UNL     1      -3.237   3.409   0.459  0.00  0.00    +0.142 HD
ENDBRANCH   3  10
BRANCH   6  13
ATOM     13  O   UNL     1       2.355   1.105  -0.066  0.00  0.00    -0.450 OA
BRANCH  13  14
ATOM     14  C   UNL     1       3.504   1.832  -0.089  0.00  0.00    +0.204 A 
ATOM     15  C   UNL     1       4.061   2.213  -1.303  0.00  0.00    +0.206 A 
ATOM     16  C   UNL     1       5.228   2.959  -1.325  0.00  0.00    +0.200 A 
ATOM     17  C   UNL     1       5.846   3.315  -0.137  0.00  0.00    +0.199 A 
ATOM     18  C   UNL     1       5.294   2.931   1.075  0.00  0.00    +0.200 A 
ATOM     19  C   UNL     1       4.124   2.190   1.100  0.00  0.00    +0.206 A 
ATOM     20  F   UNL     1       3.587   1.815   2.282  0.00  0.00    -0.198 F 
ATOM     21  F   UNL     1       5.898   3.279   2.233  0.00  0.00    -0.199 F 
ATOM     22  F   UNL     1       6.987   4.039  -0.160  0.00  0.00    -0.199 F 
ATOM     23  F   UNL     1       5.767   3.335  -2.505  0.00  0.00    -0.199 F 
ATOM     24  F   UNL     1       3.462   1.861  -2.461  0.00  0.00    -0.198 F 
ENDBRANCH  13  14
ENDBRANCH   6  13
TORSDOF 4
