REMARK  Name = ZINC20331597
REMARK  3 active torsions:
REMARK  status: ('A' for Active; 'I' for Inactive)
REMARK    1  A    between atoms: C_3  and  O_28
REMARK    2  A    between atoms: C_6  and  C_7
REMARK    3  A    between atoms: C_19  and  C_20
REMARK                            x       y       z     vdW  Elec       q    Type
REMARK                         _______ _______ _______ _____ _____    ______ ____
ROOT
ATOM      1  C   UNL     1      -1.259  -0.767   0.083  0.00  0.00    +0.025 C 
ATOM      2  C   UNL     1      -1.241  -2.138  -0.043  0.00  0.00    +0.085 A 
ATOM      3  C   UNL     1       0.036  -2.909  -0.068  0.00  0.00    +0.160 A 
ATOM      4  N   UNL     1       1.099  -2.558   0.605  0.00  0.00    -0.281 NA
ATOM      5  N   UNL     1      -0.020  -4.054  -0.888  0.00  0.00    -0.212 N 
ATOM      6  C   UNL     1      -1.261  -4.615  -1.119  0.00  0.00    +0.199 A 
ATOM      7  N   UNL     1      -2.424  -4.135  -0.769  0.00  0.00    -0.182 NA
ATOM      8  C   UNL     1      -2.490  -2.931  -0.156  0.00  0.00    +0.283 A 
ATOM      9  O   UNL     1      -3.543  -2.506   0.287  0.00  0.00    -0.265 OA
ATOM     10  S   UNL     1      -0.873  -6.105  -1.999  0.00  0.00    -0.031 S 
ATOM     11  C   UNL     1       0.893  -5.865  -2.128  0.00  0.00    +0.101 A 
ATOM     12  N   UNL     1       1.069  -4.666  -1.473  0.00  0.00    -0.283 N 
ATOM     13  C   UNL     1       1.826  -6.663  -2.722  0.00  0.00    +0.102 C 
ATOM     14  H   UNL     1       1.926  -3.054   0.498  0.00  0.00    +0.188 HD
ATOM     15  H   UNL     1       1.948  -4.257  -1.423  0.00  0.00    +0.188 HD
ENDROOT
BRANCH  13  16
ATOM     16  C   UNL     1       3.179  -6.289  -2.712  0.00  0.00    +0.242 C 
ATOM     17  O   UNL     1       3.508  -5.205  -2.263  0.00  0.00    -0.271 OA
ATOM     18  N   UNL     1       4.114  -7.128  -3.200  0.00  0.00    -0.298 N 
ATOM     19  C   UNL     1       5.543  -6.802  -3.092  0.00  0.00    +0.108 C 
ATOM     20  C   UNL     1       6.267  -7.974  -2.424  0.00  0.00    +0.019 C 
ATOM     21  C   UNL     1       5.973  -9.260  -3.201  0.00  0.00    +0.003 C 
ATOM     22  C   UNL     1       4.470  -9.542  -3.172  0.00  0.00    +0.019 C 
ATOM     23  C   UNL     1       3.725  -8.390  -3.843  0.00  0.00    +0.108 C 
ENDBRANCH  13  16
BRANCH   1  29
ATOM     24  C   UNL     1       1.053  -0.463  -0.776  0.00  0.00    +0.011 A 
ATOM     25  C   UNL     1       2.217   0.248  -0.828  0.00  0.00    +0.046 A 
ATOM     26  C   UNL     1       2.353   1.421  -0.093  0.00  0.00    +0.117 A 
ATOM     27  C   UNL     1       1.305   1.877   0.701  0.00  0.00    +0.046 A 
ATOM     28  C   UNL     1       0.136   1.174   0.762  0.00  0.00    +0.011 A 
ATOM     29  C   UNL     1      -0.008  -0.009   0.022  0.00  0.00    -0.024 A 
BRANCH  26  30
ATOM     30  O   UNL     1       3.513   2.124  -0.149  0.00  0.00    -0.507 OA
ATOM     31  H   UNL     1       3.534   2.792  -0.848  0.00  0.00    +0.292 HD
ENDBRANCH  26  30
ENDBRANCH   1  29
TORSDOF 3
