REMARK  Name = ZINC49834212
REMARK  5 active torsions:
REMARK  status: ('A' for Active; 'I' for Inactive)
REMARK    1  A    between atoms: C_1  and  C_2
REMARK    2  A    between atoms: C_2  and  C_3
REMARK    3  A    between atoms: C_2  and  C_4
REMARK    4  A    between atoms: C_4  and  C_9
REMARK    5  A    between atoms: C_5  and  C_6
REMARK                            x       y       z     vdW  Elec       q    Type
REMARK                         _______ _______ _______ _____ _____    ______ ____
ROOT
ATOM      1  C   UNL     1      -2.173  -0.486   1.266  0.00  0.00    -0.019 A 
ATOM      2  C   UNL     1      -2.722   0.720   1.723  0.00  0.00    +0.010 A 
ATOM      3  C   UNL     1      -3.429   0.755   2.891  0.00  0.00    +0.028 A 
ATOM      4  C   UNL     1      -3.610  -0.406   3.634  0.00  0.00    +0.067 A 
ATOM      5  C   UNL     1      -3.067  -1.617   3.188  0.00  0.00    +0.067 A 
ATOM      6  C   UNL     1      -2.355  -1.660   2.005  0.00  0.00    +0.036 A 
ATOM      7  N   UNL     1      -3.413  -2.583   4.132  0.00  0.00    -0.306 N 
ATOM      8  H   UNL     1      -3.176  -3.523   4.095  0.00  0.00    +0.170 HD
ATOM      9  C   UNL     1      -4.130  -1.987   5.103  0.00  0.00    +0.325 A 
ATOM     10  O   UNL     1      -4.587  -2.549   6.081  0.00  0.00    -0.247 OA
ATOM     11  N   UNL     1      -4.264  -0.676   4.829  0.00  0.00    -0.306 N 
ATOM     12  H   UNL     1      -4.738  -0.029   5.374  0.00  0.00    +0.170 HD
ENDROOT
BRANCH   1  13
ATOM     13  C   UNL     1      -1.414  -0.519   0.009  0.00  0.00    -0.031 C 
ATOM     14  C   UNL     1      -1.885  -1.219  -1.049  0.00  0.00    +0.100 C 
BRANCH  13  16
ATOM     15  C   UNL     1      -0.273   1.631   0.485  0.00  0.00    +0.012 C 
ATOM     16  C   UNL     1      -0.109   0.228  -0.103  0.00  0.00    +0.014 C 
ATOM     17  C   UNL     1       0.977  -0.525   0.669  0.00  0.00    +0.012 C 
ENDBRANCH  13  16
BRANCH  14  18
ATOM     18  C   UNL     1      -1.024  -1.545  -2.121  0.00  0.00    +0.380 C 
ATOM     19  O   UNL     1       0.171  -1.282  -2.050  0.00  0.00    -0.241 OA
ATOM     20  O   UNL     1      -1.472  -2.091  -3.122  0.00  0.00    -0.241 OA
ENDBRANCH  14  18
ENDBRANCH   1  13
TORSDOF 3
