REMARK  Name = ZINC03852188
REMARK  2 active torsions:
REMARK  status: ('A' for Active; 'I' for Inactive)
REMARK    1  A    between atoms: C_7  and  C_11
REMARK    2  A    between atoms: C_7  and  O_18
REMARK                            x       y       z     vdW  Elec       q    Type
REMARK                         _______ _______ _______ _____ _____    ______ ____
ROOT
ATOM      1  C   UNL     1      -0.497   5.879   0.037  0.00  0.00    +0.000 A 
ATOM      2  C   UNL     1       0.881   5.765   0.023  0.00  0.00    +0.002 A 
ATOM      3  C   UNL     1       1.478   4.522   0.012  0.00  0.00    +0.024 A 
ATOM      4  C   UNL     1       0.695   3.369   0.013  0.00  0.00    +0.040 A 
ATOM      5  C   UNL     1      -0.688   3.497   0.027  0.00  0.00    +0.015 A 
ATOM      6  C   UNL     1      -1.282   4.739   0.039  0.00  0.00    +0.009 A 
ATOM      7  C   UNL     1      -1.244   2.091   0.018  0.00  0.00    +0.178 C 
ATOM      8  C   UNL     1      -0.014   1.209   0.009  0.00  0.00    +0.254 C 
ATOM      9  O   UNL     1       0.002  -0.004   0.002  0.00  0.00    -0.272 OA
ATOM     10  N   UNL     1       1.056   2.022   0.003  0.00  0.00    -0.282 N 
ATOM     11  H   UNL     1       1.973   1.707  -0.008  0.00  0.00    +0.155 HD
ENDROOT
BRANCH   7  12
ATOM     12  C   UNL     1      -2.075   1.839   1.278  0.00  0.00    +0.100 C 
ATOM     13  C   UNL     1      -2.426   0.341   1.388  0.00  0.00    +0.015 C 
ATOM     14  C   UNL     1      -2.332   0.050   2.907  0.00  0.00    +0.008 C 
ATOM     15  C   UNL     1      -1.129   0.926   3.337  0.00  0.00    +0.075 C 
ATOM     16  C   UNL     1      -1.267   2.192   2.510  0.00  0.00    +0.140 C 
ATOM     17  O   UNL     1      -0.817   3.279   2.784  0.00  0.00    -0.297 OA
ENDBRANCH   7  12
BRANCH   7  18
ATOM     18  O   UNL     1      -2.030   1.868  -1.154  0.00  0.00    -0.374 OA
ATOM     19  H   UNL     1      -1.561   2.043  -1.981  0.00  0.00    +0.211 HD
ENDBRANCH   7  18
TORSDOF 2
