REMARK  Name = ZINC01943982
REMARK  13 active torsions:
REMARK  status: ('A' for Active; 'I' for Inactive)
REMARK    1  A    between atoms: C_1  and  C_2
REMARK    2  A    between atoms: C_2  and  C_4
REMARK    3  A    between atoms: C_2  and  O_8
REMARK    4  A    between atoms: N_6  and  N_7
REMARK    5  A    between atoms: O_8  and  C_9
REMARK    6  A    between atoms: C_12  and  C_15
REMARK    7  A    between atoms: N_17  and  C_18
REMARK    8  A    between atoms: C_19  and  C_27
REMARK    9  A    between atoms: C_23  and  C_24
REMARK   10  A    between atoms: C_24  and  C_25
REMARK   11  A    between atoms: C_24  and  C_26
REMARK   12  A    between atoms: C_27  and  C_28
REMARK   13  A    between atoms: C_27  and  C_29
REMARK                            x       y       z     vdW  Elec       q    Type
REMARK                         _______ _______ _______ _____ _____    ______ ____
ROOT
ATOM      1  C   UNL     1       2.392   0.639   5.140  0.00  0.00    +0.122 A 
ATOM      2  C   UNL     1       2.017  -0.557   4.540  0.00  0.00    +0.046 A 
ATOM      3  C   UNL     1       0.952  -1.275   5.036  0.00  0.00    +0.016 A 
ATOM      4  C   UNL     1       0.247  -0.799   6.145  0.00  0.00    +0.037 A 
ATOM      5  C   UNL     1       0.626   0.404   6.745  0.00  0.00    +0.016 A 
ATOM      6  C   UNL     1       1.696   1.113   6.247  0.00  0.00    +0.046 A 
ENDROOT
BRANCH   4   7
ATOM      7  C   UNL     1      -0.895  -1.565   6.679  0.00  0.00    +0.248 C 
ATOM      8  O   UNL     1      -1.224  -2.612   6.155  0.00  0.00    -0.270 OA
ATOM      9  N   UNL     1      -1.574  -1.105   7.749  0.00  0.00    -0.281 N 
ATOM     10  H   UNL     1      -1.352  -0.240   8.128  0.00  0.00    +0.155 HD
BRANCH   9  11
ATOM     11  C   UNL     1      -2.599  -1.873   8.311  0.00  0.00    +0.041 A 
ATOM     12  C   UNL     1      -3.889  -1.365   8.385  0.00  0.00    -0.023 A 
ATOM     13  C   UNL     1      -4.899  -2.127   8.940  0.00  0.00    +0.006 A 
ATOM     14  C   UNL     1      -4.625  -3.393   9.423  0.00  0.00    +0.001 A 
ATOM     15  C   UNL     1      -3.341  -3.902   9.351  0.00  0.00    +0.006 A 
ATOM     16  C   UNL     1      -2.329  -3.148   8.791  0.00  0.00    -0.023 A 
BRANCH  16  17
ATOM     17  C   UNL     1      -0.931  -3.706   8.707  0.00  0.00    +0.015 C 
ATOM     18  C   UNL     1      -0.118  -3.228   9.912  0.00  0.00    +0.012 C 
ATOM     19  C   UNL     1      -0.992  -5.235   8.705  0.00  0.00    +0.012 C 
ENDBRANCH  16  17
BRANCH  12  20
ATOM     20  C   UNL     1      -4.188   0.015   7.860  0.00  0.00    +0.015 C 
ATOM     21  C   UNL     1      -5.320  -0.063   6.833  0.00  0.00    +0.012 C 
ATOM     22  C   UNL     1      -4.611   0.921   9.018  0.00  0.00    +0.012 C 
ENDBRANCH  12  20
ENDBRANCH   9  11
ENDBRANCH   4   7
BRANCH   1  23
ATOM     23  O   UNL     1       3.442   1.343   4.649  0.00  0.00    -0.480 OA
BRANCH  23  25
ATOM     24  C   UNL     1       3.274   1.309   2.238  0.00  0.00    +0.062 C 
ATOM     25  C   UNL     1       4.062   0.841   3.463  0.00  0.00    +0.257 C 
BRANCH  25  26
ATOM     26  C   UNL     1       5.475   1.357   3.378  0.00  0.00    +0.267 C 
ATOM     27  O   UNL     1       5.880   2.154   4.197  0.00  0.00    -0.270 OA
ATOM     28  N   UNL     1       6.289   0.932   2.391  0.00  0.00    -0.251 N 
ATOM     29  H   UNL     1       5.965   0.295   1.736  0.00  0.00    +0.169 HD
BRANCH  28  30
ATOM     30  N   UNL     1       7.571   1.400   2.314  0.00  0.00    -0.254 NA
ATOM     31  H   UNL     1       8.070   1.230   3.174  0.00  0.00    +0.140 HD
ATOM     32  H   UNL     1       8.057   0.995   1.528  0.00  0.00    +0.140 HD
ENDBRANCH  28  30
ENDBRANCH  25  26
ENDBRANCH  23  25
ENDBRANCH   1  23
TORSDOF 8
