REMARK  Name = ZINC08758354
REMARK  6 active torsions:
REMARK  status: ('A' for Active; 'I' for Inactive)
REMARK    1  A    between atoms: C_3  and  N_8
REMARK    2  A    between atoms: C_9  and  C_11
REMARK    3  A    between atoms: C_11  and  O_12
REMARK    4  A    between atoms: O_12  and  C_13
REMARK    5  A    between atoms: C_13  and  C_15
REMARK    6  A    between atoms: C_20  and  N_21
REMARK                            x       y       z     vdW  Elec       q    Type
REMARK                         _______ _______ _______ _____ _____    ______ ____
ROOT
ATOM      1  O   UNL     1       2.616   5.428  -0.107  0.00  0.00    -0.452 OA
ENDROOT
BRANCH   1   2
ATOM      2  C   UNL     1       2.564   4.093  -0.285  0.00  0.00    +0.341 C 
ATOM      3  O   UNL     1       3.587   3.437  -0.260  0.00  0.00    -0.245 OA
BRANCH   2   4
ATOM      4  C   UNL     1       1.269   3.429  -0.511  0.00  0.00    +0.081 A 
ATOM      5  C   UNL     1       0.107   4.190  -0.667  0.00  0.00    +0.032 A 
ATOM      6  C   UNL     1      -1.102   3.563  -0.878  0.00  0.00    +0.019 A 
ATOM      7  C   UNL     1      -1.171   2.179  -0.944  0.00  0.00    +0.017 A 
ATOM      8  C   UNL     1      -0.034   1.415  -0.787  0.00  0.00    +0.024 A 
ATOM      9  C   UNL     1       1.194   2.029  -0.573  0.00  0.00    +0.039 A 
ATOM     10 BR   UNL     1      -2.673   4.595  -1.089  0.00  0.00    -0.050 Br
BRANCH   9  11
ATOM     11  N   UNL     1       2.341   1.261  -0.420  0.00  0.00    -0.357 N 
ATOM     12  H   UNL     1       2.373   0.360  -0.778  0.00  0.00    +0.142 HD
ATOM     13  H   UNL     1       3.111   1.626   0.043  0.00  0.00    +0.142 HD
ENDBRANCH   9  11
ENDBRANCH   2   4
ENDBRANCH   1   2
BRANCH   1  14
ATOM     14  C   UNL     1       3.926   6.014   0.111  0.00  0.00    +0.328 C 
BRANCH  14  16
ATOM     15  N   UNL     1       4.880   8.262   0.504  0.00  0.00    -0.283 N 
ATOM     16  C   UNL     1       3.787   7.504   0.288  0.00  0.00    +0.255 C 
ATOM     17  O   UNL     1       2.691   8.021   0.236  0.00  0.00    -0.272 OA
ATOM     18  H   UNL     1       5.763   7.861   0.471  0.00  0.00    +0.155 HD
BRANCH  15  21
ATOM     19  C   UNL     1       5.569  11.873   0.611  0.00  0.00    +0.003 A 
ATOM     20  C   UNL     1       5.711  10.524   0.346  0.00  0.00    +0.023 A 
ATOM     21  C   UNL     1       4.742   9.628   0.777  0.00  0.00    +0.035 A 
ATOM     22  C   UNL     1       3.639  10.088   1.483  0.00  0.00    +0.038 A 
ATOM     23  C   UNL     1       3.505  11.437   1.750  0.00  0.00    +0.020 A 
ATOM     24  C   UNL     1       4.470  12.329   1.315  0.00  0.00    +0.015 A 
ATOM     25 BR   UNL     1       2.003  12.066   2.712  0.00  0.00    -0.050 Br
ENDBRANCH  15  21
ENDBRANCH  14  16
ENDBRANCH   1  14
TORSDOF 6
