REMARK  Name = ZINC20610613
REMARK  7 active torsions:
REMARK  status: ('A' for Active; 'I' for Inactive)
REMARK    1  A    between atoms: C_1  and  O_2
REMARK    2  A    between atoms: O_2  and  C_3
REMARK    3  A    between atoms: C_6  and  C_9
REMARK    4  A    between atoms: C_9  and  N_10
REMARK    5  A    between atoms: C_13  and  C_20
REMARK    6  A    between atoms: C_26  and  O_32
REMARK    7  A    between atoms: O_32  and  C_33
REMARK                            x       y       z     vdW  Elec       q    Type
REMARK                         _______ _______ _______ _____ _____    ______ ____
ROOT
ATOM      1  N   UNL     1       3.923  -2.713  -4.080  0.00  0.00    -0.256 N 
ATOM      2  C   UNL     1       4.821  -1.758  -4.391  0.00  0.00    +0.263 A 
ATOM      3  O   UNL     1       4.458  -0.723  -4.921  0.00  0.00    -0.267 OA
ATOM      4  C   UNL     1       6.181  -1.964  -4.099  0.00  0.00    +0.073 A 
ATOM      5  C   UNL     1       6.562  -3.131  -3.505  0.00  0.00    +0.260 A 
ATOM      6  N   UNL     1       5.614  -4.077  -3.205  0.00  0.00    -0.275 N 
ATOM      7  H   UNL     1       5.880  -4.908  -2.782  0.00  0.00    +0.173 HD
ATOM      8  C   UNL     1       4.318  -3.856  -3.489  0.00  0.00    +0.332 A 
ATOM      9  O   UNL     1       3.491  -4.704  -3.211  0.00  0.00    -0.246 OA
ATOM     10  O   UNL     1       7.861  -3.354  -3.214  0.00  0.00    -0.267 OA
ENDROOT
BRANCH   4  11
ATOM     11  C   UNL     1       7.204  -0.911  -4.438  0.00  0.00    +0.018 C 
ATOM     12  C   UNL     1       6.940   0.333  -3.623  0.00  0.00    +0.011 A 
ATOM     13  C   UNL     1       7.007   1.580  -4.142  0.00  0.00    -0.022 A 
ATOM     14  C   UNL     1       6.694   2.506  -3.077  0.00  0.00    +0.006 A 
ATOM     15  C   UNL     1       6.609   3.901  -3.024  0.00  0.00    +0.056 A 
ATOM     16  C   UNL     1       6.274   4.461  -1.800  0.00  0.00    +0.121 A 
ATOM     17  C   UNL     1       6.035   3.678  -0.677  0.00  0.00    +0.047 A 
ATOM     18  C   UNL     1       6.114   2.297  -0.711  0.00  0.00    +0.030 A 
ATOM     19  C   UNL     1       6.449   1.709  -1.929  0.00  0.00    +0.047 A 
ATOM     20  N   UNL     1       6.609   0.401  -2.298  0.00  0.00    -0.359 N 
ATOM     21  H   UNL     1       6.502  -0.362  -1.709  0.00  0.00    +0.166 HD
ATOM     22  C   UNL     1       7.357   1.857  -5.583  0.00  0.00    +0.018 C 
ATOM     23  C   UNL     1       7.969   0.579  -6.172  0.00  0.00    -0.076 C 
ATOM     24  N   UNL     1       7.107  -0.570  -5.866  0.00  0.00    +0.388 N 
ATOM     25  H   UNL     1       7.393  -1.363  -6.420  0.00  0.00    -0.084 HD
ATOM     26  H   UNL     1       6.151  -0.336  -6.090  0.00  0.00    -0.084 HD
BRANCH  16  27
ATOM     27  O   UNL     1       6.179   5.813  -1.696  0.00  0.00    -0.495 OA
ATOM     28  C   UNL     1       5.832   6.342  -0.414  0.00  0.00    +0.277 C 
ENDBRANCH  16  27
ENDBRANCH   4  11
BRANCH   1  29
ATOM     29  C   UNL     1       2.505  -2.503  -4.381  0.00  0.00    +0.165 C 
BRANCH  29  33
ATOM     30  C   UNL     1       0.606  -0.607  -1.056  0.00  0.00    +0.120 A 
ATOM     31  C   UNL     1       1.173   0.161  -2.062  0.00  0.00    +0.046 A 
ATOM     32  C   UNL     1       1.786  -0.455  -3.136  0.00  0.00    +0.009 A 
ATOM     33  C   UNL     1       1.835  -1.835  -3.209  0.00  0.00    -0.027 A 
ATOM     34  C   UNL     1       1.270  -2.602  -2.207  0.00  0.00    +0.009 A 
ATOM     35  C   UNL     1       0.661  -1.992  -1.128  0.00  0.00    +0.046 A 
BRANCH  30  37
ATOM     36  C   UNL     1      -0.017   1.425   0.010  0.00  0.00    +0.277 C 
ATOM     37  O   UNL     1       0.002  -0.004   0.002  0.00  0.00    -0.495 OA
ENDBRANCH  30  37
ENDBRANCH  29  33
ENDBRANCH   1  29
TORSDOF 5
