REMARK  Name = ZINC06568492
REMARK  4 active torsions:
REMARK  status: ('A' for Active; 'I' for Inactive)
REMARK    1  A    between atoms: C_1  and  C_2
REMARK    2  A    between atoms: C_2  and  C_3
REMARK    3  A    between atoms: C_14  and  N_16
REMARK    4  A    between atoms: N_19  and  C_22
REMARK                            x       y       z     vdW  Elec       q    Type
REMARK                         _______ _______ _______ _____ _____    ______ ____
ROOT
ATOM      1  C   UNL     1      -4.332   5.226   0.071  0.00  0.00    +0.132 A 
ATOM      2  N   UNL     1      -3.629   4.112   0.059  0.00  0.00    -0.228 NA
ATOM      3  C   UNL     1      -2.300   4.152   0.046  0.00  0.00    +0.122 A 
ATOM      4  C   UNL     1      -1.231   3.139   0.031  0.00  0.00    +0.046 A 
ATOM      5  C   UNL     1      -1.216   1.747   0.017  0.00  0.00    +0.014 A 
ATOM      6  C   UNL     1      -0.013   1.076   0.008  0.00  0.00    +0.001 A 
ATOM      7  C   UNL     1       1.180   1.784   0.000  0.00  0.00    +0.004 A 
ATOM      8  C   UNL     1       1.178   3.162   0.008  0.00  0.00    +0.047 A 
ATOM      9  C   UNL     1      -0.026   3.857   0.023  0.00  0.00    +0.138 A 
ATOM     10  O   UNL     1      -0.315   5.177   0.033  0.00  0.00    -0.450 OA
ATOM     11  C   UNL     1      -1.647   5.390   0.047  0.00  0.00    +0.194 A 
ATOM     12  C   UNL     1      -2.437   6.545   0.061  0.00  0.00    +0.168 A 
ATOM     13  N   UNL     1      -3.760   6.415   0.073  0.00  0.00    -0.214 NA
ENDROOT
BRANCH  12  14
ATOM     14  N   UNL     1      -1.851   7.802   0.062  0.00  0.00    -0.309 N 
ATOM     15  C   UNL     1      -0.926   7.950   1.194  0.00  0.00    +0.125 C 
ATOM     16  C   UNL     1      -0.242   9.317   1.115  0.00  0.00    +0.124 C 
ATOM     17  N   UNL     1      -1.262  10.374   1.130  0.00  0.00    -0.325 N 
ATOM     18  C   UNL     1      -2.188  10.226  -0.002  0.00  0.00    +0.124 C 
ATOM     19  C   UNL     1      -2.871   8.859   0.077  0.00  0.00    +0.125 C 
BRANCH  17  20
ATOM     20  C   UNL     1      -0.671  11.642   1.131  0.00  0.00    +0.065 A 
ATOM     21  C   UNL     1      -1.463  12.779   1.218  0.00  0.00    +0.026 A 
ATOM     22  C   UNL     1      -0.876  14.029   1.223  0.00  0.00    +0.002 A 
ATOM     23  C   UNL     1       0.499  14.151   1.132  0.00  0.00    +0.003 A 
ATOM     24  C   UNL     1       1.291  13.021   1.040  0.00  0.00    +0.040 A 
ATOM     25  C   UNL     1       0.711  11.766   1.039  0.00  0.00    +0.144 A 
ATOM     26  F   UNL     1       1.485  10.663   0.948  0.00  0.00    -0.204 F 
ENDBRANCH  17  20
ENDBRANCH  12  14
BRANCH   1  28
ATOM     27  C   UNL     1      -6.331   5.103   1.532  0.00  0.00    +0.012 C 
ATOM     28  C   UNL     1      -5.836   5.139   0.085  0.00  0.00    +0.073 C 
ENDBRANCH   1  28
TORSDOF 3
