REMARK  Name = ZINC36648093
REMARK  11 active torsions:
REMARK  status: ('A' for Active; 'I' for Inactive)
REMARK    1  A    between atoms: C_1  and  C_2
REMARK    2  A    between atoms: C_5  and  C_35
REMARK    3  A    between atoms: N_11  and  C_12
REMARK    4  A    between atoms: C_12  and  C_13
REMARK    5  A    between atoms: C_13  and  C_14
REMARK    6  A    between atoms: C_14  and  N_15
REMARK    7  A    between atoms: N_15  and  C_16
REMARK    8  A    between atoms: N_15  and  C_17
REMARK    9  A    between atoms: C_18  and  C_20
REMARK   10  A    between atoms: N_26  and  S_27
REMARK   11  A    between atoms: S_27  and  C_30
REMARK                            x       y       z     vdW  Elec       q    Type
REMARK                         _______ _______ _______ _____ _____    ______ ____
ROOT
ATOM      1  C   UNL     1      -0.867   0.810   0.480  0.00  0.00    +0.046 C 
ATOM      2  C   UNL     1      -1.024  -0.640   0.859  0.00  0.00    -0.024 A 
ATOM      3  C   UNL     1      -1.173  -1.585  -0.124  0.00  0.00    +0.006 A 
ATOM      4  C   UNL     1      -1.320  -2.930   0.181  0.00  0.00    +0.005 A 
ATOM      5  C   UNL     1      -1.316  -3.329   1.505  0.00  0.00    -0.035 A 
ATOM      6  C   UNL     1      -1.167  -2.391   2.495  0.00  0.00    +0.044 A 
ATOM      7  C   UNL     1      -1.009  -1.012   2.222  0.00  0.00    +0.083 A 
ATOM      8  N   UNL     1      -0.868  -0.215   3.303  0.00  0.00    -0.224 NA
ATOM      9  C   UNL     1      -0.872  -0.682   4.530  0.00  0.00    +0.168 A 
ATOM     10  S   UNL     1      -1.104  -2.435   4.270  0.00  0.00    -0.052 S 
ATOM     11  N   UNL     1      -0.738   0.010   5.723  0.00  0.00    -0.249 N 
ATOM     12  C   UNL     1      -0.579   1.348   5.712  0.00  0.00    +0.240 C 
ATOM     13  O   UNL     1      -0.646   1.958   4.667  0.00  0.00    -0.273 OA
ATOM     14  C   UNL     1      -1.475  -4.785   1.858  0.00  0.00    +0.045 C 
ENDROOT
BRANCH  12  15
ATOM     15  C   UNL     1      -0.316   2.086   7.000  0.00  0.00    +0.166 C 
ATOM     16  C   UNL     1       1.035   2.804   6.914  0.00  0.00    +0.030 C 
ATOM     17  C   UNL     1       1.232   3.662   8.166  0.00  0.00    +0.003 C 
ATOM     18  C   UNL     1       0.128   4.718   8.241  0.00  0.00    +0.017 C 
ATOM     19  C   UNL     1      -1.233   4.022   8.342  0.00  0.00    +0.110 C 
ATOM     20  N   UNL     1      -1.372   3.083   7.220  0.00  0.00    -0.164 NA
BRANCH  20  21
ATOM     21  S   UNL     1      -2.690   3.152   6.220  0.00  0.00    +0.068 S 
ATOM     22  O   UNL     1      -2.812   1.869   5.621  0.00  0.00    -0.152 OA
ATOM     23  O   UNL     1      -3.740   3.744   6.972  0.00  0.00    -0.152 OA
BRANCH  21  24
ATOM     24  C   UNL     1      -2.302   4.279   4.923  0.00  0.00    +0.143 A 
ATOM     25  C   UNL     1      -1.847   4.018   3.672  0.00  0.00    +0.036 A 
ATOM     26  C   UNL     1      -1.609   5.073   2.812  0.00  0.00    +0.010 A 
ATOM     27  C   UNL     1      -1.838   6.338   3.243  0.00  0.00    +0.047 A 
ATOM     28  S   UNL     1      -2.414   6.061   4.910  0.00  0.00    -0.077 S 
ENDBRANCH  21  24
ENDBRANCH  20  21
ENDBRANCH  12  15
BRANCH  11  29
ATOM     29  C   UNL     1      -0.771  -0.714   6.996  0.00  0.00    +0.114 C 
BRANCH  29  30
ATOM     30  C   UNL     1       0.644  -1.166   7.362  0.00  0.00    +0.001 C 
BRANCH  30  31
ATOM     31  C   UNL     1       0.594  -2.026   8.626  0.00  0.00    -0.078 C 
BRANCH  31  32
ATOM     32  N   UNL     1       1.953  -2.460   8.978  0.00  0.00    +0.376 N 
ATOM     33  C   UNL     1       1.921  -3.185  10.255  0.00  0.00    -0.097 C 
ATOM     34  C   UNL     1       2.472  -3.345   7.926  0.00  0.00    -0.097 C 
ATOM     35  H   UNL     1       2.552  -1.653   9.064  0.00  0.00    -0.083 HD
ENDBRANCH  31  32
ENDBRANCH  30  31
ENDBRANCH  29  30
ENDBRANCH  11  29
TORSDOF 7
