REMARK  Name = ZINC41034225
REMARK  4 active torsions:
REMARK  status: ('A' for Active; 'I' for Inactive)
REMARK    1  A    between atoms: C_1  and  C_2
REMARK    2  A    between atoms: C_7  and  C_9
REMARK    3  A    between atoms: C_7  and  N_12
REMARK    4  A    between atoms: C_13  and  C_15
REMARK                            x       y       z     vdW  Elec       q    Type
REMARK                         _______ _______ _______ _____ _____    ______ ____
ROOT
ATOM      1  N   UNL     1       2.256   1.486   1.044  0.00  0.00    -0.298 N 
ATOM      2  C   UNL     1       1.859   2.148   2.149  0.00  0.00    +0.235 C 
ATOM      3  O   UNL     1       1.517   1.532   3.136  0.00  0.00    -0.274 OA
ATOM      4  H   UNL     1       2.530   1.979   0.255  0.00  0.00    +0.150 HD
ENDROOT
BRANCH   1  10
ATOM      5  C   UNL     1      -0.087   1.524   0.176  0.00  0.00    +0.007 C 
ATOM      6  C   UNL     1      -0.066  -0.006   0.168  0.00  0.00    -0.012 C 
ATOM      7  C   UNL     1       0.442  -0.502  -1.188  0.00  0.00    +0.003 C 
ATOM      8  C   UNL     1       1.857   0.029  -1.427  0.00  0.00    +0.003 C 
ATOM      9  C   UNL     1       2.785  -0.475  -0.319  0.00  0.00    +0.037 C 
ATOM     10  C   UNL     1       2.276   0.021   1.036  0.00  0.00    +0.136 C 
ATOM     11  C   UNL     1       0.861  -0.509   1.275  0.00  0.00    +0.040 C 
BRANCH  10  12
ATOM     12  C   UNL     1       3.190  -0.475   2.128  0.00  0.00    +0.379 C 
ATOM     13  O   UNL     1       3.770   0.321   2.845  0.00  0.00    -0.244 OA
ATOM     14  O   UNL     1       3.348  -1.673   2.292  0.00  0.00    -0.244 OA
ENDBRANCH  10  12
ENDBRANCH   1  10
BRANCH   2  15
ATOM     15  C   UNL     1       1.838   3.655   2.157  0.00  0.00    +0.170 C 
ATOM     16  C   UNL     1       3.283   4.182   2.361  0.00  0.00    +0.110 C 
ATOM     17  S   UNL     1       2.900   5.682   3.361  0.00  0.00    -0.065 S 
ATOM     18  C   UNL     1       1.291   5.188   3.954  0.00  0.00    +0.273 C 
ATOM     19  O   UNL     1       0.637   5.710   4.837  0.00  0.00    -0.263 OA
ATOM     20  N   UNL     1       0.957   4.113   3.216  0.00  0.00    -0.294 N 
ATOM     21  H   UNL     1       0.126   3.645   3.392  0.00  0.00    +0.150 HD
ENDBRANCH   2  15
TORSDOF 3
