REMARK  Name = ZINC52817182
REMARK  8 active torsions:
REMARK  status: ('A' for Active; 'I' for Inactive)
REMARK    1  A    between atoms: C_1  and  C_2
REMARK    2  A    between atoms: C_3  and  C_26
REMARK    3  A    between atoms: C_5  and  N_20
REMARK    4  A    between atoms: C_6  and  C_7
REMARK    5  A    between atoms: N_9  and  C_10
REMARK    6  A    between atoms: C_13  and  N_16
REMARK    7  A    between atoms: C_17  and  C_19
REMARK    8  A    between atoms: C_21  and  C_23
REMARK                            x       y       z     vdW  Elec       q    Type
REMARK                         _______ _______ _______ _____ _____    ______ ____
ROOT
ATOM      1  C   UNL     1      -0.005  -0.116   2.536  0.00  0.00    +0.251 C 
ATOM      2  O   UNL     1      -1.054   0.150   3.093  0.00  0.00    -0.270 OA
ATOM      3  N   UNL     1       1.167   0.182   3.130  0.00  0.00    -0.281 N 
ATOM      4  H   UNL     1       2.003  -0.089   2.719  0.00  0.00    +0.155 HD
ENDROOT
BRANCH   1  10
ATOM      5  C   UNL     1      -0.032   1.515  -0.001  0.00  0.00    +0.045 C 
ATOM      6  C   UNL     1      -0.029   0.008  -0.003  0.00  0.00    -0.027 A 
ATOM      7  C   UNL     1      -0.032  -0.705  -1.145  0.00  0.00    -0.008 A 
ATOM      8  S   UNL     1      -0.027  -2.390  -0.575  0.00  0.00    -0.078 S 
ATOM      9  C   UNL     1      -0.020  -2.142   1.084  0.00  0.00    +0.084 A 
ATOM     10  C   UNL     1      -0.016  -0.761   1.220  0.00  0.00    +0.069 A 
ATOM     11  C   UNL     1      -0.040  -0.197  -2.564  0.00  0.00    +0.052 C 
BRANCH   9  12
ATOM     12  N   UNL     1      -0.014  -3.098   2.089  0.00  0.00    -0.279 N 
ATOM     13  C   UNL     1      -0.013  -4.408   1.773  0.00  0.00    +0.221 C 
ATOM     14  O   UNL     1      -0.017  -4.751   0.610  0.00  0.00    -0.275 OA
ATOM     15  H   UNL     1      -0.011  -2.823   3.019  0.00  0.00    +0.155 HD
BRANCH  13  16
ATOM     16  C   UNL     1      -0.007  -5.446   2.865  0.00  0.00    +0.075 C 
ATOM     17  C   UNL     1       1.259  -6.289   3.031  0.00  0.00    +0.013 C 
ATOM     18  C   UNL     1      -0.005  -6.916   2.442  0.00  0.00    +0.013 C 
ENDBRANCH  13  16
ENDBRANCH   9  12
ENDBRANCH   1  10
BRANCH   3  19
ATOM     19  C   UNL     1       1.180   0.884   4.342  0.00  0.00    +0.034 A 
ATOM     20  C   UNL     1       2.190   1.801   4.603  0.00  0.00    +0.025 A 
ATOM     21  C   UNL     1       2.201   2.494   5.797  0.00  0.00    +0.025 A 
ATOM     22  C   UNL     1       1.204   2.273   6.737  0.00  0.00    +0.033 A 
ATOM     23  C   UNL     1       0.194   1.356   6.476  0.00  0.00    +0.025 A 
ATOM     24  C   UNL     1       0.179   0.668   5.280  0.00  0.00    +0.025 A 
BRANCH  22  25
ATOM     25  N   UNL     1       1.216   2.976   7.949  0.00  0.00    -0.286 N 
ATOM     26  C   UNL     1       0.794   2.376   9.080  0.00  0.00    +0.214 C 
ATOM     27  O   UNL     1       0.327   1.258   9.035  0.00  0.00    -0.276 OA
ATOM     28  C   UNL     1       0.905   3.095  10.400  0.00  0.00    +0.109 C 
ATOM     29  H   UNL     1       1.528   3.894   7.974  0.00  0.00    +0.155 HD
ENDBRANCH  22  25
ENDBRANCH   3  19
TORSDOF 5
