REMARK  Name = ZINC07442901
REMARK  5 active torsions:
REMARK  status: ('A' for Active; 'I' for Inactive)
REMARK    1  A    between atoms: C_1  and  C_2
REMARK    2  A    between atoms: C_5  and  S_8
REMARK    3  A    between atoms: S_8  and  N_11
REMARK    4  A    between atoms: N_11  and  C_12
REMARK    5  A    between atoms: C_15  and  N_19
REMARK                            x       y       z     vdW  Elec       q    Type
REMARK                         _______ _______ _______ _____ _____    ______ ____
ROOT
ATOM      1  N   UNL     1       1.644  -4.999  -0.172  0.00  0.00    -0.216 N 
ATOM      2  H   UNL     1       1.793  -5.869   0.231  0.00  0.00    +0.174 HD
ENDROOT
BRANCH   1   3
ATOM      3  C   UNL     1       2.386  -4.611  -1.294  0.00  0.00    +0.051 A 
ATOM      4  C   UNL     1       1.794  -4.605  -2.550  0.00  0.00    +0.046 A 
ATOM      5  C   UNL     1       2.526  -4.222  -3.658  0.00  0.00    +0.065 A 
ATOM      6  C   UNL     1       3.855  -3.843  -3.514  0.00  0.00    +0.062 A 
ATOM      7  C   UNL     1       4.447  -3.848  -2.258  0.00  0.00    +0.065 A 
ATOM      8  C   UNL     1       3.713  -4.226  -1.150  0.00  0.00    +0.046 A 
ATOM      9 CL   UNL     1       6.107  -3.374  -2.079  0.00  0.00    -0.082 Cl
ATOM     10 CL   UNL     1       1.786  -4.216  -5.228  0.00  0.00    -0.082 Cl
BRANCH   6  11
ATOM     11  N   UNL     1       4.598  -3.455  -4.638  0.00  0.00    -0.356 N 
ATOM     12  H   UNL     1       4.184  -3.451  -5.515  0.00  0.00    +0.142 HD
ATOM     13  H   UNL     1       5.526  -3.190  -4.538  0.00  0.00    +0.142 HD
ENDBRANCH   6  11
ENDBRANCH   1   3
BRANCH   1  14
ATOM     14  S   UNL     1       0.513  -3.973   0.468  0.00  0.00    +0.072 S 
ATOM     15  O   UNL     1      -0.006  -4.611   1.626  0.00  0.00    -0.150 OA
ATOM     16  O   UNL     1      -0.316  -3.559  -0.610  0.00  0.00    -0.150 OA
BRANCH  14  21
ATOM     17  C   UNL     1       3.439   0.948   2.375  0.00  0.00    +0.044 C 
ATOM     18  C   UNL     1       2.708  -0.281   1.898  0.00  0.00    -0.050 A 
ATOM     19  C   UNL     1       2.127  -0.297   0.644  0.00  0.00    +0.005 A 
ATOM     20  C   UNL     1       1.457  -1.425   0.207  0.00  0.00    +0.029 A 
ATOM     21  C   UNL     1       1.368  -2.536   1.024  0.00  0.00    +0.109 A 
ATOM     22  C   UNL     1       1.950  -2.520   2.278  0.00  0.00    +0.029 A 
ATOM     23  C   UNL     1       2.623  -1.395   2.713  0.00  0.00    +0.005 A 
ENDBRANCH  14  21
ENDBRANCH   1  14
TORSDOF 4
