REMARK  Name = ZINC14012745
REMARK  10 active torsions:
REMARK  status: ('A' for Active; 'I' for Inactive)
REMARK    1  A    between atoms: C_1  and  C_2
REMARK    2  A    between atoms: C_2  and  O_3
REMARK    3  A    between atoms: O_3  and  C_4
REMARK    4  A    between atoms: C_7  and  C_10
REMARK    5  A    between atoms: N_12  and  C_13
REMARK    6  A    between atoms: C_13  and  N_15
REMARK    7  A    between atoms: N_15  and  N_16
REMARK    8  A    between atoms: C_17  and  C_19
REMARK    9  A    between atoms: C_19  and  O_20
REMARK   10  A    between atoms: O_20  and  C_21
REMARK                            x       y       z     vdW  Elec       q    Type
REMARK                         _______ _______ _______ _____ _____    ______ ____
ROOT
ATOM      1  N   UNL     1       5.212  -2.709  -0.065  0.00  0.00    -0.245 N 
ATOM      2  H   UNL     1       5.972  -2.107  -0.069  0.00  0.00    +0.172 HD
ENDROOT
BRANCH   1   3
ATOM      3  N   UNL     1       3.909  -2.193  -0.049  0.00  0.00    -0.232 N 
ATOM      4  C   UNL     1       3.713  -0.860  -0.040  0.00  0.00    +0.267 C 
ATOM      5  O   UNL     1       4.664  -0.107  -0.044  0.00  0.00    -0.271 OA
ATOM      6  H   UNL     1       3.149  -2.795  -0.045  0.00  0.00    +0.173 HD
BRANCH   4   7
ATOM      7  C   UNL     1       2.312  -0.304  -0.023  0.00  0.00    +0.326 C 
BRANCH   7   8
ATOM      8  O   UNL     1       2.366   1.124  -0.015  0.00  0.00    -0.481 OA
BRANCH   8   9
ATOM      9  C   UNL     1       1.179   1.786   0.000  0.00  0.00    +0.139 A 
ATOM     10  C   UNL     1      -0.013   1.076   0.008  0.00  0.00    +0.048 A 
ATOM     11  C   UNL     1      -1.218   1.751   0.017  0.00  0.00    +0.019 A 
ATOM     12  C   UNL     1      -1.238   3.134   0.030  0.00  0.00    +0.019 A 
ATOM     13  C   UNL     1      -0.051   3.845   0.023  0.00  0.00    +0.039 A 
ATOM     14  C   UNL     1       1.157   3.174   0.008  0.00  0.00    +0.084 A 
ATOM     15 CL   UNL     1       2.646   4.066  -0.002  0.00  0.00    -0.080 Cl
ATOM     16 BR   UNL     1      -2.890   4.054   0.050  0.00  0.00    -0.050 Br
ENDBRANCH   8   9
ENDBRANCH   7   8
ENDBRANCH   4   7
ENDBRANCH   1   3
BRANCH   1  17
ATOM     17  C   UNL     1       5.408  -4.043  -0.074  0.00  0.00    +0.153 C 
ATOM     18  S   UNL     1       6.999  -4.674  -0.093  0.00  0.00    -0.017 S 
BRANCH  17  21
ATOM     19  C   UNL     1       4.547  -6.213  -0.078  0.00  0.00    +0.250 C 
ATOM     20  O   UNL     1       5.677  -6.661  -0.092  0.00  0.00    -0.270 OA
ATOM     21  N   UNL     1       4.351  -4.879  -0.069  0.00  0.00    -0.263 N 
ATOM     22  H   UNL     1       3.449  -4.522  -0.058  0.00  0.00    +0.157 HD
BRANCH  19  26
ATOM     23  C   UNL     1       1.219  -8.849  -0.061  0.00  0.00    +0.121 A 
ATOM     24  C   UNL     1       2.510  -9.363  -0.077  0.00  0.00    +0.046 A 
ATOM     25  C   UNL     1       3.592  -8.512  -0.082  0.00  0.00    +0.016 A 
ATOM     26  C   UNL     1       3.391  -7.128  -0.072  0.00  0.00    +0.037 A 
ATOM     27  C   UNL     1       2.091  -6.615  -0.051  0.00  0.00    +0.016 A 
ATOM     28  C   UNL     1       1.014  -7.474  -0.051  0.00  0.00    +0.046 A 
BRANCH  23  29
ATOM     29  O   UNL     1       0.155  -9.691  -0.056  0.00  0.00    -0.492 OA
BRANCH  29  31
ATOM     30  C   UNL     1      -2.209 -10.194  -0.036  0.00  0.00    +0.048 C 
ATOM     31  C   UNL     1      -1.144  -9.096  -0.040  0.00  0.00    +0.225 C 
ENDBRANCH  29  31
ENDBRANCH  23  29
ENDBRANCH  19  26
ENDBRANCH  17  21
ENDBRANCH   1  17
TORSDOF 9
