REMARK  Name = ZINC43553817
REMARK  16 active torsions:
REMARK  status: ('A' for Active; 'I' for Inactive)
REMARK    1  A    between atoms: C_1  and  C_2
REMARK    2  A    between atoms: C_2  and  C_3
REMARK    3  A    between atoms: C_2  and  N_4
REMARK    4  A    between atoms: C_5  and  O_7
REMARK    5  A    between atoms: O_7  and  C_8
REMARK    6  A    between atoms: C_12  and  C_39
REMARK    7  A    between atoms: C_15  and  C_16
REMARK    8  A    between atoms: C_15  and  C_17
REMARK    9  A    between atoms: C_17  and  O_18
REMARK   10  A    between atoms: C_21  and  O_38
REMARK   11  A    between atoms: C_23  and  C_25
REMARK   12  A    between atoms: C_25  and  C_26
REMARK   13  A    between atoms: N_28  and  C_29
REMARK   14  A    between atoms: C_29  and  C_30
REMARK   15  A    between atoms: C_35  and  O_36
REMARK   16  A    between atoms: O_36  and  C_37
REMARK                            x       y       z     vdW  Elec       q    Type
REMARK                         _______ _______ _______ _____ _____    ______ ____
ROOT
ATOM      1  C   UNL     1      -3.303  -3.571  -1.028  0.00  0.00    +0.186 C 
ATOM      2  C   UNL     1      -3.591  -3.464  -2.518  0.00  0.00    +0.046 C 
ATOM      3  C   UNL     1      -4.925  -2.751  -2.750  0.00  0.00    +0.011 C 
ATOM      4  C   UNL     1      -6.054  -3.547  -2.104  0.00  0.00    -0.023 C 
ATOM      5  C   UNL     1      -5.806  -3.681  -0.604  0.00  0.00    +0.007 C 
ATOM      6  C   UNL     1      -4.434  -4.242  -0.259  0.00  0.00    +0.031 C 
ATOM      7  C   UNL     1      -4.368  -5.762  -0.464  0.00  0.00    +0.017 C 
ATOM      8  C   UNL     1      -5.992  -2.321   0.076  0.00  0.00    +0.007 C 
ATOM      9  C   UNL     1      -7.398  -1.770  -0.177  0.00  0.00    +0.032 C 
ATOM     10  C   UNL     1      -7.597  -1.568  -1.678  0.00  0.00    +0.119 C 
ATOM     11  C   UNL     1      -7.415  -2.904  -2.381  0.00  0.00    +0.032 C 
ATOM     12  C   UNL     1      -6.131  -4.932  -2.776  0.00  0.00    +0.012 C 
ENDROOT
BRANCH  10  13
ATOM     13  O   UNL     1      -6.693  -0.588  -2.176  0.00  0.00    -0.391 OA
ATOM     14  H   UNL     1      -6.792   0.282  -1.766  0.00  0.00    +0.210 HD
ENDBRANCH  10  13
BRANCH   1  15
ATOM     15  O   UNL     1      -3.048  -2.271  -0.487  0.00  0.00    -0.446 OA
BRANCH  15  17
ATOM     16  N   UNL     1      -1.469  -0.612  -0.041  0.00  0.00    -0.279 N 
ATOM     17  C   UNL     1      -1.777  -1.829  -0.533  0.00  0.00    +0.401 C 
ATOM     18  O   UNL     1      -0.908  -2.525  -1.019  0.00  0.00    -0.226 OA
ATOM     19  H   UNL     1      -2.163  -0.056   0.347  0.00  0.00    +0.152 HD
BRANCH  16  21
ATOM     20  C   UNL     1      -0.078   1.399  -0.078  0.00  0.00    +0.027 C 
ATOM     21  C   UNL     1      -0.086  -0.131  -0.091  0.00  0.00    +0.070 C 
ATOM     22  C   UNL     1       0.681  -0.655   1.125  0.00  0.00    +0.027 C 
ENDBRANCH  16  21
ENDBRANCH  15  17
ENDBRANCH   1  15
BRANCH   6  23
ATOM     23  C   UNL     1      -4.146  -4.024   1.246  0.00  0.00    +0.166 C 
BRANCH  23  24
ATOM     24  O   UNL     1      -2.888  -4.614   1.580  0.00  0.00    -0.394 OA
ATOM     25  H   UNL     1      -2.643  -4.515   2.510  0.00  0.00    +0.209 HD
ENDBRANCH  23  24
ENDBRANCH   6  23
BRANCH  11  26
ATOM     26  C   UNL     1      -7.638  -2.744  -3.885  0.00  0.00    +0.102 C 
BRANCH  26  27
ATOM     27  C   UNL     1      -9.030  -2.223  -4.134  0.00  0.00    +0.214 C 
ATOM     28  O   UNL     1      -9.771  -2.002  -3.200  0.00  0.00    -0.276 OA
ATOM     29  N   UNL     1      -9.451  -2.004  -5.395  0.00  0.00    -0.311 N 
ATOM     30  H   UNL     1      -8.859  -2.181  -6.143  0.00  0.00    +0.149 HD
BRANCH  29  31
ATOM     31  C   UNL     1     -10.805  -1.497  -5.638  0.00  0.00    +0.143 C 
BRANCH  31  32
ATOM     32  C   UNL     1     -11.024  -1.340  -7.120  0.00  0.00    +0.011 A 
ATOM     33  C   UNL     1     -10.909  -0.095  -7.708  0.00  0.00    +0.009 A 
ATOM     34  C   UNL     1     -11.111   0.050  -9.068  0.00  0.00    +0.001 A 
ATOM     35  C   UNL     1     -11.428  -1.050  -9.844  0.00  0.00    +0.004 A 
ATOM     36  C   UNL     1     -11.544  -2.297  -9.261  0.00  0.00    +0.046 A 
ATOM     37  C   UNL     1     -11.337  -2.446  -7.897  0.00  0.00    +0.125 A 
BRANCH  37  38
ATOM     38  O   UNL     1     -11.445  -3.673  -7.322  0.00  0.00    -0.495 OA
ATOM     39  C   UNL     1     -11.769  -4.766  -8.183  0.00  0.00    +0.277 C 
ENDBRANCH  37  38
ENDBRANCH  31  32
ENDBRANCH  29  31
ENDBRANCH  26  27
ENDBRANCH  11  26
TORSDOF 11
