REMARK  Name = ZINC31167091
REMARK  7 active torsions:
REMARK  status: ('A' for Active; 'I' for Inactive)
REMARK    1  A    between atoms: C_1  and  O_2
REMARK    2  A    between atoms: O_2  and  C_3
REMARK    3  A    between atoms: C_6  and  C_10
REMARK    4  A    between atoms: C_8  and  O_9
REMARK    5  A    between atoms: C_12  and  O_25
REMARK    6  A    between atoms: C_14  and  O_24
REMARK    7  A    between atoms: C_19  and  O_23
REMARK                            x       y       z     vdW  Elec       q    Type
REMARK                         _______ _______ _______ _____ _____    ______ ____
ROOT
ATOM      1  C   UNL     1      -0.017   1.424   0.010  0.00  0.00    +0.235 C 
ATOM      2  C   UNL     1       1.432   1.927  -0.001  0.00  0.00    +0.192 C 
ATOM      3  C   UNL     1       2.102   1.492   1.304  0.00  0.00    +0.180 C 
ATOM      4  C   UNL     1       1.830   0.030   1.552  0.00  0.00    +0.025 A 
ATOM      5  C   UNL     1       2.628  -0.652   2.456  0.00  0.00    +0.013 A 
ATOM      6  C   UNL     1       2.405  -1.989   2.715  0.00  0.00    +0.046 A 
ATOM      7  C   UNL     1       1.376  -2.658   2.067  0.00  0.00    +0.120 A 
ATOM      8  C   UNL     1       0.577  -1.980   1.161  0.00  0.00    +0.091 A 
ATOM      9  C   UNL     1       0.804  -0.633   0.900  0.00  0.00    +0.131 A 
ATOM     10  O   UNL     1       0.002  -0.004   0.002  0.00  0.00    -0.481 OA
ENDROOT
BRANCH   1  14
ATOM     11  C   UNL     1      -2.065   2.850  -3.463  0.00  0.00    +0.161 A 
ATOM     12  C   UNL     1      -1.291   1.703  -3.534  0.00  0.00    +0.050 A 
ATOM     13  C   UNL     1      -0.630   1.245  -2.409  0.00  0.00    +0.011 A 
ATOM     14  C   UNL     1      -0.739   1.929  -1.213  0.00  0.00    -0.001 A 
ATOM     15  C   UNL     1      -1.514   3.071  -1.134  0.00  0.00    +0.056 A 
ATOM     16  C   UNL     1      -2.174   3.539  -2.259  0.00  0.00    +0.159 A 
BRANCH  11  18
ATOM     17  C   UNL     1      -2.557   2.546  -5.770  0.00  0.00    +0.277 C 
ATOM     18  O   UNL     1      -2.716   3.303  -4.568  0.00  0.00    -0.491 OA
ENDBRANCH  11  18
BRANCH  16  19
ATOM     19  O   UNL     1      -2.933   4.666  -2.184  0.00  0.00    -0.503 OA
ATOM     20  H   UNL     1      -3.018   5.209  -1.232  0.00  0.00    +0.292 HD
ENDBRANCH  16  19
ENDBRANCH   1  14
BRANCH   7  21
ATOM     21  O   UNL     1       1.153  -3.974   2.320  0.00  0.00    -0.507 OA
ATOM     22  H   UNL     1       0.337  -4.502   1.806  0.00  0.00    +0.292 HD
ENDBRANCH   7  21
BRANCH   3  23
ATOM     23  O   UNL     1       3.512   1.704   1.208  0.00  0.00    -0.384 OA
ATOM     24  H   UNL     1       4.165   1.449   2.055  0.00  0.00    +0.210 HD
ENDBRANCH   3  23
BRANCH   2  25
ATOM     25  O   UNL     1       1.446   3.353  -0.098  0.00  0.00    -0.385 OA
ATOM     26  H   UNL     1       2.404   3.893  -0.119  0.00  0.00    +0.210 HD
ENDBRANCH   2  25
TORSDOF 6
