REMARK  Name = ZINC61088729
REMARK  8 active torsions:
REMARK  status: ('A' for Active; 'I' for Inactive)
REMARK    1  A    between atoms: C_1  and  C_2
REMARK    2  A    between atoms: C_2  and  C_3
REMARK    3  A    between atoms: C_2  and  N_4
REMARK    4  A    between atoms: C_5  and  C_7
REMARK    5  A    between atoms: N_9  and  N_10
REMARK    6  A    between atoms: C_11  and  C_13
REMARK    7  A    between atoms: C_13  and  N_14
REMARK    8  A    between atoms: N_23  and  C_26
REMARK                            x       y       z     vdW  Elec       q    Type
REMARK                         _______ _______ _______ _____ _____    ______ ____
ROOT
ATOM      1  N   UNL     1      -5.305  -1.583  -2.451  0.00  0.00    -0.233 N 
ATOM      2  C   UNL     1      -6.038  -1.758  -3.569  0.00  0.00    +0.247 C 
ATOM      3  O   UNL     1      -5.591  -1.421  -4.645  0.00  0.00    -0.273 OA
ATOM      4  H   UNL     1      -5.662  -1.853  -1.590  0.00  0.00    +0.173 HD
ENDROOT
BRANCH   1   7
ATOM      5  C   UNL     1      -3.296  -0.837  -1.414  0.00  0.00    +0.315 C 
ATOM      6  O   UNL     1      -3.743  -1.174  -0.338  0.00  0.00    -0.264 OA
ATOM      7  N   UNL     1      -4.029  -1.012  -2.532  0.00  0.00    -0.227 N 
ATOM      8  H   UNL     1      -3.672  -0.742  -3.393  0.00  0.00    +0.173 HD
BRANCH   5  10
ATOM      9  N   UNL     1      -1.202  -0.052  -0.383  0.00  0.00    -0.305 N 
ATOM     10  C   UNL     1      -1.935  -0.227  -1.501  0.00  0.00    +0.301 C 
ATOM     11  O   UNL     1      -1.488   0.111  -2.578  0.00  0.00    -0.265 OA
ATOM     12  H   UNL     1      -1.559  -0.322   0.478  0.00  0.00    +0.149 HD
BRANCH   9  14
ATOM     13  C   UNL     1       0.011   2.071  -0.450  0.00  0.00    +0.027 C 
ATOM     14  C   UNL     1       0.132   0.545  -0.468  0.00  0.00    +0.067 C 
ATOM     15  C   UNL     1       0.973   0.087   0.726  0.00  0.00    +0.027 C 
ENDBRANCH   9  14
ENDBRANCH   5  10
ENDBRANCH   1   7
BRANCH   2  16
ATOM     16  C   UNL     1      -7.411  -2.373  -3.482  0.00  0.00    +0.215 C 
BRANCH  16  17
ATOM     17  N   UNL     1      -7.996  -2.454  -4.822  0.00  0.00    -0.215 N 
ATOM     18  C   UNL     1      -8.740  -1.479  -5.385  0.00  0.00    +0.247 C 
ATOM     19  O   UNL     1      -9.040  -0.411  -4.897  0.00  0.00    -0.273 OA
ATOM     20  C   UNL     1      -9.119  -1.999  -6.753  0.00  0.00    +0.115 C 
ATOM     21  C   UNL     1      -8.559  -1.091  -7.842  0.00  0.00    +0.035 C 
ATOM     22  C   UNL     1      -8.928  -1.652  -9.217  0.00  0.00    +0.003 C 
ATOM     23  C   UNL     1     -10.451  -1.742  -9.338  0.00  0.00    +0.000 C 
ATOM     24  C   UNL     1     -10.995  -2.675  -8.254  0.00  0.00    +0.003 C 
ATOM     25  C   UNL     1     -10.634  -2.118  -6.875  0.00  0.00    +0.035 C 
ATOM     26  N   UNL     1      -8.493  -3.326  -6.816  0.00  0.00    -0.274 N 
ATOM     27  C   UNL     1      -7.853  -3.501  -5.643  0.00  0.00    +0.312 C 
ATOM     28  O   UNL     1      -7.221  -4.500  -5.361  0.00  0.00    -0.252 OA
ATOM     29  C   UNL     1      -8.547  -4.270  -7.935  0.00  0.00    +0.134 C 
ENDBRANCH  16  17
ENDBRANCH   2  16
TORSDOF 5
