REMARK  Name = ZINC09631304
REMARK  12 active torsions:
REMARK  status: ('A' for Active; 'I' for Inactive)
REMARK    1  A    between atoms: C_1  and  N_2
REMARK    2  A    between atoms: N_2  and  C_3
REMARK    3  A    between atoms: N_2  and  C_4
REMARK    4  A    between atoms: C_7  and  N_10
REMARK    5  A    between atoms: N_13  and  C_14
REMARK    6  A    between atoms: C_14  and  C_15
REMARK    7  A    between atoms: C_20  and  C_23
REMARK    8  A    between atoms: C_23  and  N_24
REMARK    9  A    between atoms: N_27  and  C_28
REMARK   10  A    between atoms: C_31  and  N_34
REMARK   11  A    between atoms: N_34  and  C_35
REMARK   12  A    between atoms: N_34  and  C_36
REMARK                            x       y       z     vdW  Elec       q    Type
REMARK                         _______ _______ _______ _____ _____    ______ ____
ROOT
ATOM      1  C   UNL     1       0.138   1.815  -0.052  0.00  0.00    +0.006 C 
ATOM      2  C   UNL     1       0.329   0.304  -0.203  0.00  0.00    +0.005 C 
ATOM      3  C   UNL     1       0.982  -0.256   1.063  0.00  0.00    +0.001 C 
ATOM      4  C   UNL     1       2.342   0.412   1.273  0.00  0.00    +0.005 C 
ATOM      5  C   UNL     1       2.151   1.922   1.424  0.00  0.00    +0.006 C 
ATOM      6  C   UNL     1       1.498   2.483   0.159  0.00  0.00    +0.010 C 
ENDROOT
BRANCH   1   7
ATOM      7  C   UNL     1      -0.515   2.375  -1.317  0.00  0.00    +0.109 C 
BRANCH   7  11
ATOM      8  N   UNL     1      -3.877   1.674  -2.629  0.00  0.00    -0.269 N 
ATOM      9  C   UNL     1      -2.635   2.180  -2.503  0.00  0.00    +0.304 C 
ATOM     10  O   UNL     1      -2.207   2.957  -3.335  0.00  0.00    -0.253 OA
ATOM     11  N   UNL     1      -1.866   1.825  -1.454  0.00  0.00    -0.299 N 
ATOM     12  H   UNL     1      -4.247   1.113  -1.929  0.00  0.00    +0.156 HD
ATOM     13  H   UNL     1      -2.207   1.205  -0.791  0.00  0.00    +0.150 HD
BRANCH   8  17
ATOM     14  C   UNL     1      -6.137   2.518  -6.032  0.00  0.00    +0.029 A 
ATOM     15  C   UNL     1      -4.758   2.389  -6.129  0.00  0.00    +0.025 A 
ATOM     16  C   UNL     1      -4.010   2.110  -5.002  0.00  0.00    +0.025 A 
ATOM     17  C   UNL     1      -4.637   1.958  -3.773  0.00  0.00    +0.035 A 
ATOM     18  C   UNL     1      -6.017   2.080  -3.677  0.00  0.00    +0.025 A 
ATOM     19  C   UNL     1      -6.764   2.365  -4.803  0.00  0.00    +0.025 A 
BRANCH  14  21
ATOM     20  C   UNL     1      -6.252   2.838  -8.490  0.00  0.00    +0.129 C 
ATOM     21  N   UNL     1      -6.895   2.800  -7.174  0.00  0.00    -0.336 N 
ATOM     22  C   UNL     1      -8.332   3.058  -7.054  0.00  0.00    +0.129 C 
ENDBRANCH  14  21
ENDBRANCH   8  17
ENDBRANCH   7  11
ENDBRANCH   1   7
BRANCH   5  23
ATOM     23  C   UNL     1       1.251   2.205   2.630  0.00  0.00    +0.109 C 
BRANCH  23  24
ATOM     24  N   UNL     1       1.929   1.776   3.856  0.00  0.00    -0.299 N 
ATOM     25  C   UNL     1       1.323   1.927   5.049  0.00  0.00    +0.304 C 
ATOM     26  O   UNL     1       0.213   2.421   5.109  0.00  0.00    -0.253 OA
ATOM     27  N   UNL     1       1.946   1.533   6.177  0.00  0.00    -0.269 N 
ATOM     28  H   UNL     1       2.815   1.382   3.808  0.00  0.00    +0.150 HD
ATOM     29  H   UNL     1       2.801   1.078   6.125  0.00  0.00    +0.156 HD
BRANCH  27  30
ATOM     30  C   UNL     1       1.358   1.779   7.426  0.00  0.00    +0.035 A 
ATOM     31  C   UNL     1       2.156   2.083   8.521  0.00  0.00    +0.025 A 
ATOM     32  C   UNL     1       1.577   2.331   9.749  0.00  0.00    +0.025 A 
ATOM     33  C   UNL     1       0.198   2.265   9.893  0.00  0.00    +0.029 A 
ATOM     34  C   UNL     1      -0.600   1.956   8.799  0.00  0.00    +0.025 A 
ATOM     35  C   UNL     1      -0.021   1.713   7.569  0.00  0.00    +0.025 A 
BRANCH  33  36
ATOM     36  N   UNL     1      -0.389   2.510  11.139  0.00  0.00    -0.336 N 
ATOM     37  C   UNL     1      -1.845   2.441  11.290  0.00  0.00    +0.129 C 
ATOM     38  C   UNL     1       0.452   2.837  12.293  0.00  0.00    +0.129 C 
ENDBRANCH  33  36
ENDBRANCH  27  30
ENDBRANCH  23  24
ENDBRANCH   5  23
TORSDOF 8
