REMARK  Name = ZINC15777386
REMARK  10 active torsions:
REMARK  status: ('A' for Active; 'I' for Inactive)
REMARK    1  A    between atoms: C_4  and  C_7
REMARK    2  A    between atoms: C_7  and  C_19
REMARK    3  A    between atoms: N_8  and  N_9
REMARK    4  A    between atoms: N_9  and  C_10
REMARK    5  A    between atoms: C_10  and  N_12
REMARK    6  A    between atoms: N_12  and  C_13
REMARK    7  A    between atoms: N_20  and  N_21
REMARK    8  A    between atoms: N_21  and  C_22
REMARK    9  A    between atoms: C_22  and  N_24
REMARK   10  A    between atoms: N_24  and  C_25
REMARK                            x       y       z     vdW  Elec       q    Type
REMARK                         _______ _______ _______ _____ _____    ______ ____
ROOT
ATOM      1  C   UNL     1       3.422   0.198  -0.491  0.00  0.00    +0.108 C 
ATOM      2  N   UNL     1       4.533   0.888  -0.555  0.00  0.00    -0.179 NA
ENDROOT
BRANCH   1   6
ATOM      3  C   UNL     1      -0.330   2.189  -0.634  0.00  0.00    +0.000 A 
ATOM      4  C   UNL     1       0.816   2.900  -0.326  0.00  0.00    +0.001 A 
ATOM      5  C   UNL     1       2.037   2.259  -0.278  0.00  0.00    +0.010 A 
ATOM      6  C   UNL     1       2.114   0.892  -0.541  0.00  0.00    +0.003 A 
ATOM      7  C   UNL     1       0.955   0.181  -0.851  0.00  0.00    +0.010 A 
ATOM      8  C   UNL     1      -0.260   0.833  -0.896  0.00  0.00    +0.001 A 
ENDBRANCH   1   6
BRANCH   2   9
ATOM      9  N   UNL     1       5.767   0.227  -0.621  0.00  0.00    -0.218 N 
ATOM     10  H   UNL     1       5.803  -0.739  -0.547  0.00  0.00    +0.176 HD
BRANCH   9  11
ATOM     11  C   UNL     1       6.902   0.934  -0.786  0.00  0.00    +0.154 C 
ATOM     12  S   UNL     1       8.409   0.126  -0.867  0.00  0.00    -0.017 S 
BRANCH  11  13
ATOM     13  N   UNL     1       6.851   2.277  -0.889  0.00  0.00    -0.296 N 
ATOM     14  H   UNL     1       6.012   2.742  -0.751  0.00  0.00    +0.154 HD
BRANCH  13  15
ATOM     15  C   UNL     1       8.009   2.999  -1.195  0.00  0.00    +0.033 A 
ATOM     16  C   UNL     1       8.939   2.479  -2.085  0.00  0.00    +0.023 A 
ATOM     17  C   UNL     1      10.082   3.195  -2.385  0.00  0.00    +0.002 A 
ATOM     18  C   UNL     1      10.300   4.428  -1.800  0.00  0.00    +0.000 A 
ATOM     19  C   UNL     1       9.376   4.949  -0.913  0.00  0.00    +0.002 A 
ATOM     20  C   UNL     1       8.229   4.241  -0.613  0.00  0.00    +0.023 A 
ENDBRANCH  13  15
ENDBRANCH  11  13
ENDBRANCH   9  11
ENDBRANCH   2   9
BRANCH   1  21
ATOM     21  C   UNL     1       3.473  -1.266  -0.371  0.00  0.00    +0.160 C 
ATOM     22  N   UNL     1       2.371  -1.954  -0.330  0.00  0.00    -0.187 NA
BRANCH  22  23
ATOM     23  N   UNL     1       2.419  -3.349  -0.215  0.00  0.00    -0.218 N 
ATOM     24  H   UNL     1       3.275  -3.802  -0.166  0.00  0.00    +0.176 HD
BRANCH  23  25
ATOM     25  C   UNL     1       1.276  -4.062  -0.172  0.00  0.00    +0.154 C 
ATOM     26  S   UNL     1       1.335  -5.767  -0.032  0.00  0.00    -0.017 S 
BRANCH  25  27
ATOM     27  N   UNL     1       0.086  -3.432  -0.241  0.00  0.00    -0.296 N 
ATOM     28  H   UNL     1       0.052  -2.478  -0.411  0.00  0.00    +0.154 HD
BRANCH  27  29
ATOM     29  C   UNL     1      -1.098  -4.155  -0.067  0.00  0.00    +0.033 A 
ATOM     30  C   UNL     1      -1.150  -5.195   0.853  0.00  0.00    +0.023 A 
ATOM     31  C   UNL     1      -2.322  -5.906   1.023  0.00  0.00    +0.002 A 
ATOM     32  C   UNL     1      -3.442  -5.585   0.278  0.00  0.00    +0.000 A 
ATOM     33  C   UNL     1      -3.393  -4.551  -0.638  0.00  0.00    +0.002 A 
ATOM     34  C   UNL     1      -2.227  -3.831  -0.808  0.00  0.00    +0.023 A 
ENDBRANCH  27  29
ENDBRANCH  25  27
ENDBRANCH  23  25
ENDBRANCH  22  23
ENDBRANCH   1  21
TORSDOF 10
