REMARK  Name = ZINC17080341
REMARK  8 active torsions:
REMARK  status: ('A' for Active; 'I' for Inactive)
REMARK    1  A    between atoms: C_1  and  C_2
REMARK    2  A    between atoms: C_2  and  O_3
REMARK    3  A    between atoms: O_3  and  C_4
REMARK    4  A    between atoms: C_4  and  C_6
REMARK    5  A    between atoms: C_9  and  N_12
REMARK    6  A    between atoms: N_15  and  N_16
REMARK    7  A    between atoms: C_17  and  C_19
REMARK    8  A    between atoms: C_28  and  O_29
REMARK                            x       y       z     vdW  Elec       q    Type
REMARK                         _______ _______ _______ _____ _____    ______ ____
ROOT
ATOM      1  N   UNL     1       4.582   9.517   0.005  0.00  0.00    -0.268 N 
ATOM      2  C   UNL     1       3.428  10.187   0.190  0.00  0.00    +0.320 C 
ATOM      3  O   UNL     1       3.444  11.392   0.354  0.00  0.00    -0.251 OA
ATOM      4  N   UNL     1       2.255   9.522   0.192  0.00  0.00    -0.218 N 
ATOM      5  H   UNL     1       4.577   8.548  -0.050  0.00  0.00    +0.156 HD
ATOM      6  H   UNL     1       1.424  10.005   0.325  0.00  0.00    +0.174 HD
ENDROOT
BRANCH   1  10
ATOM      7  C   UNL     1       8.171  11.603  -0.334  0.00  0.00    +0.059 A 
ATOM      8  C   UNL     1       8.148  10.342   0.270  0.00  0.00    +0.017 A 
ATOM      9  C   UNL     1       6.960   9.656   0.380  0.00  0.00    +0.024 A 
ATOM     10  C   UNL     1       5.783  10.215  -0.109  0.00  0.00    +0.035 A 
ATOM     11  C   UNL     1       5.804  11.467  -0.716  0.00  0.00    +0.024 A 
ATOM     12  C   UNL     1       6.987  12.161  -0.825  0.00  0.00    +0.017 A 
BRANCH   7  13
ATOM     13  C   UNL     1       9.441  12.342  -0.454  0.00  0.00    +0.339 C 
ATOM     14  O   UNL     1      10.470  11.855  -0.027  0.00  0.00    -0.245 OA
BRANCH  13  15
ATOM     15  O   UNL     1       9.462  13.556  -1.037  0.00  0.00    -0.461 OA
BRANCH  15  17
ATOM     16  C   UNL     1      10.574  15.582  -1.807  0.00  0.00    +0.048 C 
ATOM     17  C   UNL     1      10.748  14.226  -1.120  0.00  0.00    +0.229 C 
ENDBRANCH  15  17
ENDBRANCH  13  15
ENDBRANCH   7  13
ENDBRANCH   1  10
BRANCH   4  18
ATOM     18  N   UNL     1       2.236   8.134   0.002  0.00  0.00    -0.229 N 
ATOM     19  C   UNL     1       1.064   7.470   0.004  0.00  0.00    +0.264 C 
ATOM     20  O   UNL     1       0.022   8.075   0.170  0.00  0.00    -0.269 OA
ATOM     21  H   UNL     1       3.067   7.652  -0.132  0.00  0.00    +0.173 HD
BRANCH  19  22
ATOM     22  C   UNL     1       1.044   6.010  -0.196  0.00  0.00    +0.080 A 
ATOM     23  C   UNL     1       2.252   5.314  -0.390  0.00  0.00    +0.017 A 
ATOM     24  C   UNL     1       2.260   3.971  -0.575  0.00  0.00    +0.009 A 
ATOM     25  C   UNL     1       1.051   3.249  -0.578  0.00  0.00    -0.014 A 
ATOM     26  C   UNL     1       1.040   1.857  -0.770  0.00  0.00    +0.008 A 
ATOM     27  C   UNL     1      -0.144   1.184  -0.768  0.00  0.00    +0.001 A 
ATOM     28  C   UNL     1      -1.350   1.856  -0.585  0.00  0.00    +0.001 A 
ATOM     29  C   UNL     1      -1.377   3.204  -0.390  0.00  0.00    +0.012 A 
ATOM     30  C   UNL     1      -0.176   3.931  -0.386  0.00  0.00    +0.024 A 
ATOM     31  C   UNL     1      -0.170   5.327  -0.194  0.00  0.00    +0.137 A 
BRANCH  31  32
ATOM     32  O   UNL     1      -1.332   5.998  -0.008  0.00  0.00    -0.505 OA
ATOM     33  H   UNL     1      -1.600   6.072   0.918  0.00  0.00    +0.292 HD
ENDBRANCH  31  32
ENDBRANCH  19  22
ENDBRANCH   4  18
TORSDOF 7
