REMARK  Name = ZINC16371395
REMARK  10 active torsions:
REMARK  status: ('A' for Active; 'I' for Inactive)
REMARK    1  A    between atoms: C_3  and  C_6
REMARK    2  A    between atoms: C_6  and  C_8
REMARK    3  A    between atoms: C_6  and  N_15
REMARK    4  A    between atoms: C_16  and  C_18
REMARK    5  A    between atoms: C_18  and  S_19
REMARK    6  A    between atoms: S_19  and  C_20
REMARK    7  A    between atoms: C_23  and  C_26
REMARK    8  A    between atoms: N_24  and  N_25
REMARK    9  A    between atoms: C_26  and  O_27
REMARK   10  A    between atoms: O_27  and  C_28
REMARK                            x       y       z     vdW  Elec       q    Type
REMARK                         _______ _______ _______ _____ _____    ______ ____
ROOT
ATOM      1  C   UNL     1      -2.502   1.382  -2.885  0.00  0.00    +0.173 C 
ENDROOT
BRANCH   1   3
ATOM      2  N   UNL     1      -0.721   1.571  -1.179  0.00  0.00    -0.303 N 
ATOM      3  C   UNL     1      -1.773   0.883  -1.664  0.00  0.00    +0.224 C 
ATOM      4  O   UNL     1      -2.134  -0.139  -1.118  0.00  0.00    -0.275 OA
ATOM      5  H   UNL     1      -0.433   2.388  -1.615  0.00  0.00    +0.150 HD
BRANCH   2   6
ATOM      6  C   UNL     1      -0.013   1.086   0.008  0.00  0.00    +0.140 C 
BRANCH   6   7
ATOM      7  C   UNL     1       1.401   1.607  -0.003  0.00  0.00    -0.022 A 
ATOM      8  C   UNL     1       1.656   2.903  -0.413  0.00  0.00    +0.008 A 
ATOM      9  C   UNL     1       2.952   3.384  -0.419  0.00  0.00    +0.038 A 
ATOM     10  C   UNL     1       3.996   2.564  -0.023  0.00  0.00    +0.123 A 
ATOM     11  C   UNL     1       3.739   1.266   0.383  0.00  0.00    +0.038 A 
ATOM     12  C   UNL     1       2.442   0.789   0.393  0.00  0.00    +0.008 A 
ATOM     13  F   UNL     1       5.263   3.032  -0.033  0.00  0.00    -0.205 F 
ENDBRANCH   6   7
BRANCH   6  16
ATOM     14  C   UNL     1      -1.627   1.566   3.425  0.00  0.00    +0.008 A 
ATOM     15  C   UNL     1      -0.954   0.914   2.409  0.00  0.00    +0.013 A 
ATOM     16  C   UNL     1      -0.718   1.572   1.248  0.00  0.00    +0.014 A 
ATOM     17  S   UNL     1      -1.454   3.166   1.571  0.00  0.00    -0.099 S 
ATOM     18  C   UNL     1      -2.033   2.845   3.229  0.00  0.00    +0.045 A 
ENDBRANCH   6  16
ENDBRANCH   2   6
ENDBRANCH   1   3
BRANCH   1  19
ATOM     19  S   UNL     1      -3.856   0.249  -3.285  0.00  0.00    -0.075 S 
BRANCH  19  20
ATOM     20  C   UNL     1      -4.516   1.051  -4.708  0.00  0.00    +0.209 A 
ATOM     21  N   UNL     1      -4.077   2.162  -5.252  0.00  0.00    -0.121 NA
ATOM     22  N   UNL     1      -4.793   2.459  -6.277  0.00  0.00    -0.128 NA
ATOM     23  C   UNL     1      -5.724   1.564  -6.447  0.00  0.00    +0.189 A 
ATOM     24  N   UNL     1      -5.578   0.632  -5.457  0.00  0.00    -0.225 N 
BRANCH  24  25
ATOM     25  N   UNL     1      -6.338  -0.485  -5.257  0.00  0.00    -0.295 N 
ATOM     26  H   UNL     1      -7.123  -0.286  -4.655  0.00  0.00    +0.163 HD
ATOM     27  H   UNL     1      -6.646  -0.875  -6.135  0.00  0.00    +0.163 HD
ENDBRANCH  24  25
BRANCH  23  28
ATOM     28  C   UNL     1      -6.766   1.555  -7.535  0.00  0.00    +0.306 C 
BRANCH  28  29
ATOM     29  O   UNL     1      -6.266   0.839  -8.667  0.00  0.00    -0.484 OA
BRANCH  29  30
ATOM     30  C   UNL     1      -7.088   0.736  -9.745  0.00  0.00    +0.121 A 
ATOM     31  C   UNL     1      -8.352   1.308  -9.711  0.00  0.00    +0.048 A 
ATOM     32  C   UNL     1      -9.184   1.208 -10.809  0.00  0.00    +0.042 A 
ATOM     33  C   UNL     1      -8.761   0.527 -11.939  0.00  0.00    +0.124 A 
ATOM     34  C   UNL     1      -7.503  -0.049 -11.971  0.00  0.00    +0.042 A 
ATOM     35  C   UNL     1      -6.667   0.054 -10.877  0.00  0.00    +0.048 A 
ATOM     36  F   UNL     1      -9.578   0.426 -13.010  0.00  0.00    -0.205 F 
ENDBRANCH  29  30
ENDBRANCH  28  29
ENDBRANCH  23  28
ENDBRANCH  19  20
ENDBRANCH   1  19
TORSDOF 10
