REMARK  Name = ZINC16021914
REMARK  7 active torsions:
REMARK  status: ('A' for Active; 'I' for Inactive)
REMARK    1  A    between atoms: C_1  and  C_2
REMARK    2  A    between atoms: C_2  and  C_3
REMARK    3  A    between atoms: C_3  and  C_4
REMARK    4  A    between atoms: C_4  and  N_5
REMARK    5  A    between atoms: C_10  and  C_28
REMARK    6  A    between atoms: C_28  and  C_29
REMARK    7  A    between atoms: C_32  and  O_35
REMARK                            x       y       z     vdW  Elec       q    Type
REMARK                         _______ _______ _______ _____ _____    ______ ____
ROOT
ATOM      1  N   UNL     1       1.425  -2.500  -2.470  0.00  0.00    -0.242 N 
ATOM      2  C   UNL     1       0.784  -2.738  -3.621  0.00  0.00    +0.227 C 
ATOM      3  O   UNL     1      -0.406  -2.595  -3.803  0.00  0.00    -0.275 OA
ATOM      4  C   UNL     1       1.776  -3.213  -4.659  0.00  0.00    +0.107 C 
ATOM      5  C   UNL     1       1.498  -4.697  -4.981  0.00  0.00    +0.072 C 
ATOM      6  N   UNL     1       2.835  -5.348  -4.961  0.00  0.00    -0.295 NA
ATOM      7  C   UNL     1       3.539  -4.695  -3.842  0.00  0.00    +0.136 C 
ATOM      8  C   UNL     1       3.128  -3.202  -3.894  0.00  0.00    +0.122 C 
ATOM      9  C   UNL     1       2.743  -2.723  -2.512  0.00  0.00    +0.228 C 
ATOM     10  O   UNL     1       3.510  -2.567  -1.586  0.00  0.00    -0.275 OA
ATOM     11  C   UNL     1       5.028  -4.856  -3.961  0.00  0.00    +0.006 A 
ATOM     12  C   UNL     1       5.946  -4.494  -4.921  0.00  0.00    +0.046 A 
ATOM     13  C   UNL     1       7.288  -4.789  -4.743  0.00  0.00    +0.124 A 
ATOM     14  C   UNL     1       7.701  -5.447  -3.596  0.00  0.00    +0.040 A 
ATOM     15  C   UNL     1       6.783  -5.809  -2.632  0.00  0.00    +0.026 A 
ATOM     16  C   UNL     1       5.432  -5.516  -2.805  0.00  0.00    +0.039 A 
ATOM     17  N   UNL     1       4.330  -5.776  -1.986  0.00  0.00    -0.283 N 
ATOM     18  C   UNL     1       3.180  -5.325  -2.524  0.00  0.00    +0.243 C 
ATOM     19  O   UNL     1       2.072  -5.410  -2.040  0.00  0.00    -0.273 OA
ATOM     20  F   UNL     1       8.190  -4.437  -5.684  0.00  0.00    -0.205 F 
ATOM     21  H   UNL     1       2.751  -6.341  -4.805  0.00  0.00    +0.124 HD
ATOM     22  H   UNL     1       4.386  -6.229  -1.130  0.00  0.00    +0.155 HD
ENDROOT
BRANCH   1  23
ATOM     23  C   UNL     1       0.739  -2.027  -1.265  0.00  0.00    +0.116 C 
BRANCH  23  24
ATOM     24  C   UNL     1       0.718  -0.497  -1.257  0.00  0.00    +0.019 C 
BRANCH  24  26
ATOM     25  C   UNL     1      -0.019   1.526   0.010  0.00  0.00    +0.004 C 
ATOM     26  C   UNL     1       0.002  -0.004   0.002  0.00  0.00    -0.002 C 
ENDBRANCH  24  26
ENDBRANCH  23  24
ENDBRANCH   1  23
BRANCH   5  27
ATOM     27  C   UNL     1       0.859  -4.831  -6.365  0.00  0.00    +0.054 C 
BRANCH  27  28
ATOM     28  C   UNL     1       0.485  -6.270  -6.609  0.00  0.00    -0.046 A 
ATOM     29  C   UNL     1       1.395  -7.130  -7.194  0.00  0.00    +0.007 A 
ATOM     30  C   UNL     1       1.054  -8.450  -7.419  0.00  0.00    +0.045 A 
ATOM     31  C   UNL     1      -0.203  -8.912  -7.056  0.00  0.00    +0.117 A 
ATOM     32  C   UNL     1      -1.114  -8.047  -6.468  0.00  0.00    +0.045 A 
ATOM     33  C   UNL     1      -0.766  -6.729  -6.241  0.00  0.00    +0.007 A 
BRANCH  31  34
ATOM     34  O   UNL     1      -0.541 -10.210  -7.277  0.00  0.00    -0.507 OA
ATOM     35  H   UNL     1      -0.329 -10.802  -6.542  0.00  0.00    +0.292 HD
ENDBRANCH  31  34
ENDBRANCH  27  28
ENDBRANCH   5  27
TORSDOF 6
