REMARK  Name = ZINC08670525
REMARK  10 active torsions:
REMARK  status: ('A' for Active; 'I' for Inactive)
REMARK    1  A    between atoms: C_1  and  C_2
REMARK    2  A    between atoms: C_6  and  C_7
REMARK    3  A    between atoms: C_8  and  C_9
REMARK    4  A    between atoms: C_12  and  C_32
REMARK    5  A    between atoms: C_13  and  N_20
REMARK    6  A    between atoms: C_16  and  C_18
REMARK    7  A    between atoms: C_16  and  C_19
REMARK    8  A    between atoms: C_21  and  C_23
REMARK    9  A    between atoms: C_23  and  S_24
REMARK   10  A    between atoms: S_24  and  C_25
REMARK                            x       y       z     vdW  Elec       q    Type
REMARK                         _______ _______ _______ _____ _____    ______ ____
ROOT
ATOM      1  C   UNL     1       0.163  -0.626   4.925  0.00  0.00    -0.046 C 
ATOM      2  C   UNL     1       0.290  -1.529   5.922  0.00  0.00    +0.013 C 
ATOM      3  C   UNL     1       0.311  -1.021   7.318  0.00  0.00    +0.005 A 
ATOM      4  C   UNL     1       0.715  -1.769   8.498  0.00  0.00    +0.088 A 
ATOM      5  C   UNL     1       0.674  -1.112   9.721  0.00  0.00    +0.090 A 
ATOM      6  S   UNL     1       0.090   0.515   9.276  0.00  0.00    -0.076 S 
ATOM      7  C   UNL     1      -0.084   0.279   7.535  0.00  0.00    +0.006 A 
ATOM      8  C   UNL     1      -0.556   1.217   6.473  0.00  0.00    +0.001 C 
ATOM      9  C   UNL     1       0.141   0.857   5.153  0.00  0.00    +0.046 C 
ATOM     10  C   UNL     1      -0.201   2.653   6.862  0.00  0.00    +0.017 C 
ATOM     11  C   UNL     1      -2.072   1.087   6.310  0.00  0.00    +0.017 C 
ENDROOT
BRANCH   5  12
ATOM     12  N   UNL     1       1.006  -1.599  10.977  0.00  0.00    -0.278 N 
ATOM     13  C   UNL     1       0.901  -0.802  12.058  0.00  0.00    +0.228 C 
ATOM     14  O   UNL     1       0.516   0.341  11.934  0.00  0.00    -0.275 OA
ATOM     15  H   UNL     1       1.314  -2.514  11.076  0.00  0.00    +0.155 HD
BRANCH  13  16
ATOM     16  C   UNL     1       1.261  -1.332  13.423  0.00  0.00    +0.173 C 
BRANCH  16  17
ATOM     17  S   UNL     1       1.015  -0.029  14.661  0.00  0.00    -0.075 S 
BRANCH  17  18
ATOM     18  C   UNL     1       1.472  -0.794  16.181  0.00  0.00    +0.210 A 
ATOM     19  N   UNL     1       1.446  -0.210  17.384  0.00  0.00    -0.188 NA
ATOM     20  C   UNL     1       1.850  -1.065  18.300  0.00  0.00    +0.209 A 
ATOM     21  N   UNL     1       2.145  -2.228  17.683  0.00  0.00    -0.246 N 
ATOM     22  H   UNL     1       2.466  -3.042  18.102  0.00  0.00    +0.192 HD
ATOM     23  N   UNL     1       1.888  -2.031  16.317  0.00  0.00    -0.144 NA
ATOM     24  N   UNL     1       1.954  -0.815  19.656  0.00  0.00    -0.328 N 
ATOM     25  H   UNL     1       1.718   0.058  20.008  0.00  0.00    +0.145 HD
ATOM     26  H   UNL     1       2.264  -1.512  20.256  0.00  0.00    +0.145 HD
ENDBRANCH  17  18
ENDBRANCH  16  17
ENDBRANCH  13  16
ENDBRANCH   5  12
BRANCH   1  28
ATOM     27  C   UNL     1       0.034  -0.228   2.565  0.00  0.00    +0.015 C 
ATOM     28  C   UNL     1       0.051  -1.102   3.599  0.00  0.00    +0.005 C 
BRANCH  27  34
ATOM     29  C   UNL     1      -0.003   1.500   0.008  0.00  0.00    +0.045 C 
ATOM     30  C   UNL     1       0.009  -0.006   0.001  0.00  0.00    -0.036 A 
ATOM     31  C   UNL     1       0.009  -0.706  -1.183  0.00  0.00    +0.011 A 
ATOM     32  C   UNL     1       0.020  -2.064  -1.153  0.00  0.00    +0.046 A 
ATOM     33  S   UNL     1       0.031  -2.408   0.598  0.00  0.00    -0.097 S 
ATOM     34  C   UNL     1       0.025  -0.723   1.188  0.00  0.00    +0.015 A 
ENDBRANCH  27  34
ENDBRANCH   1  28
BRANCH   4  35
ATOM     35  C   UNL     1       1.140  -3.133   8.402  0.00  0.00    +0.102 C 
ATOM     36  N   UNL     1       1.477  -4.215   8.326  0.00  0.00    -0.191 NA
ENDBRANCH   4  35
TORSDOF 7
