REMARK  Name = ZINC20707012
REMARK  8 active torsions:
REMARK  status: ('A' for Active; 'I' for Inactive)
REMARK    1  A    between atoms: C_1  and  C_2
REMARK    2  A    between atoms: C_2  and  C_3
REMARK    3  A    between atoms: C_2  and  C_4
REMARK    4  A    between atoms: C_2  and  N_5
REMARK    5  A    between atoms: N_5  and  S_6
REMARK    6  A    between atoms: S_6  and  C_9
REMARK    7  A    between atoms: C_22  and  C_25
REMARK    8  A    between atoms: C_30  and  O_31
REMARK                            x       y       z     vdW  Elec       q    Type
REMARK                         _______ _______ _______ _____ _____    ______ ____
ROOT
ATOM      1  C   UNL     1       3.900   3.012   0.470  0.00  0.00    +0.106 A 
ATOM      2  C   UNL     1       4.979   2.635  -0.310  0.00  0.00    +0.030 A 
ATOM      3  C   UNL     1       4.769   2.191  -1.600  0.00  0.00    +0.025 A 
ATOM      4  C   UNL     1       3.478   2.124  -2.111  0.00  0.00    +0.031 A 
ATOM      5  C   UNL     1       2.394   2.501  -1.333  0.00  0.00    -0.018 A 
ATOM      6  C   UNL     1       2.618   2.945  -0.037  0.00  0.00    +0.034 A 
ATOM      7  C   UNL     1       0.988   2.446  -1.841  0.00  0.00    +0.049 C 
ATOM      8  C   UNL     1       0.483   3.831  -2.172  0.00  0.00    -0.023 C 
ATOM      9  C   UNL     1      -0.286   3.791  -3.233  0.00  0.00    -0.030 C 
ATOM     10  C   UNL     1      -0.404   2.370  -3.750  0.00  0.00    +0.033 C 
ATOM     11  C   UNL     1       0.856   1.667  -3.164  0.00  0.00    +0.029 C 
ATOM     12  C   UNL     1       2.028   1.985  -4.096  0.00  0.00    +0.108 C 
ATOM     13  N   UNL     1       3.282   1.674  -3.421  0.00  0.00    -0.336 N 
ATOM     14  H   UNL     1       4.057   1.092  -3.941  0.00  0.00    +0.147 HD
ENDROOT
BRANCH  12  15
ATOM     15  C   UNL     1       2.027   3.455  -4.426  0.00  0.00    +0.014 A 
ATOM     16  C   UNL     1       2.620   4.357  -3.563  0.00  0.00    +0.009 A 
ATOM     17  C   UNL     1       2.623   5.706  -3.868  0.00  0.00    +0.001 A 
ATOM     18  C   UNL     1       2.025   6.157  -5.030  0.00  0.00    +0.004 A 
ATOM     19  C   UNL     1       1.427   5.259  -5.893  0.00  0.00    +0.046 A 
ATOM     20  C   UNL     1       1.427   3.905  -5.593  0.00  0.00    +0.122 A 
BRANCH  20  21
ATOM     21  O   UNL     1       0.838   3.020  -6.440  0.00  0.00    -0.506 OA
ATOM     22  H   UNL     1       0.362   3.377  -7.365  0.00  0.00    +0.292 HD
ENDBRANCH  20  21
ENDBRANCH  12  15
BRANCH   1  23
ATOM     23  S   UNL     1       4.163   3.578   2.117  0.00  0.00    +0.059 S 
ATOM     24  O   UNL     1       3.069   3.104   2.890  0.00  0.00    -0.153 OA
ATOM     25  O   UNL     1       5.513   3.274   2.440  0.00  0.00    -0.153 OA
BRANCH  23  26
ATOM     26  N   UNL     1       4.044   5.230   2.092  0.00  0.00    -0.185 NA
ATOM     27  H   UNL     1       3.310   5.726   2.744  0.00  0.00    +0.149 HD
BRANCH  26  29
ATOM     28  C   UNL     1       5.178   5.513  -0.057  0.00  0.00    +0.029 C 
ATOM     29  C   UNL     1       5.046   6.026   1.379  0.00  0.00    +0.032 C 
ATOM     30  C   UNL     1       4.612   7.493   1.359  0.00  0.00    +0.029 C 
ATOM     31  C   UNL     1       6.395   5.903   2.090  0.00  0.00    +0.029 C 
ENDBRANCH  26  29
ENDBRANCH  23  26
ENDBRANCH   1  23
TORSDOF 5
