REMARK  Name = ZINC14770988
REMARK  12 active torsions:
REMARK  status: ('A' for Active; 'I' for Inactive)
REMARK    1  A    between atoms: C_1  and  C_2
REMARK    2  A    between atoms: C_2  and  C_3
REMARK    3  A    between atoms: C_3  and  C_4
REMARK    4  A    between atoms: N_6  and  C_7
REMARK    5  A    between atoms: C_10  and  C_13
REMARK    6  A    between atoms: N_15  and  N_16
REMARK    7  A    between atoms: N_16  and  C_17
REMARK    8  A    between atoms: C_17  and  N_19
REMARK    9  A    between atoms: C_20  and  C_22
REMARK   10  A    between atoms: C_25  and  O_29
REMARK   11  A    between atoms: O_29  and  C_30
REMARK   12  A    between atoms: C_30  and  C_31
REMARK                            x       y       z     vdW  Elec       q    Type
REMARK                         _______ _______ _______ _____ _____    ______ ____
ROOT
ATOM      1  N   UNL     1      -6.040   3.156   0.042  0.00  0.00    -0.245 N 
ATOM      2  H   UNL     1      -6.888   3.629   0.044  0.00  0.00    +0.172 HD
ENDROOT
BRANCH   1   5
ATOM      3  C   UNL     1      -7.176   1.064   0.046  0.00  0.00    +0.260 C 
ATOM      4  O   UNL     1      -8.238   1.656   0.049  0.00  0.00    -0.269 OA
ATOM      5  N   UNL     1      -6.019   1.756   0.042  0.00  0.00    -0.231 N 
ATOM      6  H   UNL     1      -5.172   1.284   0.040  0.00  0.00    +0.173 HD
BRANCH   3  10
ATOM      7  C   UNL     1      -7.111  -3.183   0.048  0.00  0.00    +0.033 A 
ATOM      8  C   UNL     1      -8.328  -2.507   0.051  0.00  0.00    +0.024 A 
ATOM      9  C   UNL     1      -8.352  -1.130   0.050  0.00  0.00    +0.015 A 
ATOM     10  C   UNL     1      -7.154  -0.412   0.046  0.00  0.00    +0.038 A 
ATOM     11  C   UNL     1      -5.934  -1.093   0.037  0.00  0.00    +0.015 A 
ATOM     12  C   UNL     1      -5.916  -2.470   0.044  0.00  0.00    +0.024 A 
BRANCH   7  15
ATOM     13  C   UNL     1      -8.032  -5.265   0.724  0.00  0.00    +0.217 C 
ATOM     14  O   UNL     1      -8.946  -4.675   1.261  0.00  0.00    -0.275 OA
ATOM     15  N   UNL     1      -7.090  -4.577   0.049  0.00  0.00    -0.285 N 
ATOM     16  H   UNL     1      -6.397  -5.051  -0.437  0.00  0.00    +0.155 HD
BRANCH  13  17
ATOM     17  C   UNL     1      -7.951  -6.767   0.811  0.00  0.00    +0.096 C 
BRANCH  17  19
ATOM     18  C   UNL     1      -9.050  -8.820   1.715  0.00  0.00    +0.004 C 
ATOM     19  C   UNL     1      -9.133  -7.295   1.626  0.00  0.00    +0.006 C 
ENDBRANCH  17  19
ENDBRANCH  13  17
ENDBRANCH   7  15
ENDBRANCH   3  10
ENDBRANCH   1   5
BRANCH   1  20
ATOM     20  C   UNL     1      -4.884   3.848   0.038  0.00  0.00    +0.153 C 
ATOM     21  S   UNL     1      -4.910   5.560   0.038  0.00  0.00    -0.017 S 
BRANCH  20  22
ATOM     22  N   UNL     1      -3.706   3.192   0.035  0.00  0.00    -0.263 N 
ATOM     23  C   UNL     1      -2.550   3.884   0.031  0.00  0.00    +0.250 C 
ATOM     24  O   UNL     1      -2.568   5.099   0.031  0.00  0.00    -0.270 OA
ATOM     25  H   UNL     1      -3.692   2.222   0.035  0.00  0.00    +0.157 HD
BRANCH  23  26
ATOM     26  C   UNL     1      -1.261   3.166   0.028  0.00  0.00    +0.038 A 
ATOM     27  C   UNL     1      -1.238   1.768   0.022  0.00  0.00    +0.017 A 
ATOM     28  C   UNL     1      -0.033   1.101   0.024  0.00  0.00    +0.047 A 
ATOM     29  C   UNL     1       1.159   1.816   0.020  0.00  0.00    +0.134 A 
ATOM     30  C   UNL     1       1.141   3.206   0.020  0.00  0.00    +0.060 A 
ATOM     31  C   UNL     1      -0.060   3.881   0.024  0.00  0.00    +0.032 A 
ATOM     32 BR   UNL     1       2.767   4.172   0.015  0.00  0.00    -0.046 Br
BRANCH  29  33
ATOM     33  O   UNL     1       2.345   1.155   0.015  0.00  0.00    -0.491 OA
BRANCH  33  34
ATOM     34  C   UNL     1       2.291  -0.273   0.015  0.00  0.00    +0.226 C 
ATOM     35  C   UNL     1       3.713  -0.837   0.009  0.00  0.00    +0.048 C 
ENDBRANCH  33  34
ENDBRANCH  29  33
ENDBRANCH  23  26
ENDBRANCH  20  22
ENDBRANCH   1  20
TORSDOF 10
