REMARK  Name = ZINC16320885
REMARK  12 active torsions:
REMARK  status: ('A' for Active; 'I' for Inactive)
REMARK    1  A    between atoms: C_1  and  C_2
REMARK    2  A    between atoms: N_4  and  C_5
REMARK    3  A    between atoms: C_5  and  N_7
REMARK    4  A    between atoms: N_7  and  C_8
REMARK    5  A    between atoms: C_11  and  N_14
REMARK    6  A    between atoms: N_14  and  C_15
REMARK    7  A    between atoms: C_15  and  N_17
REMARK    8  A    between atoms: C_18  and  C_20
REMARK    9  A    between atoms: C_23  and  C_26
REMARK   10  A    between atoms: C_26  and  C_27
REMARK   11  A    between atoms: C_26  and  C_28
REMARK   12  A    between atoms: C_26  and  C_29
REMARK                            x       y       z     vdW  Elec       q    Type
REMARK                         _______ _______ _______ _____ _____    ______ ____
ROOT
ATOM      1  N   UNL     1      -4.797   3.446  -0.884  0.00  0.00    -0.297 N 
ATOM      2  H   UNL     1      -5.590   2.920  -0.695  0.00  0.00    +0.154 HD
ENDROOT
BRANCH   1   6
ATOM      3  C   UNL     1      -1.014   1.819  -0.223  0.00  0.00    +0.033 A 
ATOM      4  C   UNL     1      -1.988   1.072  -0.874  0.00  0.00    +0.025 A 
ATOM      5  C   UNL     1      -3.242   1.608  -1.087  0.00  0.00    +0.025 A 
ATOM      6  C   UNL     1      -3.526   2.899  -0.662  0.00  0.00    +0.033 A 
ATOM      7  C   UNL     1      -2.551   3.649  -0.017  0.00  0.00    +0.025 A 
ATOM      8  C   UNL     1      -1.299   3.110   0.202  0.00  0.00    +0.025 A 
BRANCH   3   9
ATOM      9  N   UNL     1       0.256   1.273  -0.001  0.00  0.00    -0.297 N 
ATOM     10  H   UNL     1       0.713   0.801  -0.715  0.00  0.00    +0.154 HD
BRANCH   9  11
ATOM     11  C   UNL     1       0.846   1.407   1.203  0.00  0.00    +0.141 C 
ATOM     12  S   UNL     1       0.089   2.332   2.429  0.00  0.00    -0.018 S 
BRANCH  11  16
ATOM     13  C   UNL     1       3.949   0.285   2.914  0.00  0.00    +0.109 C 
ATOM     14  C   UNL     1       2.623   0.949   2.646  0.00  0.00    +0.215 C 
ATOM     15  O   UNL     1       2.086   1.603   3.514  0.00  0.00    -0.276 OA
ATOM     16  N   UNL     1       2.032   0.814   1.442  0.00  0.00    -0.268 N 
ATOM     17  H   UNL     1       2.461   0.290   0.748  0.00  0.00    +0.156 HD
ENDBRANCH  11  16
ENDBRANCH   9  11
ENDBRANCH   3   9
ENDBRANCH   1   6
BRANCH   1  18
ATOM     18  C   UNL     1      -4.917   4.701  -1.359  0.00  0.00    +0.141 C 
ATOM     19  S   UNL     1      -3.522   5.666  -1.591  0.00  0.00    -0.018 S 
BRANCH  18  20
ATOM     20  N   UNL     1      -6.136   5.196  -1.653  0.00  0.00    -0.264 N 
ATOM     21  C   UNL     1      -6.256   6.452  -2.128  0.00  0.00    +0.250 C 
ATOM     22  O   UNL     1      -5.266   7.137  -2.293  0.00  0.00    -0.270 OA
ATOM     23  H   UNL     1      -6.926   4.649  -1.522  0.00  0.00    +0.157 HD
BRANCH  21  24
ATOM     24  C   UNL     1      -7.592   6.995  -2.450  0.00  0.00    +0.037 A 
ATOM     25  C   UNL     1      -8.731   6.208  -2.268  0.00  0.00    +0.013 A 
ATOM     26  C   UNL     1      -9.976   6.723  -2.566  0.00  0.00    +0.005 A 
ATOM     27  C   UNL     1     -10.096   8.012  -3.054  0.00  0.00    -0.042 A 
ATOM     28  C   UNL     1      -8.971   8.795  -3.242  0.00  0.00    +0.005 A 
ATOM     29  C   UNL     1      -7.721   8.295  -2.943  0.00  0.00    +0.013 A 
BRANCH  27  30
ATOM     30  C   UNL     1     -11.459   8.566  -3.383  0.00  0.00    -0.013 C 
ATOM     31  C   UNL     1     -11.511   8.944  -4.865  0.00  0.00    +0.015 C 
ATOM     32  C   UNL     1     -12.524   7.508  -3.088  0.00  0.00    +0.015 C 
ATOM     33  C   UNL     1     -11.723   9.808  -2.530  0.00  0.00    +0.015 C 
ENDBRANCH  27  30
ENDBRANCH  21  24
ENDBRANCH  18  20
ENDBRANCH   1  18
TORSDOF 8
