REMARK  Name = ZINC09184772
REMARK  11 active torsions:
REMARK  status: ('A' for Active; 'I' for Inactive)
REMARK    1  A    between atoms: C_1  and  C_2
REMARK    2  A    between atoms: C_4  and  C_33
REMARK    3  A    between atoms: C_5  and  C_9
REMARK    4  A    between atoms: C_6  and  O_8
REMARK    5  A    between atoms: N_17  and  C_30
REMARK    6  A    between atoms: C_18  and  C_20
REMARK    7  A    between atoms: C_22  and  O_28
REMARK    8  A    between atoms: C_23  and  O_27
REMARK    9  A    between atoms: O_28  and  C_29
REMARK   10  A    between atoms: C_30  and  C_31
REMARK   11  A    between atoms: C_31  and  O_32
REMARK                            x       y       z     vdW  Elec       q    Type
REMARK                         _______ _______ _______ _____ _____    ______ ____
ROOT
ATOM      1  C   UNL     1       0.523  -4.231   0.036  0.00  0.00    +0.102 A 
ATOM      2  C   UNL     1       0.348  -5.098   1.121  0.00  0.00    +0.035 A 
ATOM      3  C   UNL     1       0.614  -6.364   0.638  0.00  0.00    +0.126 A 
ATOM      4  N   UNL     1       0.930  -6.209  -0.682  0.00  0.00    -0.272 N 
ATOM      5  H   UNL     1       1.164  -6.930  -1.287  0.00  0.00    +0.189 HD
ATOM      6  N   UNL     1       0.864  -4.966  -1.004  0.00  0.00    -0.173 NA
ATOM      7  C   UNL     1       0.447  -7.326   1.733  0.00  0.00    +0.266 C 
ATOM      8  O   UNL     1       0.608  -8.527   1.634  0.00  0.00    -0.268 OA
ATOM      9  N   UNL     1       0.088  -6.691   2.864  0.00  0.00    -0.283 N 
ATOM     10  C   UNL     1      -0.002  -5.253   2.575  0.00  0.00    +0.141 C 
ENDROOT
BRANCH   1  15
ATOM     11  C   UNL     1      -0.140   1.493   0.094  0.00  0.00    +0.044 C 
ATOM     12  C   UNL     1       0.031  -0.004   0.080  0.00  0.00    -0.047 A 
ATOM     13  C   UNL     1       1.181  -0.561  -0.451  0.00  0.00    +0.007 A 
ATOM     14  C   UNL     1       1.345  -1.932  -0.468  0.00  0.00    -0.037 A 
ATOM     15  C   UNL     1       0.351  -2.757   0.052  0.00  0.00    +0.047 A 
ATOM     16  C   UNL     1      -0.809  -2.192   0.588  0.00  0.00    +0.127 A 
ATOM     17  C   UNL     1      -0.959  -0.814   0.604  0.00  0.00    +0.049 A 
ATOM     18  C   UNL     1       2.599  -2.534  -1.048  0.00  0.00    +0.044 C 
BRANCH  16  19
ATOM     19  O   UNL     1      -1.784  -2.990   1.097  0.00  0.00    -0.506 OA
ATOM     20  H   UNL     1      -1.729  -3.115   2.054  0.00  0.00    +0.292 HD
ENDBRANCH  16  19
ENDBRANCH   1  15
BRANCH  10  21
ATOM     21  C   UNL     1       0.978  -4.490   3.429  0.00  0.00    -0.018 A 
ATOM     22  C   UNL     1       2.331  -4.763   3.338  0.00  0.00    +0.055 A 
ATOM     23  C   UNL     1       3.233  -4.062   4.122  0.00  0.00    +0.163 A 
ATOM     24  C   UNL     1       2.775  -3.084   5.000  0.00  0.00    +0.173 A 
ATOM     25  C   UNL     1       1.418  -2.814   5.085  0.00  0.00    +0.063 A 
ATOM     26  C   UNL     1       0.523  -3.515   4.296  0.00  0.00    +0.025 A 
ATOM     27 BR   UNL     1       0.791  -1.486   6.276  0.00  0.00    -0.046 Br
BRANCH  24  28
ATOM     28  O   UNL     1       3.657  -2.394   5.771  0.00  0.00    -0.503 OA
ATOM     29  H   UNL     1       3.993  -1.586   5.359  0.00  0.00    +0.292 HD
ENDBRANCH  24  28
BRANCH  23  30
ATOM     30  O   UNL     1       4.563  -4.330   4.035  0.00  0.00    -0.491 OA
ATOM     31  C   UNL     1       4.961  -5.348   3.113  0.00  0.00    +0.277 C 
ENDBRANCH  23  30
ENDBRANCH  10  21
BRANCH   9  32
ATOM     32  C   UNL     1      -0.169  -7.324   4.160  0.00  0.00    +0.137 C 
BRANCH  32  33
ATOM     33  C   UNL     1       1.158  -7.552   4.887  0.00  0.00    +0.175 C 
BRANCH  33  34
ATOM     34  O   UNL     1       1.702  -6.295   5.291  0.00  0.00    -0.393 OA
ATOM     35  H   UNL     1       2.545  -6.363   5.760  0.00  0.00    +0.209 HD
ENDBRANCH  33  34
ENDBRANCH  32  33
ENDBRANCH   9  32
TORSDOF 8
