REMARK  Name = ZINC16958886
REMARK  12 active torsions:
REMARK  status: ('A' for Active; 'I' for Inactive)
REMARK    1  A    between atoms: C_1  and  C_2
REMARK    2  A    between atoms: C_2  and  C_3
REMARK    3  A    between atoms: C_2  and  C_4
REMARK    4  A    between atoms: C_2  and  O_5
REMARK    5  A    between atoms: O_5  and  C_6
REMARK    6  A    between atoms: N_8  and  C_9
REMARK    7  A    between atoms: C_9  and  C_11
REMARK    8  A    between atoms: C_9  and  C_18
REMARK    9  A    between atoms: C_11  and  C_12
REMARK   10  A    between atoms: N_20  and  C_21
REMARK   11  A    between atoms: N_29  and  O_30
REMARK   12  A    between atoms: C_31  and  O_33
REMARK                            x       y       z     vdW  Elec       q    Type
REMARK                         _______ _______ _______ _____ _____    ______ ____
ROOT
ATOM      1  C   UNL     1       2.522   4.105   0.000  0.00  0.00    +0.166 C 
ENDROOT
BRANCH   1   4
ATOM      2  C   UNL     1       1.174   2.075   0.002  0.00  0.00    +0.401 C 
ATOM      3  O   UNL     1       2.201   1.427  -0.011  0.00  0.00    -0.226 OA
ATOM      4  N   UNL     1       1.226   3.422   0.009  0.00  0.00    -0.269 N 
ATOM      5  H   UNL     1       0.295   4.008   0.021  0.00  0.00    +0.153 HD
BRANCH   2   6
ATOM      6  O   UNL     1      -0.018   1.448   0.010  0.00  0.00    -0.445 OA
BRANCH   6   8
ATOM      7  C   UNL     1       0.742  -0.511   1.242  0.00  0.00    +0.055 C 
ATOM      8  C   UNL     1       0.002  -0.004   0.002  0.00  0.00    +0.107 C 
ATOM      9  C   UNL     1      -1.433  -0.534   0.013  0.00  0.00    +0.055 C 
ATOM     10  C   UNL     1       0.718  -0.497  -1.257  0.00  0.00    +0.055 C 
ENDBRANCH   6   8
ENDBRANCH   2   6
ENDBRANCH   1   4
BRANCH   1  11
ATOM     11  C   UNL     1       2.372   5.475   0.609  0.00  0.00    +0.234 C 
ATOM     12  O   UNL     1       1.289   5.845   1.011  0.00  0.00    -0.274 OA
ATOM     13  N   UNL     1       3.441   6.290   0.708  0.00  0.00    -0.304 N 
ATOM     14  H   UNL     1       4.423   5.954   0.343  0.00  0.00    +0.149 HD
BRANCH  13  15
ATOM     15  C   UNL     1       3.296   7.621   1.300  0.00  0.00    +0.139 C 
ATOM     16  C   UNL     1       3.452   7.539   2.816  0.00  0.00    -0.008 A 
ATOM     17  C   UNL     1       2.789   6.889   3.860  0.00  0.00    +0.014 A 
ATOM     18  C   UNL     1       3.212   7.045   5.136  0.00  0.00    +0.046 A 
ATOM     19  S   UNL     1       4.604   8.143   4.942  0.00  0.00    -0.095 S 
ATOM     20  C   UNL     1       4.530   8.322   3.171  0.00  0.00    +0.044 A 
ATOM     21  C   UNL     1       5.165   8.964   2.029  0.00  0.00    +0.124 C 
ATOM     22  N   UNL     1       6.194   9.752   2.068  0.00  0.00    -0.088 NA
ATOM     23  C   UNL     1       4.407   8.546   0.791  0.00  0.00    +0.192 C 
BRANCH  22  24
ATOM     24  O   UNL     1       6.706  10.307   0.870  0.00  0.00    -0.409 OA
ATOM     25  H   UNL     1       7.579  10.975   0.903  0.00  0.00    +0.328 HD
ENDBRANCH  22  24
BRANCH  23  26
ATOM     26  O   UNL     1       5.269   7.840  -0.104  0.00  0.00    -0.383 OA
ATOM     27  H   UNL     1       6.125   8.356  -0.565  0.00  0.00    +0.210 HD
ENDBRANCH  23  26
ENDBRANCH  13  15
ENDBRANCH   1  11
BRANCH   1  28
ATOM     28  C   UNL     1       3.018   4.239  -1.441  0.00  0.00    +0.067 C 
BRANCH  28  29
ATOM     29  C   UNL     1       3.285   2.869  -2.010  0.00  0.00    -0.045 A 
ATOM     30  C   UNL     1       4.538   2.300  -1.882  0.00  0.00    +0.004 A 
ATOM     31  C   UNL     1       4.782   1.042  -2.400  0.00  0.00    +0.000 A 
ATOM     32  C   UNL     1       3.775   0.357  -3.054  0.00  0.00    +0.000 A 
ATOM     33  C   UNL     1       2.524   0.928  -3.187  0.00  0.00    +0.000 A 
ATOM     34  C   UNL     1       2.279   2.184  -2.665  0.00  0.00    +0.004 A 
ENDBRANCH  28  29
ENDBRANCH   1  28
TORSDOF 9
