REMARK  Name = ZINC61881849
REMARK  6 active torsions:
REMARK  status: ('A' for Active; 'I' for Inactive)
REMARK    1  A    between atoms: C_4  and  S_9
REMARK    2  A    between atoms: C_6  and  N_7
REMARK    3  A    between atoms: S_9  and  N_12
REMARK    4  A    between atoms: N_12  and  C_13
REMARK    5  A    between atoms: C_13  and  C_14
REMARK    6  A    between atoms: N_16  and  C_17
REMARK                            x       y       z     vdW  Elec       q    Type
REMARK                         _______ _______ _______ _____ _____    ______ ____
ROOT
ATOM      1  S   UNL     1       4.052  -0.925  -0.094  0.00  0.00    +0.060 S 
ATOM      2  O   UNL     1       4.177  -2.027  -0.982  0.00  0.00    -0.153 OA
ATOM      3  O   UNL     1       4.941   0.183  -0.126  0.00  0.00    -0.153 OA
ENDROOT
BRANCH   1   7
ATOM      4  C   UNL     1      -0.123   0.739  -0.685  0.00  0.00    +0.044 A 
ATOM      5  C   UNL     1       0.314  -0.327  -1.449  0.00  0.00    +0.045 A 
ATOM      6  C   UNL     1       1.589  -0.834  -1.267  0.00  0.00    +0.049 A 
ATOM      7  C   UNL     1       2.430  -0.276  -0.321  0.00  0.00    +0.122 A 
ATOM      8  C   UNL     1       1.999   0.790   0.445  0.00  0.00    +0.065 A 
ATOM      9  C   UNL     1       0.719   1.302   0.265  0.00  0.00    +0.042 A 
ATOM     10 BR   UNL     1       3.149   1.551   1.739  0.00  0.00    -0.046 Br
ATOM     11 CL   UNL     1      -0.738  -1.032  -2.637  0.00  0.00    -0.083 Cl
BRANCH   9  12
ATOM     12  N   UNL     1       0.281   2.380   1.038  0.00  0.00    -0.357 N 
ATOM     13  H   UNL     1      -0.613   2.736   0.911  0.00  0.00    +0.142 HD
ATOM     14  H   UNL     1       0.870   2.772   1.701  0.00  0.00    +0.142 HD
ENDBRANCH   9  12
ENDBRANCH   1   7
BRANCH   1  15
ATOM     15  N   UNL     1       4.121  -1.543   1.441  0.00  0.00    -0.181 NA
ATOM     16  H   UNL     1       4.725  -1.155   2.094  0.00  0.00    +0.149 HD
BRANCH  15  17
ATOM     17  C   UNL     1       3.270  -2.676   1.813  0.00  0.00    +0.201 C 
BRANCH  17  18
ATOM     18  C   UNL     1       3.788  -3.296   3.085  0.00  0.00    +0.229 C 
ATOM     19  O   UNL     1       4.771  -2.838   3.627  0.00  0.00    -0.274 OA
ATOM     20  N   UNL     1       3.158  -4.361   3.620  0.00  0.00    -0.311 N 
ATOM     21  H   UNL     1       2.372  -4.728   3.187  0.00  0.00    +0.149 HD
BRANCH  20  22
ATOM     22  C   UNL     1       3.662  -4.965   4.856  0.00  0.00    +0.073 C 
ATOM     23  C   UNL     1       3.724  -6.492   4.923  0.00  0.00    +0.024 C 
ATOM     24  C   UNL     1       2.664  -5.734   5.725  0.00  0.00    +0.024 C 
ENDBRANCH  20  22
ENDBRANCH  17  18
ENDBRANCH  15  17
ENDBRANCH   1  15
TORSDOF 6
