REMARK  Name = ZINC13553125
REMARK  7 active torsions:
REMARK  status: ('A' for Active; 'I' for Inactive)
REMARK    1  A    between atoms: C_1  and  C_2
REMARK    2  A    between atoms: C_8  and  C_28
REMARK    3  A    between atoms: C_11  and  C_12
REMARK    4  A    between atoms: C_11  and  O_23
REMARK    5  A    between atoms: C_13  and  C_22
REMARK    6  A    between atoms: C_14  and  C_19
REMARK    7  A    between atoms: C_17  and  C_18
REMARK                            x       y       z     vdW  Elec       q    Type
REMARK                         _______ _______ _______ _____ _____    ______ ____
ROOT
ATOM      1  C   UNL     1       3.815  -0.066   3.999  0.00  0.00    +0.089 C 
ATOM      2  C   UNL     1       3.392   0.632   2.732  0.00  0.00    +0.136 A 
ATOM      3  C   UNL     1       2.201   0.514   2.103  0.00  0.00    +0.091 A 
ATOM      4  C   UNL     1       2.321   1.370   0.976  0.00  0.00    +0.172 A 
ATOM      5  N   UNL     1       3.521   1.888   1.038  0.00  0.00    -0.063 NA
ATOM      6  O   UNL     1       4.124   1.492   2.009  0.00  0.00    -0.358 OA
ATOM      7  N   UNL     1       1.357   1.607  -0.002  0.00  0.00    -0.235 N 
ATOM      8  C   UNL     1      -0.013   1.086   0.008  0.00  0.00    +0.151 C 
ATOM      9  C   UNL     1      -0.680   1.601  -1.246  0.00  0.00    +0.072 C 
ATOM     10  C   UNL     1      -1.980   1.362  -1.653  0.00  0.00    +0.135 C 
ATOM     11  C   UNL     1       0.283   2.370  -1.913  0.00  0.00    +0.249 C 
ATOM     12  O   UNL     1       0.123   2.955  -2.969  0.00  0.00    -0.282 OA
ATOM     13  C   UNL     1       1.533   2.349  -1.109  0.00  0.00    +0.293 C 
ATOM     14  O   UNL     1       2.563   2.918  -1.408  0.00  0.00    -0.266 OA
ENDROOT
BRANCH  10  15
ATOM     15  C   UNL     1      -2.475   1.943  -2.909  0.00  0.00    +0.041 A 
ATOM     16  C   UNL     1      -2.774   1.242  -4.101  0.00  0.00    -0.010 A 
ATOM     17  C   UNL     1      -3.203   2.163  -5.009  0.00  0.00    +0.105 A 
ATOM     18  N   UNL     1      -3.169   3.407  -4.416  0.00  0.00    -0.354 N 
ATOM     19  H   UNL     1      -3.421   4.240  -4.844  0.00  0.00    +0.166 HD
ATOM     20  C   UNL     1      -2.733   3.283  -3.152  0.00  0.00    +0.024 A 
ATOM     21  C   UNL     1      -2.553   4.409  -2.167  0.00  0.00    +0.064 C 
ATOM     22  C   UNL     1      -2.645  -0.243  -4.323  0.00  0.00    +0.047 C 
BRANCH  17  23
ATOM     23  C   UNL     1      -3.624   1.880  -6.387  0.00  0.00    +0.258 C 
ATOM     24  O   UNL     1      -3.613   0.737  -6.804  0.00  0.00    -0.269 OA
ATOM     25  N   UNL     1      -4.023   2.886  -7.190  0.00  0.00    -0.324 N 
ATOM     26  H   UNL     1      -4.032   3.797  -6.858  0.00  0.00    +0.145 HD
ATOM     27  H   UNL     1      -4.301   2.699  -8.100  0.00  0.00    +0.145 HD
ENDBRANCH  17  23
ENDBRANCH  10  15
BRANCH   8  28
ATOM     28  C   UNL     1      -0.746   1.585   1.226  0.00  0.00    -0.021 A 
ATOM     29  C   UNL     1      -1.627   0.753   1.892  0.00  0.00    +0.007 A 
ATOM     30  C   UNL     1      -2.300   1.210   3.009  0.00  0.00    +0.022 A 
ATOM     31  C   UNL     1      -2.091   2.500   3.463  0.00  0.00    +0.059 A 
ATOM     32  C   UNL     1      -1.208   3.333   2.797  0.00  0.00    +0.060 A 
ATOM     33  C   UNL     1      -0.532   2.872   1.682  0.00  0.00    +0.027 A 
ATOM     34 CL   UNL     1      -0.945   4.952   3.366  0.00  0.00    -0.082 Cl
ATOM     35 CL   UNL     1      -2.936   3.074   4.867  0.00  0.00    -0.082 Cl
ENDBRANCH   8  28
BRANCH  10  36
ATOM     36  O   UNL     1      -2.794   0.595  -0.898  0.00  0.00    -0.506 OA
ATOM     37  H   UNL     1      -3.690   0.526  -1.337  0.00  0.00    +0.292 HD
ENDBRANCH  10  36
TORSDOF 4
