REMARK  Name = ZINC40723063
REMARK  5 active torsions:
REMARK  status: ('A' for Active; 'I' for Inactive)
REMARK    1  A    between atoms: C_6  and  C_7
REMARK    2  A    between atoms: N_9  and  N_10
REMARK    3  A    between atoms: C_12  and  N_25
REMARK    4  A    between atoms: C_13  and  S_17
REMARK    5  A    between atoms: S_17  and  C_18
REMARK                            x       y       z     vdW  Elec       q    Type
REMARK                         _______ _______ _______ _____ _____    ______ ____
ROOT
ATOM      1  N   UNL     1      -2.446  -2.831   0.014  0.00  0.00    -0.247 N 
ATOM      2  C   UNL     1      -2.424  -4.221   0.008  0.00  0.00    +0.160 A 
ATOM      3  C   UNL     1      -3.615  -4.949   0.007  0.00  0.00    +0.099 A 
ATOM      4  C   UNL     1      -3.536  -6.342   0.001  0.00  0.00    +0.127 A 
ATOM      5  N   UNL     1      -2.337  -6.920  -0.005  0.00  0.00    -0.227 NA
ATOM      6  C   UNL     1      -1.236  -6.196  -0.004  0.00  0.00    +0.224 A 
ATOM      7  N   UNL     1      -1.267  -4.878  -0.003  0.00  0.00    -0.218 NA
ATOM      8  H   UNL     1      -3.293  -2.359   0.021  0.00  0.00    +0.172 HD
ENDROOT
BRANCH   1  11
ATOM      9  C   UNL     1      -1.265  -0.764   0.014  0.00  0.00    +0.260 C 
ATOM     10  O   UNL     1      -2.327  -0.173   0.024  0.00  0.00    -0.269 OA
ATOM     11  N   UNL     1      -1.244  -2.112   0.009  0.00  0.00    -0.231 N 
ATOM     12  H   UNL     1      -0.396  -2.583   0.001  0.00  0.00    +0.173 HD
BRANCH   9  18
ATOM     13  C   UNL     1      -0.015   1.391   0.015  0.00  0.00    +0.014 A 
ATOM     14  C   UNL     1       1.171   2.094   0.010  0.00  0.00    +0.016 A 
ATOM     15  C   UNL     1       2.380   1.417  -0.001  0.00  0.00    +0.018 A 
ATOM     16  C   UNL     1       2.405   0.033  -0.007  0.00  0.00    +0.016 A 
ATOM     17  C   UNL     1       1.225  -0.681  -0.002  0.00  0.00    +0.014 A 
ATOM     18  C   UNL     1       0.003  -0.005   0.009  0.00  0.00    +0.038 A 
ATOM     19 BR   UNL     1       4.002   2.389  -0.009  0.00  0.00    -0.050 Br
ENDBRANCH   9  18
ENDBRANCH   1  11
BRANCH   3  20
ATOM     20  N   UNL     1      -4.859  -4.296   0.013  0.00  0.00    -0.353 N 
ATOM     21  H   UNL     1      -4.898  -3.327   0.018  0.00  0.00    +0.142 HD
ATOM     22  H   UNL     1      -5.678  -4.815   0.012  0.00  0.00    +0.142 HD
ENDBRANCH   3  20
BRANCH   4  23
ATOM     23  S   UNL     1      -5.001  -7.322  -0.000  0.00  0.00    -0.068 S 
BRANCH  23  24
ATOM     24  C   UNL     1      -4.410  -8.973  -0.162  0.00  0.00    +0.014 A 
ATOM     25  C   UNL     1      -4.215  -9.757   0.969  0.00  0.00    +0.016 A 
ATOM     26  C   UNL     1      -3.751 -11.051   0.839  0.00  0.00    +0.021 A 
ATOM     27  C   UNL     1      -3.480 -11.568  -0.416  0.00  0.00    +0.041 A 
ATOM     28  C   UNL     1      -3.673 -10.790  -1.544  0.00  0.00    +0.021 A 
ATOM     29  C   UNL     1      -4.142  -9.497  -1.421  0.00  0.00    +0.016 A 
ATOM     30 CL   UNL     1      -2.896 -13.195  -0.576  0.00  0.00    -0.084 Cl
ENDBRANCH  23  24
ENDBRANCH   4  23
TORSDOF 5
