REMARK  Name = ZINC06553060
REMARK  9 active torsions:
REMARK  status: ('A' for Active; 'I' for Inactive)
REMARK    1  A    between atoms: C_1  and  C_2
REMARK    2  A    between atoms: C_2  and  O_3
REMARK    3  A    between atoms: O_3  and  C_4
REMARK    4  A    between atoms: C_6  and  C_11
REMARK    5  A    between atoms: C_9  and  O_10
REMARK    6  A    between atoms: C_13  and  C_25
REMARK    7  A    between atoms: C_15  and  C_20
REMARK    8  A    between atoms: C_17  and  O_19
REMARK    9  A    between atoms: C_25  and  C_27
REMARK                            x       y       z     vdW  Elec       q    Type
REMARK                         _______ _______ _______ _____ _____    ______ ____
ROOT
ATOM      1  C   UNL     1       0.654  -4.954  -0.018  0.00  0.00    +0.120 C 
ATOM      2  C   UNL     1       0.914  -5.494   1.396  0.00  0.00    +0.149 C 
ATOM      3  C   UNL     1      -0.316  -6.284   1.847  0.00  0.00    +0.284 C 
ATOM      4  N   UNL     1      -0.721  -7.234   0.817  0.00  0.00    -0.306 N 
ATOM      5  C   UNL     1      -0.384  -7.133  -0.425  0.00  0.00    +0.256 C 
ATOM      6  N   UNL     1       0.407  -6.111  -0.893  0.00  0.00    -0.293 N 
ATOM      7  O   UNL     1      -1.392  -5.377   2.099  0.00  0.00    -0.194 OA
ATOM      8  H   UNL     1       0.795  -6.151  -1.781  0.00  0.00    +0.151 HD
ATOM      9  H   UNL     1      -1.274  -7.986   1.080  0.00  0.00    +0.167 HD
ENDROOT
BRANCH   1  12
ATOM     10  C   UNL     1      -1.498  -1.849   0.006  0.00  0.00    +0.162 A 
ATOM     11  C   UNL     1      -0.389  -2.680  -0.003  0.00  0.00    +0.055 A 
ATOM     12  C   UNL     1      -0.553  -4.052  -0.008  0.00  0.00    -0.023 A 
ATOM     13  C   UNL     1      -1.823  -4.600  -0.005  0.00  0.00    +0.009 A 
ATOM     14  C   UNL     1      -2.934  -3.777   0.004  0.00  0.00    +0.049 A 
ATOM     15  C   UNL     1      -2.776  -2.400   0.016  0.00  0.00    +0.158 A 
BRANCH  15  16
ATOM     16  O   UNL     1      -3.868  -1.589   0.030  0.00  0.00    -0.503 OA
ATOM     17  H   UNL     1      -4.192  -1.350  -0.849  0.00  0.00    +0.292 HD
ENDBRANCH  15  16
BRANCH  10  18
ATOM     18  O   UNL     1      -1.339  -0.499   0.012  0.00  0.00    -0.489 OA
BRANCH  18  20
ATOM     19  C   UNL     1      -0.019   1.526   0.010  0.00  0.00    +0.048 C 
ATOM     20  C   UNL     1       0.002  -0.004   0.002  0.00  0.00    +0.226 C 
ENDBRANCH  18  20
ENDBRANCH  10  18
ENDBRANCH   1  12
BRANCH   3  21
ATOM     21  C   UNL     1       0.015  -7.044   3.132  0.00  0.00    +0.441 C 
ATOM     22  F   UNL     1       0.379  -6.135   4.131  0.00  0.00    -0.166 F 
ATOM     23  F   UNL     1      -1.108  -7.768   3.548  0.00  0.00    -0.166 F 
ATOM     24  F   UNL     1       1.075  -7.925   2.893  0.00  0.00    -0.166 F 
ENDBRANCH   3  21
BRANCH   5  25
ATOM     25  O   UNL     1      -0.825  -8.066  -1.297  0.00  0.00    -0.483 OA
ATOM     26  H   UNL     1      -1.375  -8.752  -0.894  0.00  0.00    +0.295 HD
ENDBRANCH   5  25
BRANCH   2  27
ATOM     27  C   UNL     1       1.155  -4.345   2.341  0.00  0.00    +0.173 C 
ATOM     28  O   UNL     1       0.625  -3.273   2.140  0.00  0.00    -0.292 OA
BRANCH  27  29
ATOM     29  C   UNL     1       2.032  -4.524   3.509  0.00  0.00    +0.018 A 
ATOM     30  C   UNL     1       2.649  -5.758   3.741  0.00  0.00    +0.013 A 
ATOM     31  C   UNL     1       3.470  -5.918   4.837  0.00  0.00    +0.020 A 
ATOM     32  C   UNL     1       3.684  -4.861   5.707  0.00  0.00    +0.041 A 
ATOM     33  C   UNL     1       3.075  -3.636   5.483  0.00  0.00    +0.020 A 
ATOM     34  C   UNL     1       2.257  -3.460   4.388  0.00  0.00    +0.013 A 
ATOM     35 CL   UNL     1       4.718  -5.073   7.085  0.00  0.00    -0.084 Cl
ENDBRANCH  27  29
ENDBRANCH   2  27
TORSDOF 8
