REMARK  Name = ZINC09486940
REMARK  11 active torsions:
REMARK  status: ('A' for Active; 'I' for Inactive)
REMARK    1  A    between atoms: C_1  and  C_2
REMARK    2  A    between atoms: C_5  and  C_8
REMARK    3  A    between atoms: C_10  and  C_14
REMARK    4  A    between atoms: C_17  and  S_20
REMARK    5  A    between atoms: N_18  and  N_19
REMARK    6  A    between atoms: S_20  and  C_21
REMARK    7  A    between atoms: C_21  and  C_22
REMARK    8  A    between atoms: N_24  and  C_25
REMARK    9  A    between atoms: C_26  and  C_33
REMARK   10  A    between atoms: C_28  and  C_32
REMARK   11  A    between atoms: C_30  and  C_31
REMARK                            x       y       z     vdW  Elec       q    Type
REMARK                         _______ _______ _______ _____ _____    ______ ____
ROOT
ATOM      1  C   UNL     1       0.654  -7.266   2.335  0.00  0.00    +0.199 A 
ATOM      2  N   UNL     1      -0.088  -7.406   3.410  0.00  0.00    -0.125 NA
ATOM      3  N   UNL     1      -0.100  -8.637   3.779  0.00  0.00    -0.120 NA
ATOM      4  C   UNL     1       0.634  -9.360   2.962  0.00  0.00    +0.209 A 
ATOM      5  N   UNL     1       1.135  -8.515   2.012  0.00  0.00    -0.223 N 
ENDROOT
BRANCH   1   8
ATOM      6  C   UNL     1       0.803  -3.900   0.873  0.00  0.00    +0.093 A 
ATOM      7  C   UNL     1       0.229  -4.838   1.746  0.00  0.00    +0.061 A 
ATOM      8  C   UNL     1       0.917  -6.011   1.608  0.00  0.00    +0.105 A 
ATOM      9  N   UNL     1       1.893  -5.808   0.675  0.00  0.00    -0.273 N 
ATOM     10  H   UNL     1       2.538  -6.465   0.371  0.00  0.00    +0.189 HD
ATOM     11  N   UNL     1       1.794  -4.483   0.231  0.00  0.00    -0.173 NA
BRANCH   6  16
ATOM     12  C   UNL     1      -0.901   1.560   0.198  0.00  0.00    +0.044 C 
ATOM     13  C   UNL     1      -0.455   0.132   0.374  0.00  0.00    -0.050 A 
ATOM     14  C   UNL     1       0.607  -0.355  -0.366  0.00  0.00    +0.004 A 
ATOM     15  C   UNL     1       1.019  -1.663  -0.208  0.00  0.00    +0.010 A 
ATOM     16  C   UNL     1       0.365  -2.493   0.699  0.00  0.00    +0.002 A 
ATOM     17  C   UNL     1      -0.704  -1.997   1.443  0.00  0.00    +0.010 A 
ATOM     18  C   UNL     1      -1.105  -0.686   1.281  0.00  0.00    +0.004 A 
ENDBRANCH   6  16
ENDBRANCH   1   8
BRANCH   5  19
ATOM     19  N   UNL     1       1.945  -8.842   0.962  0.00  0.00    -0.295 N 
ATOM     20  H   UNL     1       2.918  -8.776   1.222  0.00  0.00    +0.163 HD
ATOM     21  H   UNL     1       1.727  -9.762   0.609  0.00  0.00    +0.163 HD
ENDBRANCH   5  19
BRANCH   4  22
ATOM     22  S   UNL     1       0.914 -11.096   3.069  0.00  0.00    -0.075 S 
BRANCH  22  23
ATOM     23  C   UNL     1      -0.031 -11.604   4.531  0.00  0.00    +0.173 C 
BRANCH  23  24
ATOM     24  C   UNL     1       0.124 -13.088   4.740  0.00  0.00    +0.228 C 
ATOM     25  O   UNL     1       0.806 -13.739   3.976  0.00  0.00    -0.275 OA
ATOM     26  N   UNL     1      -0.494 -13.692   5.774  0.00  0.00    -0.284 N 
ATOM     27  H   UNL     1      -0.978 -13.162   6.426  0.00  0.00    +0.155 HD
BRANCH  26  28
ATOM     28  C   UNL     1      -0.437 -15.084   5.907  0.00  0.00    +0.039 A 
ATOM     29  C   UNL     1       0.012 -15.651   7.093  0.00  0.00    -0.029 A 
ATOM     30  C   UNL     1       0.067 -17.025   7.221  0.00  0.00    +0.008 A 
ATOM     31  C   UNL     1      -0.324 -17.836   6.171  0.00  0.00    -0.050 A 
ATOM     32  C   UNL     1      -0.771 -17.273   4.989  0.00  0.00    +0.008 A 
ATOM     33  C   UNL     1      -0.834 -15.900   4.857  0.00  0.00    -0.029 A 
ATOM     34  C   UNL     1      -1.328 -15.289   3.571  0.00  0.00    +0.045 C 
ATOM     35  C   UNL     1      -0.262 -19.334   6.314  0.00  0.00    +0.044 C 
ATOM     36  C   UNL     1       0.439 -14.769   8.237  0.00  0.00    +0.045 C 
ENDBRANCH  26  28
ENDBRANCH  23  24
ENDBRANCH  22  23
ENDBRANCH   4  22
TORSDOF 7
