REMARK  Name = ZINC47238419
REMARK  3 active torsions:
REMARK  status: ('A' for Active; 'I' for Inactive)
REMARK    1  A    between atoms: C_5  and  N_7
REMARK    2  A    between atoms: C_14  and  C_17
REMARK    3  A    between atoms: N_19  and  C_20
REMARK                            x       y       z     vdW  Elec       q    Type
REMARK                         _______ _______ _______ _____ _____    ______ ____
ROOT
ATOM      1  N   UNL     1       1.236  -2.081  -0.014  0.00  0.00    -0.267 N 
ATOM      2  C   UNL     1       0.085  -2.774   0.088  0.00  0.00    +0.307 C 
ATOM      3  O   UNL     1      -0.980  -2.187   0.095  0.00  0.00    -0.252 OA
ATOM      4  N   UNL     1       0.114  -4.118   0.181  0.00  0.00    -0.285 N 
ATOM      5  C   UNL     1       1.393  -4.834   0.282  0.00  0.00    +0.109 C 
ATOM      6  C   UNL     1       1.446  -5.904  -0.813  0.00  0.00    +0.020 C 
ATOM      7  C   UNL     1       0.212  -6.803  -0.704  0.00  0.00    +0.016 C 
ATOM      8  C   UNL     1      -1.051  -5.964  -0.909  0.00  0.00    +0.092 C 
ATOM      9  C   UNL     1      -1.134  -4.895   0.191  0.00  0.00    +0.122 C 
ATOM     10  H   UNL     1       2.084  -2.551  -0.055  0.00  0.00    +0.156 HD
ENDROOT
BRANCH   1  15
ATOM     11  C   UNL     1       0.030   1.360  -0.502  0.00  0.00    +0.002 A 
ATOM     12  C   UNL     1       1.156   2.085  -0.156  0.00  0.00    +0.003 A 
ATOM     13  C   UNL     1       2.309   1.432   0.238  0.00  0.00    +0.040 A 
ATOM     14  C   UNL     1       2.340   0.050   0.287  0.00  0.00    +0.145 A 
ATOM     15  C   UNL     1       1.209  -0.681  -0.061  0.00  0.00    +0.070 A 
ATOM     16  C   UNL     1       0.054  -0.021  -0.456  0.00  0.00    +0.026 A 
ATOM     17  F   UNL     1       3.466  -0.589   0.671  0.00  0.00    -0.204 F 
ENDBRANCH   1  15
BRANCH   8  18
ATOM     18  C   UNL     1      -2.264  -6.856  -0.834  0.00  0.00    +0.218 C 
ATOM     19  O   UNL     1      -2.132  -8.045  -0.636  0.00  0.00    -0.275 OA
ATOM     20  N   UNL     1      -3.496  -6.331  -0.988  0.00  0.00    -0.312 N 
ATOM     21  H   UNL     1      -3.603  -5.380  -1.146  0.00  0.00    +0.149 HD
BRANCH  20  22
ATOM     22  C   UNL     1      -4.675  -7.198  -0.915  0.00  0.00    +0.073 C 
ATOM     23  C   UNL     1      -4.932  -7.826  -2.286  0.00  0.00    +0.022 C 
ATOM     24  C   UNL     1      -6.163  -8.731  -2.210  0.00  0.00    +0.002 C 
ATOM     25  C   UNL     1      -7.380  -7.902  -1.792  0.00  0.00    +0.000 C 
ATOM     26  C   UNL     1      -7.123  -7.274  -0.421  0.00  0.00    +0.002 C 
ATOM     27  C   UNL     1      -5.892  -6.369  -0.497  0.00  0.00    +0.022 C 
ENDBRANCH  20  22
ENDBRANCH   8  18
TORSDOF 3
