REMARK  Name = ZINC56747142
REMARK  11 active torsions:
REMARK  status: ('A' for Active; 'I' for Inactive)
REMARK    1  A    between atoms: C_1  and  C_2
REMARK    2  A    between atoms: C_2  and  C_3
REMARK    3  A    between atoms: C_3  and  O_4
REMARK    4  A    between atoms: O_4  and  C_5
REMARK    5  A    between atoms: C_8  and  N_12
REMARK    6  A    between atoms: C_9  and  C_11
REMARK    7  A    between atoms: N_15  and  C_16
REMARK    8  A    between atoms: C_16  and  C_17
REMARK    9  A    between atoms: C_17  and  C_18
REMARK   10  A    between atoms: C_21  and  S_24
REMARK   11  A    between atoms: S_24  and  N_27
REMARK                            x       y       z     vdW  Elec       q    Type
REMARK                         _______ _______ _______ _____ _____    ______ ____
ROOT
ATOM      1  N   UNL     1       3.300  -4.439   5.463  0.00  0.00    -0.269 N 
ATOM      2  C   UNL     1       3.947  -3.705   6.390  0.00  0.00    +0.304 C 
ATOM      3  O   UNL     1       3.896  -2.491   6.348  0.00  0.00    -0.253 OA
ATOM      4  N   UNL     1       4.650  -4.317   7.364  0.00  0.00    -0.299 N 
ATOM      5  H   UNL     1       3.285  -5.407   5.534  0.00  0.00    +0.156 HD
ATOM      6  H   UNL     1       4.690  -5.285   7.397  0.00  0.00    +0.150 HD
ENDROOT
BRANCH   1  10
ATOM      7  C   UNL     1       1.359  -2.552   2.291  0.00  0.00    +0.121 A 
ATOM      8  C   UNL     1       1.390  -1.951   3.541  0.00  0.00    +0.047 A 
ATOM      9  C   UNL     1       2.032  -2.576   4.592  0.00  0.00    +0.027 A 
ATOM     10  C   UNL     1       2.647  -3.805   4.397  0.00  0.00    +0.038 A 
ATOM     11  C   UNL     1       2.615  -4.406   3.147  0.00  0.00    -0.026 A 
ATOM     12  C   UNL     1       1.968  -3.783   2.097  0.00  0.00    +0.050 A 
ATOM     13  C   UNL     1       3.282  -5.741   2.934  0.00  0.00    +0.046 C 
BRANCH   7  14
ATOM     14  O   UNL     1       0.726  -1.937   1.257  0.00  0.00    -0.492 OA
BRANCH  14  15
ATOM     15  C   UNL     1       0.120  -0.671   1.528  0.00  0.00    +0.229 C 
BRANCH  15  17
ATOM     16  C   UNL     1      -1.186   1.218   0.543  0.00  0.00    +0.007 C 
ATOM     17  C   UNL     1      -0.537  -0.138   0.254  0.00  0.00    +0.038 C 
ENDBRANCH  15  17
ENDBRANCH  14  15
ENDBRANCH   7  14
ENDBRANCH   1  10
BRANCH   4  18
ATOM     18  C   UNL     1       5.353  -3.518   8.371  0.00  0.00    +0.110 C 
BRANCH  18  19
ATOM     19  C   UNL     1       6.067  -4.450   9.352  0.00  0.00    +0.054 C 
BRANCH  19  20
ATOM     20  C   UNL     1       6.791  -3.629  10.388  0.00  0.00    -0.046 A 
ATOM     21  C   UNL     1       8.096  -3.231  10.167  0.00  0.00    +0.005 A 
ATOM     22  C   UNL     1       8.760  -2.478  11.117  0.00  0.00    +0.029 A 
ATOM     23  C   UNL     1       8.118  -2.123  12.289  0.00  0.00    +0.105 A 
ATOM     24  C   UNL     1       6.813  -2.520  12.510  0.00  0.00    +0.029 A 
ATOM     25  C   UNL     1       6.148  -3.269  11.557  0.00  0.00    +0.005 A 
BRANCH  23  26
ATOM     26  S   UNL     1       8.965  -1.164  13.501  0.00  0.00    +0.056 S 
ATOM     27  O   UNL     1       8.328  -1.426  14.743  0.00  0.00    -0.153 OA
ATOM     28  O   UNL     1      10.354  -1.383  13.295  0.00  0.00    -0.153 OA
BRANCH  26  29
ATOM     29  N   UNL     1       8.681   0.430  13.150  0.00  0.00    -0.204 NA
ATOM     30  H   UNL     1       8.130   0.668  12.388  0.00  0.00    +0.144 HD
ATOM     31  H   UNL     1       9.065   1.125  13.707  0.00  0.00    +0.144 HD
ENDBRANCH  26  29
ENDBRANCH  23  26
ENDBRANCH  19  20
ENDBRANCH  18  19
ENDBRANCH   4  18
TORSDOF 9
