REMARK  Name = ZINC39127399
REMARK  8 active torsions:
REMARK  status: ('A' for Active; 'I' for Inactive)
REMARK    1  A    between atoms: C_1  and  C_2
REMARK    2  A    between atoms: C_2  and  N_3
REMARK    3  A    between atoms: N_3  and  C_4
REMARK    4  A    between atoms: N_3  and  C_6
REMARK    5  A    between atoms: C_4  and  C_5
REMARK    6  A    between atoms: C_9  and  C_11
REMARK    7  A    between atoms: C_18  and  C_26
REMARK    8  A    between atoms: C_19  and  C_25
REMARK                            x       y       z     vdW  Elec       q    Type
REMARK                         _______ _______ _______ _____ _____    ______ ____
ROOT
ATOM      1  C   UNL     1      -2.195  -0.850   4.766  0.00  0.00    +0.067 C 
ATOM      2  C   UNL     1      -0.963  -0.504   5.279  0.00  0.00    +0.084 A 
ATOM      3  C   UNL     1       0.204  -0.079   4.601  0.00  0.00    +0.272 A 
ATOM      4  O   UNL     1       0.207   0.024   3.387  0.00  0.00    -0.266 OA
ATOM      5  N   UNL     1       1.306   0.210   5.308  0.00  0.00    -0.253 N 
ATOM      6  C   UNL     1       2.615   0.646   5.036  0.00  0.00    +0.078 A 
ATOM      7  C   UNL     1       3.278   0.955   3.861  0.00  0.00    +0.032 A 
ATOM      8  C   UNL     1       4.595   1.368   3.906  0.00  0.00    -0.045 A 
ATOM      9  C   UNL     1       5.255   1.475   5.121  0.00  0.00    -0.045 A 
ATOM     10  C   UNL     1       4.609   1.171   6.299  0.00  0.00    +0.033 A 
ATOM     11  C   UNL     1       3.275   0.752   6.268  0.00  0.00    +0.091 A 
ATOM     12  N   UNL     1       2.388   0.391   7.230  0.00  0.00    -0.221 NA
ATOM     13  C   UNL     1       1.252   0.078   6.677  0.00  0.00    +0.182 A 
ATOM     14  S   UNL     1      -0.415  -0.465   6.980  0.00  0.00    -0.046 S 
ATOM     15  C   UNL     1       6.692   1.927   5.154  0.00  0.00    +0.044 C 
ATOM     16  C   UNL     1       5.320   1.704   2.628  0.00  0.00    +0.044 C 
ENDROOT
BRANCH   1  20
ATOM     17  C   UNL     1      -2.273   0.023   1.316  0.00  0.00    +0.189 A 
ATOM     18  C   UNL     1      -3.466  -0.634   1.405  0.00  0.00    +0.066 A 
ATOM     19  C   UNL     1      -3.607  -1.060   2.728  0.00  0.00    +0.051 A 
ATOM     20  C   UNL     1      -2.474  -0.637   3.404  0.00  0.00    +0.131 A 
ATOM     21  O   UNL     1      -1.681   0.012   2.521  0.00  0.00    -0.442 OA
BRANCH  17  22
ATOM     22  N   UNL     1      -1.757   0.600   0.173  0.00  0.00    -0.302 N 
BRANCH  22  24
ATOM     23  C   UNL     1      -0.657   2.749   0.561  0.00  0.00    +0.024 C 
ATOM     24  C   UNL     1      -0.456   1.272   0.215  0.00  0.00    +0.104 C 
ENDBRANCH  22  24
BRANCH  22  25
ATOM     25  C   UNL     1      -2.510   0.539  -1.082  0.00  0.00    +0.104 C 
ATOM     26  C   UNL     1      -2.119  -0.725  -1.851  0.00  0.00    +0.024 C 
ENDBRANCH  22  25
ENDBRANCH  17  22
ENDBRANCH   1  20
TORSDOF 4
