REMARK  Name = ZINC19313354
REMARK  4 active torsions:
REMARK  status: ('A' for Active; 'I' for Inactive)
REMARK    1  A    between atoms: N_3  and  C_15
REMARK    2  A    between atoms: N_6  and  C_7
REMARK    3  A    between atoms: C_7  and  N_8
REMARK    4  A    between atoms: C_15  and  N_16
REMARK                            x       y       z     vdW  Elec       q    Type
REMARK                         _______ _______ _______ _____ _____    ______ ____
ROOT
ATOM      1  C   UNL     1       3.931  -0.965  -3.288  0.00  0.00    +0.101 C 
ATOM      2  C   UNL     1       4.760  -0.295  -4.386  0.00  0.00    +0.101 C 
ATOM      3  N   UNL     1       6.187  -0.399  -4.051  0.00  0.00    -0.287 NA
ATOM      4  C   UNL     1       6.471   0.248  -2.762  0.00  0.00    +0.101 C 
ATOM      5  C   UNL     1       5.642  -0.422  -1.664  0.00  0.00    +0.101 C 
ATOM      6  N   UNL     1       4.215  -0.318  -1.999  0.00  0.00    -0.287 NA
ENDROOT
BRANCH   6   7
ATOM      7  C   UNL     1       3.381  -0.884  -0.931  0.00  0.00    +0.174 C 
BRANCH   7   8
ATOM      8  N   UNL     1       2.048  -0.268  -0.972  0.00  0.00    -0.258 NA
ATOM      9  C   UNL     1       1.038  -1.156  -0.376  0.00  0.00    +0.193 C 
ATOM     10  N   UNL     1      -0.274  -0.509  -0.446  0.00  0.00    -0.314 N 
ATOM     11  C   UNL     1      -0.381   0.831  -0.431  0.00  0.00    +0.132 C 
ATOM     12  S   UNL     1      -1.933   1.549  -0.509  0.00  0.00    -0.019 S 
ATOM     13  N   UNL     1       0.707   1.619  -0.363  0.00  0.00    -0.314 N 
ATOM     14  C   UNL     1       2.048   1.036  -0.292  0.00  0.00    +0.193 C 
ATOM     15  H   UNL     1      -1.186  -1.121  -0.510  0.00  0.00    +0.149 HD
ATOM     16  H   UNL     1       0.581   2.712  -0.362  0.00  0.00    +0.149 HD
ENDBRANCH   7   8
ENDBRANCH   6   7
BRANCH   3  17
ATOM     17  C   UNL     1       7.022   0.166  -5.119  0.00  0.00    +0.174 C 
BRANCH  17  18
ATOM     18  N   UNL     1       8.323  -0.515  -5.137  0.00  0.00    -0.258 NA
ATOM     19  C   UNL     1       8.185  -1.925  -4.743  0.00  0.00    +0.193 C 
ATOM     20  N   UNL     1       9.503  -2.563  -4.765  0.00  0.00    -0.314 N 
ATOM     21  C   UNL     1      10.462  -2.129  -5.601  0.00  0.00    +0.132 C 
ATOM     22  S   UNL     1      11.986  -2.909  -5.607  0.00  0.00    -0.019 S 
ATOM     23  N   UNL     1      10.249  -1.095  -6.434  0.00  0.00    -0.314 N 
ATOM     24  C   UNL     1       8.954  -0.412  -6.462  0.00  0.00    +0.193 C 
ATOM     25  H   UNL     1       9.717  -3.407  -4.093  0.00  0.00    +0.149 HD
ATOM     26  H   UNL     1      11.060  -0.762  -7.098  0.00  0.00    +0.149 HD
ENDBRANCH  17  18
ENDBRANCH   3  17
TORSDOF 4
