REMARK  Name = ZINC37193426
REMARK  7 active torsions:
REMARK  status: ('A' for Active; 'I' for Inactive)
REMARK    1  A    between atoms: C_1  and  C_2
REMARK    2  A    between atoms: C_4  and  N_17
REMARK    3  A    between atoms: C_7  and  S_8
REMARK    4  A    between atoms: S_8  and  C_9
REMARK    5  A    between atoms: C_9  and  C_10
REMARK    6  A    between atoms: N_12  and  N_13
REMARK    7  A    between atoms: C_14  and  C_16
REMARK                            x       y       z     vdW  Elec       q    Type
REMARK                         _______ _______ _______ _____ _____    ______ ____
ROOT
ATOM      1  S   UNL     1       0.026   0.168   2.732  0.00  0.00    -0.116 S 
ENDROOT
BRANCH   1   8
ATOM      2  C   UNL     1      -0.018   1.503   0.010  0.00  0.00    +0.045 C 
ATOM      3  C   UNL     1       0.002  -0.004   0.002  0.00  0.00    -0.035 A 
ATOM      4  C   UNL     1       0.006  -0.688  -1.198  0.00  0.00    +0.027 A 
ATOM      5  C   UNL     1       0.024  -2.076  -1.205  0.00  0.00    +0.025 A 
ATOM      6  C   UNL     1       0.039  -2.778  -0.006  0.00  0.00    +0.024 A 
ATOM      7  C   UNL     1       0.035  -2.094   1.193  0.00  0.00    +0.017 A 
ATOM      8  C   UNL     1       0.023  -0.705   1.201  0.00  0.00    +0.011 A 
BRANCH   5   9
ATOM      9  N   UNL     1       0.027  -2.770  -2.422  0.00  0.00    -0.358 N 
ATOM     10  H   UNL     1       0.017  -2.280  -3.259  0.00  0.00    +0.142 HD
ATOM     11  H   UNL     1       0.040  -3.740  -2.427  0.00  0.00    +0.142 HD
ENDBRANCH   5   9
ENDBRANCH   1   8
BRANCH   1  12
ATOM     12  C   UNL     1       0.056  -1.144   3.985  0.00  0.00    +0.171 C 
BRANCH  12  13
ATOM     13  C   UNL     1       0.061  -0.526   5.359  0.00  0.00    +0.239 C 
ATOM     14  O   UNL     1       0.046   0.680   5.481  0.00  0.00    -0.273 OA
ATOM     15  N   UNL     1       0.082  -1.314   6.452  0.00  0.00    -0.234 N 
ATOM     16  H   UNL     1       0.094  -2.279   6.354  0.00  0.00    +0.173 HD
BRANCH  15  17
ATOM     17  N   UNL     1       0.087  -0.740   7.730  0.00  0.00    -0.235 N 
ATOM     18  C   UNL     1       0.108  -1.528   8.823  0.00  0.00    +0.226 C 
ATOM     19  O   UNL     1       0.122  -2.734   8.700  0.00  0.00    -0.275 OA
ATOM     20  C   UNL     1       0.113  -0.910  10.197  0.00  0.00    +0.110 C 
ATOM     21  H   UNL     1       0.075   0.225   7.828  0.00  0.00    +0.173 HD
ENDBRANCH  15  17
ENDBRANCH  12  13
ENDBRANCH   1  12
TORSDOF 5
