REMARK  Name = ZINC38054374
REMARK  4 active torsions:
REMARK  status: ('A' for Active; 'I' for Inactive)
REMARK    1  A    between atoms: C_1  and  C_2
REMARK    2  A    between atoms: C_4  and  C_14
REMARK    3  A    between atoms: C_7  and  N_8
REMARK    4  A    between atoms: N_15  and  O_16
REMARK                            x       y       z     vdW  Elec       q    Type
REMARK                         _______ _______ _______ _____ _____    ______ ____
ROOT
ATOM      1  C   UNL     1      -0.335   1.481   0.051  0.00  0.00    +0.046 C 
ATOM      2  C   UNL     1      -0.150  -0.015   0.022  0.00  0.00    -0.024 A 
ATOM      3  C   UNL     1      -0.251  -0.697  -1.171  0.00  0.00    +0.016 A 
ATOM      4  C   UNL     1      -0.079  -2.082  -1.198  0.00  0.00    +0.018 A 
ATOM      5  C   UNL     1       0.194  -2.771  -0.015  0.00  0.00    +0.013 A 
ATOM      6  C   UNL     1       0.293  -2.083   1.174  0.00  0.00    +0.029 A 
ATOM      7  C   UNL     1       0.128  -0.703   1.196  0.00  0.00    +0.068 A 
ENDROOT
BRANCH   7   8
ATOM      8  N   UNL     1       0.235  -0.006   2.406  0.00  0.00    -0.239 N 
ATOM      9  C   UNL     1      -0.350  -0.350   3.583  0.00  0.00    +0.129 A 
ATOM     10  C   UNL     1       0.002   0.579   4.502  0.00  0.00    +0.056 A 
ATOM     11  C   UNL     1       0.826   1.519   3.872  0.00  0.00    +0.150 A 
ATOM     12  N   UNL     1       0.971   1.167   2.620  0.00  0.00    -0.174 NA
ATOM     13 BR   UNL     1      -0.526   0.604   6.317  0.00  0.00    -0.047 Br
ENDBRANCH   7   8
BRANCH   4  14
ATOM     14  C   UNL     1      -0.188  -2.818  -2.477  0.00  0.00    +0.162 C 
ATOM     15  N   UNL     1      -0.443  -2.174  -3.578  0.00  0.00    -0.072 NA
ATOM     16  N   UNL     1      -0.017  -4.192  -2.502  0.00  0.00    -0.340 N 
ATOM     17  H   UNL     1       0.173  -4.672  -1.680  0.00  0.00    +0.144 HD
ATOM     18  H   UNL     1      -0.088  -4.675  -3.340  0.00  0.00    +0.144 HD
BRANCH  15  19
ATOM     19  O   UNL     1      -0.546  -2.878  -4.802  0.00  0.00    -0.408 OA
ATOM     20  H   UNL     1      -0.738  -2.316  -5.565  0.00  0.00    +0.328 HD
ENDBRANCH  15  19
ENDBRANCH   4  14
TORSDOF 3
