REMARK  Name = ZINC03232634
REMARK  5 active torsions:
REMARK  status: ('A' for Active; 'I' for Inactive)
REMARK    1  A    between atoms: C_11  and  S_13
REMARK    2  A    between atoms: S_13  and  C_14
REMARK    3  A    between atoms: C_14  and  C_15
REMARK    4  A    between atoms: N_17  and  C_18
REMARK    5  A    between atoms: C_22  and  C_24
REMARK                            x       y       z     vdW  Elec       q    Type
REMARK                         _______ _______ _______ _____ _____    ______ ____
ROOT
ATOM      1  C   UNL     1      -0.017   1.363   0.064  0.00  0.00    +0.001 A 
ATOM      2  C   UNL     1       1.170   2.086   0.056  0.00  0.00    +0.002 A 
ATOM      3  C   UNL     1       2.378   1.454   0.031  0.00  0.00    +0.028 A 
ATOM      4  C   UNL     1       2.433   0.053   0.014  0.00  0.00    +0.072 A 
ATOM      5  C   UNL     1       1.221  -0.676   0.023  0.00  0.00    +0.014 A 
ATOM      6  C   UNL     1       0.001  -0.004   0.048  0.00  0.00    +0.011 A 
ATOM      7  C   UNL     1       1.621  -2.090   0.001  0.00  0.00    +0.061 C 
ATOM      8  C   UNL     1       0.780  -3.219  -0.001  0.00  0.00    +0.218 C 
ATOM      9  N   UNL     1      -0.566  -3.208   0.013  0.00  0.00    -0.202 N 
ATOM     10  N   UNL     1      -0.983  -4.548   0.005  0.00  0.00    -0.135 NA
ATOM     11  C   UNL     1       0.084  -5.294  -0.012  0.00  0.00    +0.274 C 
ATOM     12  O   UNL     1       1.174  -4.503  -0.022  0.00  0.00    -0.415 OA
ATOM     13  C   UNL     1       3.026  -2.070  -0.019  0.00  0.00    +0.125 C 
ATOM     14  N   UNL     1       3.448  -0.828  -0.010  0.00  0.00    -0.254 NA
ATOM     15  H   UNL     1      -1.138  -2.425   0.025  0.00  0.00    +0.178 HD
ENDROOT
BRANCH  11  16
ATOM     16  S   UNL     1       0.100  -7.056  -0.028  0.00  0.00    -0.056 S 
BRANCH  16  17
ATOM     17  C   UNL     1      -1.656  -7.511  -0.015  0.00  0.00    +0.175 C 
BRANCH  17  18
ATOM     18  C   UNL     1      -1.787  -9.012  -0.027  0.00  0.00    +0.228 C 
ATOM     19  O   UNL     1      -0.793  -9.707  -0.043  0.00  0.00    -0.275 OA
ATOM     20  N   UNL     1      -3.008  -9.582  -0.021  0.00  0.00    -0.285 N 
ATOM     21  H   UNL     1      -3.801  -9.030   0.059  0.00  0.00    +0.155 HD
BRANCH  20  22
ATOM     22  C   UNL     1      -3.132 -10.972  -0.129  0.00  0.00    +0.035 A 
ATOM     23  C   UNL     1      -4.200 -11.522  -0.828  0.00  0.00    +0.023 A 
ATOM     24  C   UNL     1      -4.327 -12.894  -0.938  0.00  0.00    +0.003 A 
ATOM     25  C   UNL     1      -3.394 -13.727  -0.355  0.00  0.00    +0.019 A 
ATOM     26  C   UNL     1      -2.316 -13.185   0.348  0.00  0.00    +0.054 A 
ATOM     27  C   UNL     1      -2.186 -11.800   0.455  0.00  0.00    +0.042 A 
BRANCH  26  28
ATOM     28  C   UNL     1      -1.346 -14.047   0.953  0.00  0.00    +0.099 C 
ATOM     29  N   UNL     1      -0.576 -14.731   1.433  0.00  0.00    -0.191 NA
ENDBRANCH  26  28
ENDBRANCH  20  22
ENDBRANCH  17  18
ENDBRANCH  16  17
ENDBRANCH  11  16
TORSDOF 5
