REMARK  Name = ZINC66872575
REMARK  7 active torsions:
REMARK  status: ('A' for Active; 'I' for Inactive)
REMARK    1  A    between atoms: C_4  and  C_7
REMARK    2  A    between atoms: C_7  and  N_8
REMARK    3  A    between atoms: C_9  and  C_11
REMARK    4  A    between atoms: C_11  and  C_12
REMARK    5  A    between atoms: C_12  and  N_13
REMARK    6  A    between atoms: C_16  and  N_19
REMARK    7  A    between atoms: N_22  and  C_23
REMARK                            x       y       z     vdW  Elec       q    Type
REMARK                         _______ _______ _______ _____ _____    ______ ____
ROOT
ATOM      1  N   UNL     1       4.568  -6.036  -4.644  0.00  0.00    +0.380 N 
ATOM      2  C   UNL     1       3.232  -6.642  -4.685  0.00  0.00    -0.077 C 
ATOM      3  C   UNL     1       3.353  -8.162  -4.552  0.00  0.00    +0.004 C 
ATOM      4  C   UNL     1       4.197  -8.705  -5.709  0.00  0.00    +0.071 C 
ATOM      5  C   UNL     1       5.562  -8.011  -5.701  0.00  0.00    +0.004 C 
ATOM      6  C   UNL     1       5.359  -6.497  -5.792  0.00  0.00    -0.077 C 
ATOM      7  H   UNL     1       5.031  -6.304  -3.789  0.00  0.00    -0.082 HD
ENDROOT
BRANCH   4   8
ATOM      8  N   UNL     1       4.380 -10.149  -5.546  0.00  0.00    -0.297 N 
ATOM      9  C   UNL     1       4.625 -10.923  -6.622  0.00  0.00    +0.300 C 
ATOM     10  O   UNL     1       4.694 -10.422  -7.728  0.00  0.00    -0.253 OA
ATOM     11  N   UNL     1       4.794 -12.252  -6.472  0.00  0.00    -0.297 N 
ATOM     12  H   UNL     1       4.325 -10.549  -4.663  0.00  0.00    +0.151 HD
ATOM     13  H   UNL     1       4.739 -12.651  -5.589  0.00  0.00    +0.151 HD
BRANCH  11  14
ATOM     14  C   UNL     1       5.061 -13.093  -7.641  0.00  0.00    +0.074 C 
ATOM     15  C   UNL     1       3.737 -13.484  -8.301  0.00  0.00    +0.022 C 
ATOM     16  C   UNL     1       4.015 -14.362  -9.522  0.00  0.00    +0.002 C 
ATOM     17  C   UNL     1       4.759 -15.625  -9.083  0.00  0.00    +0.000 C 
ATOM     18  C   UNL     1       6.083 -15.234  -8.424  0.00  0.00    +0.002 C 
ATOM     19  C   UNL     1       5.804 -14.356  -7.202  0.00  0.00    +0.022 C 
ENDBRANCH  11  14
ENDBRANCH   4   8
BRANCH   1  20
ATOM     20  C   UNL     1       4.442  -4.574  -4.694  0.00  0.00    -0.070 C 
BRANCH  20  21
ATOM     21  C   UNL     1       3.726  -4.080  -3.435  0.00  0.00    +0.077 C 
BRANCH  21  23
ATOM     22  N   UNL     1       2.995  -1.920  -2.477  0.00  0.00    -0.315 N 
ATOM     23  C   UNL     1       3.597  -2.579  -3.486  0.00  0.00    +0.211 C 
ATOM     24  O   UNL     1       4.035  -1.965  -4.436  0.00  0.00    -0.276 OA
ATOM     25  H   UNL     1       2.645  -2.411  -1.717  0.00  0.00    +0.149 HD
BRANCH  22  26
ATOM     26  C   UNL     1       2.870  -0.461  -2.526  0.00  0.00    +0.107 C 
BRANCH  26  30
ATOM     27  C   UNL     1      -0.019   1.526   0.010  0.00  0.00    +0.000 C 
ATOM     28  C   UNL     1       1.417   2.055  -0.000  0.00  0.00    +0.000 C 
ATOM     29  C   UNL     1       2.133   1.562  -1.259  0.00  0.00    +0.005 C 
ATOM     30  C   UNL     1       2.154   0.032  -1.268  0.00  0.00    +0.006 C 
ATOM     31  C   UNL     1       0.718  -0.497  -1.257  0.00  0.00    +0.005 C 
ATOM     32  C   UNL     1       0.002  -0.004   0.002  0.00  0.00    +0.000 C 
ENDBRANCH  26  30
ENDBRANCH  22  26
ENDBRANCH  21  23
ENDBRANCH  20  21
ENDBRANCH   1  20
TORSDOF 7
