REMARK  Name = ZINC37053663
REMARK  6 active torsions:
REMARK  status: ('A' for Active; 'I' for Inactive)
REMARK    1  A    between atoms: C_1  and  C_2
REMARK    2  A    between atoms: C_4  and  N_18
REMARK    3  A    between atoms: C_6  and  S_8
REMARK    4  A    between atoms: S_8  and  N_11
REMARK    5  A    between atoms: N_11  and  C_12
REMARK    6  A    between atoms: C_14  and  C_17
REMARK                            x       y       z     vdW  Elec       q    Type
REMARK                         _______ _______ _______ _____ _____    ______ ____
ROOT
ATOM      1  C   UNL     1      -0.018   1.503   0.010  0.00  0.00    +0.044 C 
ATOM      2  C   UNL     1       0.002  -0.004   0.002  0.00  0.00    -0.047 A 
ATOM      3  C   UNL     1       0.006  -0.687  -1.198  0.00  0.00    +0.026 A 
ATOM      4  C   UNL     1       0.025  -2.076  -1.205  0.00  0.00    +0.027 A 
ATOM      5  C   UNL     1       0.041  -2.773  -0.004  0.00  0.00    +0.051 A 
ATOM      6  C   UNL     1       0.037  -2.084   1.193  0.00  0.00    +0.112 A 
ATOM      7  C   UNL     1       0.023  -0.701   1.196  0.00  0.00    +0.032 A 
ENDROOT
BRANCH   6   8
ATOM      8  S   UNL     1       0.056  -2.967   2.717  0.00  0.00    +0.094 S 
ATOM      9  O   UNL     1      -0.502  -2.101   3.696  0.00  0.00    -0.148 OA
ATOM     10  O   UNL     1      -0.479  -4.256   2.447  0.00  0.00    -0.148 OA
BRANCH   8  11
ATOM     11  N   UNL     1       1.643  -3.191   3.134  0.00  0.00    -0.057 NA
BRANCH  11  12
ATOM     12  C   UNL     1       1.964  -3.863   4.299  0.00  0.00    +0.259 A 
ATOM     13  C   UNL     1       3.218  -4.111   4.761  0.00  0.00    +0.095 A 
ATOM     14  C   UNL     1       3.104  -4.813   5.968  0.00  0.00    +0.083 A 
ATOM     15  N   UNL     1       1.836  -4.982   6.224  0.00  0.00    -0.081 NA
ATOM     16  O   UNL     1       1.092  -4.382   5.179  0.00  0.00    -0.336 OA
ATOM     17  C   UNL     1       4.249  -5.291   6.823  0.00  0.00    +0.069 C 
ENDBRANCH  11  12
ENDBRANCH   8  11
ENDBRANCH   6   8
BRANCH   4  18
ATOM     18  N   UNL     1       0.028  -2.770  -2.417  0.00  0.00    -0.358 N 
ATOM     19  H   UNL     1       0.017  -2.282  -3.256  0.00  0.00    +0.142 HD
ATOM     20  H   UNL     1       0.042  -3.740  -2.421  0.00  0.00    +0.142 HD
ENDBRANCH   4  18
TORSDOF 4
