REMARK  Name = ZINC59816634
REMARK  7 active torsions:
REMARK  status: ('A' for Active; 'I' for Inactive)
REMARK    1  A    between atoms: C_4  and  C_7
REMARK    2  A    between atoms: N_9  and  N_10
REMARK    3  A    between atoms: C_11  and  C_13
REMARK    4  A    between atoms: C_13  and  S_14
REMARK    5  A    between atoms: S_14  and  C_15
REMARK    6  A    between atoms: N_20  and  N_21
REMARK    7  A    between atoms: C_22  and  C_23
REMARK                            x       y       z     vdW  Elec       q    Type
REMARK                         _______ _______ _______ _____ _____    ______ ____
ROOT
ATOM      1  C   UNL     1       7.592  -7.287  -0.169  0.00  0.00    +0.211 A 
ATOM      2  N   UNL     1       7.868  -8.595  -0.172  0.00  0.00    -0.186 NA
ATOM      3  C   UNL     1       9.172  -8.772  -0.169  0.00  0.00    +0.232 A 
ATOM      4  N   UNL     1       9.758  -7.556  -0.164  0.00  0.00    -0.245 N 
ATOM      5  N   UNL     1       8.718  -6.614  -0.169  0.00  0.00    -0.144 NA
ATOM      6  N   UNL     1       9.828  -9.991  -0.170  0.00  0.00    -0.205 N 
ATOM      7  H   UNL     1      10.797 -10.020  -0.168  0.00  0.00    +0.177 HD
ATOM      8  H   UNL     1      10.710  -7.370  -0.161  0.00  0.00    +0.192 HD
ENDROOT
BRANCH   6   9
ATOM      9  N   UNL     1       9.091 -11.182  -0.175  0.00  0.00    -0.188 NA
ATOM     10  C   UNL     1       9.697 -12.310  -0.176  0.00  0.00    +0.139 C 
BRANCH  10  11
ATOM     11  C   UNL     1       8.922 -13.563  -0.182  0.00  0.00    +0.002 A 
ATOM     12  C   UNL     1       9.614 -14.858  -0.310  0.00  0.00    +0.010 A 
ATOM     13  C   UNL     1       8.931 -15.985  -0.316  0.00  0.00    +0.009 A 
ATOM     14  C   UNL     1       7.464 -15.949  -0.192  0.00  0.00    -0.017 A 
ATOM     15  C   UNL     1       6.672 -17.191  -0.194  0.00  0.00    +0.009 A 
ATOM     16  C   UNL     1       5.358 -17.138  -0.082  0.00  0.00    +0.009 A 
ATOM     17  C   UNL     1       4.680 -15.837   0.047  0.00  0.00    -0.017 A 
ATOM     18  C   UNL     1       3.215 -15.754   0.174  0.00  0.00    +0.008 A 
ATOM     19  C   UNL     1       2.635 -14.577   0.288  0.00  0.00    +0.001 A 
ATOM     20  C   UNL     1       3.439 -13.342   0.289  0.00  0.00    +0.008 A 
ATOM     21  C   UNL     1       4.748 -13.412   0.175  0.00  0.00    -0.017 A 
ATOM     22  C   UNL     1       5.389 -14.733   0.048  0.00  0.00    -0.002 A 
ATOM     23  C   UNL     1       6.855 -14.793  -0.077  0.00  0.00    -0.002 A 
ATOM     24  C   UNL     1       7.613 -13.528  -0.066  0.00  0.00    -0.008 A 
ATOM     25  C   UNL     1       6.890 -12.255   0.070  0.00  0.00    +0.010 A 
ATOM     26  C   UNL     1       5.582 -12.202   0.172  0.00  0.00    +0.009 A 
ENDBRANCH  10  11
ENDBRANCH   6   9
BRANCH   1  27
ATOM     27  S   UNL     1       5.977  -6.581  -0.172  0.00  0.00    -0.075 S 
BRANCH  27  28
ATOM     28  C   UNL     1       6.280  -4.792  -0.174  0.00  0.00    +0.174 C 
BRANCH  28  30
ATOM     29  N   UNL     1       4.941  -2.712  -0.179  0.00  0.00    -0.233 N 
ATOM     30  C   UNL     1       4.963  -4.060  -0.177  0.00  0.00    +0.239 C 
ATOM     31  O   UNL     1       3.923  -4.683  -0.177  0.00  0.00    -0.273 OA
ATOM     32  H   UNL     1       5.774  -2.214  -0.179  0.00  0.00    +0.173 HD
BRANCH  29  35
ATOM     33  C   UNL     1       3.695  -0.684  -0.184  0.00  0.00    +0.260 C 
ATOM     34  O   UNL     1       4.738  -0.059  -0.183  0.00  0.00    -0.269 OA
ATOM     35  N   UNL     1       3.717  -2.031  -0.182  0.00  0.00    -0.230 N 
ATOM     36  H   UNL     1       2.885  -2.530  -0.182  0.00  0.00    +0.173 HD
BRANCH  33  40
ATOM     37  C   UNL     1      -0.017   1.380  -0.192  0.00  0.00    +0.000 A 
ATOM     38  C   UNL     1       1.168   2.094  -0.192  0.00  0.00    +0.001 A 
ATOM     39  C   UNL     1       2.377   1.430  -0.189  0.00  0.00    +0.013 A 
ATOM     40  C   UNL     1       2.403   0.035  -0.186  0.00  0.00    +0.038 A 
ATOM     41  C   UNL     1       1.204  -0.680  -0.187  0.00  0.00    +0.013 A 
ATOM     42  C   UNL     1       0.002  -0.003  -0.190  0.00  0.00    +0.001 A 
ENDBRANCH  33  40
ENDBRANCH  29  35
ENDBRANCH  28  30
ENDBRANCH  27  28
ENDBRANCH   1  27
TORSDOF 7
