REMARK  Name = ZINC28813086
REMARK  5 active torsions:
REMARK  status: ('A' for Active; 'I' for Inactive)
REMARK    1  A    between atoms: C_3  and  C_6
REMARK    2  A    between atoms: N_12  and  C_13
REMARK    3  A    between atoms: C_13  and  C_14
REMARK    4  A    between atoms: N_16  and  C_17
REMARK    5  A    between atoms: C_20  and  N_24
REMARK                            x       y       z     vdW  Elec       q    Type
REMARK                         _______ _______ _______ _____ _____    ______ ____
ROOT
ATOM      1  C   UNL     1      -1.260   3.411   0.128  0.00  0.00    +0.237 C 
ATOM      2  O   UNL     1      -0.220   4.036   0.127  0.00  0.00    -0.274 OA
ATOM      3  N   UNL     1      -1.240   2.068   0.019  0.00  0.00    -0.284 N 
ATOM      4  H   UNL     1      -2.184   1.508  -0.056  0.00  0.00    +0.155 HD
ENDROOT
BRANCH   3   5
ATOM      5  C   UNL     1      -0.017   1.385   0.002  0.00  0.00    +0.036 A 
ATOM      6  C   UNL     1       1.089   1.956  -0.615  0.00  0.00    +0.045 A 
ATOM      7  C   UNL     1       2.294   1.280  -0.638  0.00  0.00    +0.065 A 
ATOM      8  C   UNL     1       2.399   0.029  -0.043  0.00  0.00    +0.062 A 
ATOM      9  C   UNL     1       1.293  -0.542   0.575  0.00  0.00    +0.065 A 
ATOM     10  C   UNL     1       0.089   0.135   0.597  0.00  0.00    +0.045 A 
ATOM     11 CL   UNL     1       1.425  -2.105   1.318  0.00  0.00    -0.082 Cl
ATOM     12 CL   UNL     1       3.675   1.994  -1.409  0.00  0.00    -0.082 Cl
BRANCH   8  13
ATOM     13  N   UNL     1       3.620  -0.657  -0.065  0.00  0.00    -0.356 N 
ATOM     14  H   UNL     1       3.704  -1.647   0.406  0.00  0.00    +0.142 HD
ATOM     15  H   UNL     1       4.496  -0.204  -0.554  0.00  0.00    +0.142 HD
ENDBRANCH   8  13
ENDBRANCH   3   5
BRANCH   1  16
ATOM     16  C   UNL     1      -2.575   4.138   0.252  0.00  0.00    +0.221 C 
BRANCH  16  23
ATOM     17  C   UNL     1      -2.249   6.464  -0.702  0.00  0.00    +0.170 A 
ATOM     18  N   UNL     1      -2.020   7.658  -0.225  0.00  0.00    -0.153 NA
ATOM     19  N   UNL     1      -1.948   7.561   1.171  0.00  0.00    -0.254 N 
ATOM     20  H   UNL     1      -1.757   8.459   1.776  0.00  0.00    +0.191 HD
ATOM     21  C   UNL     1      -2.148   6.268   1.500  0.00  0.00    +0.176 A 
ATOM     22  S   UNL     1      -2.165   5.619   3.084  0.00  0.00    -0.011 S 
ATOM     23  N   UNL     1      -2.329   5.578   0.356  0.00  0.00    -0.294 N 
BRANCH  17  26
ATOM     24  C   UNL     1      -2.713   6.392  -4.453  0.00  0.00    +0.008 A 
ATOM     25  C   UNL     1      -2.606   6.949  -3.199  0.00  0.00    +0.019 A 
ATOM     26  C   UNL     1      -2.396   6.120  -2.127  0.00  0.00    +0.056 A 
ATOM     27  S   UNL     1      -2.340   4.515  -2.908  0.00  0.00    -0.094 S 
ATOM     28  C   UNL     1      -2.607   5.045  -4.591  0.00  0.00    +0.046 A 
ENDBRANCH  17  26
ENDBRANCH  16  23
ENDBRANCH   1  16
TORSDOF 5
