REMARK  Name = ZINC14806731
REMARK  7 active torsions:
REMARK  status: ('A' for Active; 'I' for Inactive)
REMARK    1  A    between atoms: C_1  and  C_2
REMARK    2  A    between atoms: C_2  and  C_31
REMARK    3  A    between atoms: C_5  and  O_30
REMARK    4  A    between atoms: C_7  and  C_28
REMARK    5  A    between atoms: C_11  and  O_27
REMARK    6  A    between atoms: C_20  and  O_22
REMARK    7  A    between atoms: C_28  and  O_29
REMARK                            x       y       z     vdW  Elec       q    Type
REMARK                         _______ _______ _______ _____ _____    ______ ____
ROOT
ATOM      1  C   UNL     1      -1.361   1.719   1.621  0.00  0.00    +0.011 C 
ATOM      2  C   UNL     1      -1.154   3.167   1.189  0.00  0.00    -0.031 C 
ATOM      3  C   UNL     1      -1.484   3.332  -0.296  0.00  0.00    +0.009 C 
ATOM      4  C   UNL     1      -0.345   2.852  -1.180  0.00  0.00    +0.032 C 
ATOM      5  C   UNL     1       0.959   3.567  -0.825  0.00  0.00    +0.123 C 
ATOM      6  C   UNL     1       1.368   3.231   0.621  0.00  0.00    +0.027 C 
ATOM      7  C   UNL     1       0.221   3.701   1.515  0.00  0.00    +0.008 C 
ATOM      8  C   UNL     1       0.578   3.543   2.992  0.00  0.00    +0.037 C 
ATOM      9  C   UNL     1       1.688   4.579   3.258  0.00  0.00    +0.131 C 
ATOM     10  C   UNL     1       2.912   4.152   2.476  0.00  0.00    +0.089 C 
ATOM     11  C   UNL     1       2.634   3.996   0.985  0.00  0.00    +0.019 C 
ATOM     12  C   UNL     1       3.887   3.579   0.240  0.00  0.00    +0.006 C 
ATOM     13  C   UNL     1       4.777   2.580   0.963  0.00  0.00    +0.011 C 
ATOM     14  C   UNL     1       4.960   2.962   2.434  0.00  0.00    +0.051 C 
ATOM     15  C   UNL     1       3.538   2.875   3.068  0.00  0.00    +0.138 C 
ATOM     16  C   UNL     1       5.296   4.440   2.536  0.00  0.00    -0.006 C 
ATOM     17  C   UNL     1       6.522   4.970   2.559  0.00  0.00    +0.016 C 
ATOM     18  C   UNL     1       4.028   5.181   2.606  0.00  0.00    +0.170 C 
ATOM     19  O   UNL     1       3.879   6.376   2.738  0.00  0.00    -0.292 OA
ATOM     20  C   UNL     1      -2.199   4.022   1.952  0.00  0.00    +0.011 C 
ENDROOT
BRANCH  15  21
ATOM     21  O   UNL     1       3.643   2.924   4.497  0.00  0.00    -0.390 OA
ATOM     22  H   UNL     1       4.034   2.132   4.890  0.00  0.00    +0.210 HD
ENDBRANCH  15  21
BRANCH   9  23
ATOM     23  O   UNL     1       1.950   4.678   4.650  0.00  0.00    -0.391 OA
ATOM     24  H   UNL     1       1.186   4.950   5.176  0.00  0.00    +0.210 HD
ENDBRANCH   9  23
BRANCH   5  25
ATOM     25  O   UNL     1       1.954   3.153  -1.757  0.00  0.00    -0.391 OA
ATOM     26  H   UNL     1       1.734   3.347  -2.679  0.00  0.00    +0.210 HD
ENDBRANCH   5  25
BRANCH   6  27
ATOM     27  C   UNL     1       1.613   1.729   0.715  0.00  0.00    +0.165 C 
BRANCH  27  28
ATOM     28  O   UNL     1       2.652   1.357  -0.193  0.00  0.00    -0.394 OA
ATOM     29  H   UNL     1       2.861   0.413  -0.187  0.00  0.00    +0.209 HD
ENDBRANCH  27  28
ENDBRANCH   6  27
TORSDOF 5
