REMARK  Name = ZINC49065577
REMARK  5 active torsions:
REMARK  status: ('A' for Active; 'I' for Inactive)
REMARK    1  A    between atoms: C_3  and  S_17
REMARK    2  A    between atoms: C_5  and  C_6
REMARK    3  A    between atoms: C_6  and  N_7
REMARK    4  A    between atoms: N_7  and  C_8
REMARK    5  A    between atoms: S_17  and  N_20
REMARK                            x       y       z     vdW  Elec       q    Type
REMARK                         _______ _______ _______ _____ _____    ______ ____
ROOT
ATOM      1  C   UNL     1      -1.155  -0.969   0.008  0.00  0.00    +0.144 C 
ENDROOT
BRANCH   1   6
ATOM      2  C   UNL     1      -0.016   1.351   0.009  0.00  0.00    +0.015 A 
ATOM      3  C   UNL     1       1.183   2.038   0.002  0.00  0.00    +0.036 A 
ATOM      4  C   UNL     1       2.343   1.336  -0.013  0.00  0.00    +0.142 A 
ATOM      5  S   UNL     1       1.754  -0.349  -0.017  0.00  0.00    -0.072 S 
ATOM      6  C   UNL     1       0.002  -0.004   0.002  0.00  0.00    +0.009 A 
BRANCH   4   7
ATOM      7  S   UNL     1       4.001   1.932  -0.026  0.00  0.00    +0.062 S 
ATOM      8  O   UNL     1       4.799   0.900  -0.590  0.00  0.00    -0.153 OA
ATOM      9  O   UNL     1       3.957   3.244  -0.570  0.00  0.00    -0.153 OA
BRANCH   7  10
ATOM     10  N   UNL     1       4.477   2.089   1.552  0.00  0.00    -0.203 NA
ATOM     11  H   UNL     1       5.410   1.976   1.790  0.00  0.00    +0.144 HD
ATOM     12  H   UNL     1       3.822   2.295   2.238  0.00  0.00    +0.144 HD
ENDBRANCH   7  10
ENDBRANCH   4   7
ENDBRANCH   1   6
BRANCH   1  13
ATOM     13  N   UNL     1      -1.544  -1.274  -1.371  0.00  0.00    -0.337 N 
ATOM     14  H   UNL     1      -1.067  -0.867  -2.111  0.00  0.00    +0.147 HD
BRANCH  13  15
ATOM     15  C   UNL     1      -2.593  -2.144  -1.618  0.00  0.00    +0.071 A 
ATOM     16  C   UNL     1      -3.295  -2.736  -0.546  0.00  0.00    +0.157 A 
ATOM     17  N   UNL     1      -4.282  -3.556  -0.777  0.00  0.00    -0.177 NA
ATOM     18  N   UNL     1      -4.669  -3.869  -2.084  0.00  0.00    -0.242 N 
ATOM     19  H   UNL     1      -5.407  -4.481  -2.233  0.00  0.00    +0.192 HD
ATOM     20  C   UNL     1      -4.027  -3.327  -3.137  0.00  0.00    +0.285 A 
ATOM     21  O   UNL     1      -4.371  -3.604  -4.276  0.00  0.00    -0.265 OA
ATOM     22  C   UNL     1      -2.965  -2.437  -2.918  0.00  0.00    +0.129 A 
ATOM     23 CL   UNL     1      -2.126  -1.719  -4.257  0.00  0.00    -0.076 Cl
ENDBRANCH  13  15
ENDBRANCH   1  13
TORSDOF 5
