REMARK  Name = ZINC32986122
REMARK  6 active torsions:
REMARK  status: ('A' for Active; 'I' for Inactive)
REMARK    1  A    between atoms: C_1  and  C_2
REMARK    2  A    between atoms: C_2  and  C_3
REMARK    3  A    between atoms: C_3  and  C_27
REMARK    4  A    between atoms: N_6  and  C_10
REMARK    5  A    between atoms: C_10  and  C_11
REMARK    6  A    between atoms: C_15  and  C_24
REMARK                            x       y       z     vdW  Elec       q    Type
REMARK                         _______ _______ _______ _____ _____    ______ ____
ROOT
ATOM      1  C   UNL     1       3.412  -0.651   0.940  0.00  0.00    +0.238 C 
ATOM      2  O   UNL     1       3.351  -1.777   1.387  0.00  0.00    -0.274 OA
ATOM      3  N   UNL     1       2.289   0.082   0.805  0.00  0.00    -0.263 N 
ATOM      4  C   UNL     1       2.345   1.493   0.385  0.00  0.00    +0.168 C 
ATOM      5  C   UNL     1       1.345   2.274   1.250  0.00  0.00    +0.276 C 
ATOM      6  O   UNL     1       0.044   1.710   1.073  0.00  0.00    -0.476 OA
ATOM      7  C   UNL     1      -0.084   0.362   1.192  0.00  0.00    +0.143 A 
ATOM      8  C   UNL     1       1.023  -0.473   1.060  0.00  0.00    +0.078 A 
ATOM      9  C   UNL     1       0.878  -1.846   1.179  0.00  0.00    +0.027 A 
ATOM     10  C   UNL     1      -0.369  -2.387   1.433  0.00  0.00    +0.002 A 
ATOM     11  C   UNL     1      -1.469  -1.560   1.567  0.00  0.00    +0.004 A 
ATOM     12  C   UNL     1      -1.330  -0.190   1.447  0.00  0.00    +0.047 A 
ENDROOT
BRANCH   5  13
ATOM     13  C   UNL     1       1.331   3.719   0.824  0.00  0.00    +0.253 C 
ATOM     14  O   UNL     1       0.333   4.195   0.325  0.00  0.00    -0.272 OA
ATOM     15  N   UNL     1       2.427   4.484   0.998  0.00  0.00    -0.326 N 
ATOM     16  H   UNL     1       2.417   5.539   0.687  0.00  0.00    +0.145 HD
ATOM     17  H   UNL     1       3.332   4.053   1.451  0.00  0.00    +0.145 HD
ENDBRANCH   5  13
BRANCH   1  18
ATOM     18  C   UNL     1       4.743  -0.072   0.534  0.00  0.00    +0.214 C 
BRANCH  18  22
ATOM     19  C   UNL     1       7.440  -2.459   1.441  0.00  0.00    +0.110 C 
ATOM     20  C   UNL     1       6.504  -1.314   1.774  0.00  0.00    +0.247 C 
ATOM     21  O   UNL     1       6.424  -0.716   2.825  0.00  0.00    -0.273 OA
ATOM     22  N   UNL     1       5.780  -1.099   0.657  0.00  0.00    -0.215 N 
ATOM     23  C   UNL     1       6.129  -1.936  -0.326  0.00  0.00    +0.310 C 
ATOM     24  O   UNL     1       5.619  -1.932  -1.429  0.00  0.00    -0.252 OA
ATOM     25  N   UNL     1       7.108  -2.783   0.043  0.00  0.00    -0.285 N 
ATOM     26  C   UNL     1       7.175  -3.662   2.349  0.00  0.00    +0.041 C 
ATOM     27  H   UNL     1       7.643  -3.591  -0.477  0.00  0.00    +0.151 HD
BRANCH  19  29
ATOM     28  C   UNL     1       9.814  -3.098   0.995  0.00  0.00    +0.006 C 
ATOM     29  C   UNL     1       8.898  -2.010   1.558  0.00  0.00    +0.031 C 
ENDBRANCH  19  29
ENDBRANCH  18  22
ENDBRANCH   1  18
TORSDOF 4
