REMARK  Name = ZINC20681416
REMARK  8 active torsions:
REMARK  status: ('A' for Active; 'I' for Inactive)
REMARK    1  A    between atoms: C_4  and  C_7
REMARK    2  A    between atoms: C_7  and  C_8
REMARK    3  A    between atoms: C_8  and  N_9
REMARK    4  A    between atoms: N_9  and  S_10
REMARK    5  A    between atoms: S_10  and  C_13
REMARK    6  A    between atoms: C_26  and  C_29
REMARK    7  A    between atoms: C_32  and  O_36
REMARK    8  A    between atoms: C_34  and  O_35
REMARK                            x       y       z     vdW  Elec       q    Type
REMARK                         _______ _______ _______ _____ _____    ______ ____
ROOT
ATOM      1  C   UNL     1      -1.318   1.970   0.333  0.00  0.00    +0.106 A 
ATOM      2  C   UNL     1       0.065   1.991   0.348  0.00  0.00    +0.030 A 
ATOM      3  C   UNL     1       0.768   0.806   0.264  0.00  0.00    +0.025 A 
ATOM      4  C   UNL     1       0.087  -0.401   0.163  0.00  0.00    +0.031 A 
ATOM      5  C   UNL     1      -1.299  -0.426   0.147  0.00  0.00    -0.018 A 
ATOM      6  C   UNL     1      -1.995   0.772   0.233  0.00  0.00    +0.034 A 
ATOM      7  C   UNL     1      -2.075  -1.701   0.042  0.00  0.00    +0.049 C 
ATOM      8  C   UNL     1      -2.660  -1.879  -1.339  0.00  0.00    -0.023 C 
ATOM      9  C   UNL     1      -2.635  -3.143  -1.683  0.00  0.00    -0.030 C 
ATOM     10  C   UNL     1      -2.034  -3.984  -0.573  0.00  0.00    +0.033 C 
ATOM     11  C   UNL     1      -1.204  -2.955   0.249  0.00  0.00    +0.029 C 
ATOM     12  C   UNL     1       0.141  -2.780  -0.462  0.00  0.00    +0.108 C 
ATOM     13  N   UNL     1       0.813  -1.593   0.075  0.00  0.00    -0.336 N 
ATOM     14  H   UNL     1       1.863  -1.655   0.398  0.00  0.00    +0.147 HD
ENDROOT
BRANCH  12  15
ATOM     15  C   UNL     1      -0.090  -2.603  -1.941  0.00  0.00    +0.015 A 
ATOM     16  C   UNL     1      -0.377  -1.350  -2.450  0.00  0.00    +0.012 A 
ATOM     17  C   UNL     1      -0.589  -1.185  -3.805  0.00  0.00    +0.046 A 
ATOM     18  C   UNL     1      -0.514  -2.276  -4.659  0.00  0.00    +0.120 A 
ATOM     19  C   UNL     1      -0.227  -3.534  -4.151  0.00  0.00    +0.091 A 
ATOM     20  C   UNL     1      -0.010  -3.697  -2.791  0.00  0.00    +0.125 A 
BRANCH  20  21
ATOM     21  O   UNL     1       0.277  -4.927  -2.291  0.00  0.00    -0.506 OA
ATOM     22  H   UNL     1       0.341  -5.794  -2.966  0.00  0.00    +0.292 HD
ENDBRANCH  20  21
BRANCH  18  23
ATOM     23  O   UNL     1      -0.723  -2.112  -5.991  0.00  0.00    -0.507 OA
ATOM     24  H   UNL     1      -0.664  -2.978  -6.668  0.00  0.00    +0.292 HD
ENDBRANCH  18  23
ENDBRANCH  12  15
BRANCH   1  25
ATOM     25  S   UNL     1      -2.219   3.481   0.440  0.00  0.00    +0.058 S 
ATOM     26  O   UNL     1      -1.351   4.505  -0.024  0.00  0.00    -0.153 OA
ATOM     27  O   UNL     1      -3.491   3.237  -0.144  0.00  0.00    -0.153 OA
BRANCH  25  28
ATOM     28  N   UNL     1      -2.486   3.778   2.047  0.00  0.00    -0.190 NA
ATOM     29  H   UNL     1      -3.490   3.612   2.465  0.00  0.00    +0.148 HD
BRANCH  28  30
ATOM     30  C   UNL     1      -1.356   4.044   2.941  0.00  0.00    +0.110 C 
BRANCH  30  31
ATOM     31  C   UNL     1      -1.871   4.644   4.250  0.00  0.00    +0.052 C 
BRANCH  31  35
ATOM     32  C   UNL     1       1.424   5.420   6.856  0.00  0.00    +0.000 A 
ATOM     33  C   UNL     1       0.998   6.393   5.971  0.00  0.00    +0.000 A 
ATOM     34  C   UNL     1      -0.068   6.142   5.128  0.00  0.00    +0.003 A 
ATOM     35  C   UNL     1      -0.708   4.918   5.169  0.00  0.00    -0.046 A 
ATOM     36  C   UNL     1      -0.285   3.946   6.057  0.00  0.00    +0.003 A 
ATOM     37  C   UNL     1       0.784   4.195   6.897  0.00  0.00    +0.000 A 
ENDBRANCH  31  35
ENDBRANCH  30  31
ENDBRANCH  28  30
ENDBRANCH  25  28
ENDBRANCH   1  25
TORSDOF 8
