REMARK  Name = ZINC13452188
REMARK  7 active torsions:
REMARK  status: ('A' for Active; 'I' for Inactive)
REMARK    1  A    between atoms: C_1  and  C_2
REMARK    2  A    between atoms: C_8  and  C_10
REMARK    3  A    between atoms: C_10  and  N_59
REMARK    4  A    between atoms: N_13  and  C_16
REMARK    5  A    between atoms: C_19  and  S_24
REMARK    6  A    between atoms: C_21  and  C_22
REMARK    7  A    between atoms: S_24  and  N_27
REMARK                            x       y       z     vdW  Elec       q    Type
REMARK                         _______ _______ _______ _____ _____    ______ ____
ROOT
ATOM      1  C   UNL     1      -3.842  -2.184  -1.250  0.00  0.00    -0.059 C 
ATOM      2  C   UNL     1      -3.882  -3.713  -1.186  0.00  0.00    +0.086 C 
ATOM      3  N   UNL     1      -5.262  -4.155  -0.945  0.00  0.00    -0.333 N 
ATOM      4  C   UNL     1      -5.777  -3.601   0.315  0.00  0.00    +0.086 C 
ATOM      5  C   UNL     1      -5.737  -2.073   0.252  0.00  0.00    -0.059 C 
ATOM      6  N   UNL     1      -4.341  -1.641   0.031  0.00  0.00    +0.387 N 
ATOM      7  H   UNL     1      -3.756  -1.999   0.795  0.00  0.00    -0.081 HD
ENDROOT
BRANCH   3   8
ATOM      8  C   UNL     1      -5.350  -5.540  -0.952  0.00  0.00    +0.044 A 
ATOM      9  C   UNL     1      -4.682  -6.288   0.010  0.00  0.00    +0.026 A 
ATOM     10  C   UNL     1      -4.771  -7.664   0.001  0.00  0.00    +0.030 A 
ATOM     11  C   UNL     1      -5.524  -8.313  -0.965  0.00  0.00    +0.106 A 
ATOM     12  C   UNL     1      -6.192  -7.590  -1.928  0.00  0.00    +0.045 A 
ATOM     13  C   UNL     1      -6.118  -6.194  -1.929  0.00  0.00    +0.086 A 
BRANCH  13  14
ATOM     14  C   UNL     1      -6.837  -5.415  -2.951  0.00  0.00    +0.388 C 
ATOM     15  O   UNL     1      -6.766  -4.201  -2.951  0.00  0.00    -0.241 OA
ATOM     16  O   UNL     1      -7.573  -6.046  -3.886  0.00  0.00    -0.241 OA
ENDBRANCH  13  14
BRANCH  11  17
ATOM     17  S   UNL     1      -5.626 -10.072  -0.961  0.00  0.00    +0.061 S 
ATOM     18  O   UNL     1      -5.946 -10.463  -2.289  0.00  0.00    -0.153 OA
ATOM     19  O   UNL     1      -4.469 -10.545  -0.285  0.00  0.00    -0.153 OA
BRANCH  17  20
ATOM     20  N   UNL     1      -6.925 -10.485  -0.021  0.00  0.00    -0.172 NA
ATOM     21  C   UNL     1      -6.770 -10.721   1.423  0.00  0.00    +0.137 C 
ATOM     22  C   UNL     1      -7.829  -9.887   2.162  0.00  0.00    +0.177 C 
ATOM     23  O   UNL     1      -9.117 -10.168   1.608  0.00  0.00    -0.377 OA
ATOM     24  C   UNL     1      -9.252  -9.808   0.231  0.00  0.00    +0.177 C 
ATOM     25  C   UNL     1      -8.267 -10.633  -0.605  0.00  0.00    +0.137 C 
ENDBRANCH  17  20
ENDBRANCH  11  17
ENDBRANCH   3   8
BRANCH   6  26
ATOM     26  C   UNL     1      -4.264  -0.165   0.018  0.00  0.00    +0.019 C 
BRANCH  26  34
ATOM     27  C   UNL     1       2.500   1.546  -0.014  0.00  0.00    +0.089 C 
ATOM     28  C   UNL     1       1.041   1.923   0.002  0.00  0.00    +0.136 A 
ATOM     29  C   UNL     1      -0.013   1.076   0.008  0.00  0.00    +0.091 A 
ATOM     30  C   UNL     1      -1.143   1.935   0.017  0.00  0.00    +0.168 A 
ATOM     31  N   UNL     1      -0.674   3.155   0.025  0.00  0.00    -0.063 NA
ATOM     32  O   UNL     1       0.535   3.165   0.014  0.00  0.00    -0.358 OA
ATOM     33  N   UNL     1      -2.485   1.554   0.020  0.00  0.00    -0.269 N 
ATOM     34  C   UNL     1      -2.814   0.247   0.015  0.00  0.00    +0.202 C 
ATOM     35  O   UNL     1      -1.944  -0.597   0.006  0.00  0.00    -0.278 OA
ATOM     36  H   UNL     1      -3.181   2.229   0.027  0.00  0.00    +0.156 HD
ENDBRANCH  26  34
ENDBRANCH   6  26
TORSDOF 6
