REMARK  Name = ZINC39531120
REMARK  9 active torsions:
REMARK  status: ('A' for Active; 'I' for Inactive)
REMARK    1  A    between atoms: C_1  and  S_2
REMARK    2  A    between atoms: S_2  and  C_3
REMARK    3  A    between atoms: N_6  and  C_10
REMARK    4  A    between atoms: C_10  and  C_12
REMARK    5  A    between atoms: C_10  and  C_15
REMARK    6  A    between atoms: C_12  and  N_13
REMARK    7  A    between atoms: N_13  and  O_14
REMARK    8  A    between atoms: C_18  and  C_21
REMARK    9  A    between atoms: C_21  and  C_22
REMARK                            x       y       z     vdW  Elec       q    Type
REMARK                         _______ _______ _______ _____ _____    ______ ____
ROOT
ATOM      1  C   UNL     1      -3.656  -3.020  -1.978  0.00  0.00    -0.021 C 
ENDROOT
BRANCH   1   4
ATOM      2  C   UNL     1      -2.052  -0.468   0.259  0.00  0.00    +0.095 C 
ATOM      3  C   UNL     1      -2.170  -1.504  -0.861  0.00  0.00    -0.048 C 
ATOM      4  N   UNL     1      -3.547  -2.012  -0.914  0.00  0.00    +0.387 N 
ATOM      5  C   UNL     1      -4.470  -0.904  -1.194  0.00  0.00    -0.062 C 
ATOM      6  C   UNL     1      -4.371   0.137  -0.077  0.00  0.00    +0.063 C 
ATOM      7  N   UNL     1      -2.990   0.635   0.004  0.00  0.00    -0.308 NA
ATOM      8  H   UNL     1      -2.905   1.352   0.708  0.00  0.00    +0.123 HD
ATOM      9  H   UNL     1      -3.785  -2.432  -0.028  0.00  0.00    -0.081 HD
BRANCH   2  11
ATOM     10  C   UNL     1      -0.577   1.972   0.475  0.00  0.00    +0.086 C 
ATOM     11  S   UNL     1      -0.358   0.179   0.309  0.00  0.00    -0.147 S 
ENDBRANCH   2  11
ENDBRANCH   1   4
BRANCH   1  12
ATOM     12  C   UNL     1      -5.077  -3.517  -2.056  0.00  0.00    -0.060 A 
ATOM     13  C   UNL     1      -5.798  -3.732  -0.896  0.00  0.00    +0.002 A 
ATOM     14  C   UNL     1      -7.102  -4.188  -0.968  0.00  0.00    +0.004 A 
ATOM     15  C   UNL     1      -7.683  -4.427  -2.199  0.00  0.00    -0.043 A 
ATOM     16  C   UNL     1      -6.962  -4.210  -3.358  0.00  0.00    +0.004 A 
ATOM     17  C   UNL     1      -5.660  -3.751  -3.287  0.00  0.00    +0.002 A 
BRANCH  15  18
ATOM     18  C   UNL     1      -9.104  -4.924  -2.277  0.00  0.00    +0.070 C 
BRANCH  18  19
ATOM     19  C   UNL     1     -10.045  -3.749  -2.343  0.00  0.00    -0.043 A 
ATOM     20  C   UNL     1     -10.541  -3.195  -1.178  0.00  0.00    +0.004 A 
ATOM     21  C   UNL     1     -11.405  -2.117  -1.239  0.00  0.00    +0.000 A 
ATOM     22  C   UNL     1     -11.771  -1.593  -2.464  0.00  0.00    +0.000 A 
ATOM     23  C   UNL     1     -11.273  -2.146  -3.629  0.00  0.00    +0.000 A 
ATOM     24  C   UNL     1     -10.406  -3.221  -3.568  0.00  0.00    +0.004 A 
ENDBRANCH  18  19
ENDBRANCH  15  18
ENDBRANCH   1  12
BRANCH   1  25
ATOM     25  C   UNL     1      -2.723  -4.192  -1.667  0.00  0.00    +0.100 C 
BRANCH  25  26
ATOM     26  N   UNL     1      -2.777  -5.166  -2.765  0.00  0.00    -0.205 NA
ATOM     27  H   UNL     1      -2.467  -4.751  -3.632  0.00  0.00    +0.153 HD
BRANCH  26  28
ATOM     28  O   UNL     1      -1.994  -6.360  -2.446  0.00  0.00    -0.315 OA
ATOM     29  H   UNL     1      -2.000  -7.031  -3.142  0.00  0.00    +0.236 HD
ENDBRANCH  26  28
ENDBRANCH  25  26
ENDBRANCH   1  25
TORSDOF 8
