REMARK  Name = ZINC06501041
REMARK  10 active torsions:
REMARK  status: ('A' for Active; 'I' for Inactive)
REMARK    1  A    between atoms: C_1  and  C_2
REMARK    2  A    between atoms: C_7  and  O_8
REMARK    3  A    between atoms: O_8  and  C_9
REMARK    4  A    between atoms: C_9  and  C_10
REMARK    5  A    between atoms: N_12  and  C_13
REMARK    6  A    between atoms: C_13  and  N_15
REMARK    7  A    between atoms: N_15  and  C_16
REMARK    8  A    between atoms: C_17  and  C_23
REMARK    9  A    between atoms: C_18  and  C_22
REMARK   10  A    between atoms: C_19  and  C_21
REMARK                            x       y       z     vdW  Elec       q    Type
REMARK                         _______ _______ _______ _____ _____    ______ ____
ROOT
ATOM      1  C   UNL     1       1.141   2.071   0.002  0.00  0.00    +0.141 C 
ATOM      2  S   UNL     1       2.635   1.235  -0.017  0.00  0.00    -0.018 S 
ENDROOT
BRANCH   1   5
ATOM      3  C   UNL     1       2.281   4.108   0.002  0.00  0.00    +0.256 C 
ATOM      4  O   UNL     1       3.339   3.517  -0.011  0.00  0.00    -0.272 OA
ATOM      5  N   UNL     1       1.123   3.419   0.010  0.00  0.00    -0.265 N 
ATOM      6  H   UNL     1       0.276   3.892   0.020  0.00  0.00    +0.157 HD
BRANCH   3   7
ATOM      7  C   UNL     1       2.260   5.615   0.011  0.00  0.00    +0.325 C 
BRANCH   7   8
ATOM      8  O   UNL     1       3.601   6.110   0.001  0.00  0.00    -0.482 OA
BRANCH   8  15
ATOM      9  C   UNL     1       6.243   7.108  -0.007  0.00  0.00    +0.047 C 
ATOM     10  C   UNL     1       5.035   8.008   0.003  0.00  0.00    -0.007 A 
ATOM     11  C   UNL     1       5.195   9.380   0.003  0.00  0.00    +0.027 A 
ATOM     12  C   UNL     1       4.086  10.207   0.019  0.00  0.00    +0.041 A 
ATOM     13  C   UNL     1       2.814   9.662   0.028  0.00  0.00    +0.023 A 
ATOM     14  C   UNL     1       2.650   8.291   0.021  0.00  0.00    +0.047 A 
ATOM     15  C   UNL     1       3.761   7.460   0.006  0.00  0.00    +0.124 A 
ATOM     16 CL   UNL     1       4.290  11.931   0.027  0.00  0.00    -0.084 Cl
ENDBRANCH   8  15
ENDBRANCH   7   8
ENDBRANCH   3   7
ENDBRANCH   1   5
BRANCH   1  17
ATOM     17  N   UNL     1      -0.017   1.381   0.010  0.00  0.00    -0.291 N 
ATOM     18  H   UNL     1      -0.863   1.855   0.016  0.00  0.00    +0.154 HD
BRANCH  17  19
ATOM     19  C   UNL     1       0.002  -0.004   0.002  0.00  0.00    +0.084 A 
ATOM     20  C   UNL     1      -1.075  -0.882   0.008  0.00  0.00    +0.068 A 
ATOM     21  C   UNL     1      -0.764  -2.292  -0.003  0.00  0.00    -0.027 A 
ATOM     22  C   UNL     1       0.537  -2.633  -0.017  0.00  0.00    -0.008 A 
ATOM     23  S   UNL     1       1.373  -1.061  -0.024  0.00  0.00    -0.078 S 
ATOM     24  C   UNL     1       1.141  -4.014  -0.030  0.00  0.00    +0.052 C 
ATOM     25  C   UNL     1      -1.850  -3.337   0.002  0.00  0.00    +0.045 C 
BRANCH  20  26
ATOM     26  C   UNL     1      -2.460  -0.401   0.024  0.00  0.00    +0.244 C 
ATOM     27  O   UNL     1      -3.045  -0.196  -1.023  0.00  0.00    -0.270 OA
ATOM     28  N   UNL     1      -3.085  -0.186   1.198  0.00  0.00    -0.325 N 
ATOM     29  H   UNL     1      -2.618  -0.350   2.033  0.00  0.00    +0.145 HD
ATOM     30  H   UNL     1      -4.001   0.133   1.209  0.00  0.00    +0.145 HD
ENDBRANCH  20  26
ENDBRANCH  17  19
ENDBRANCH   1  17
TORSDOF 7
