REMARK  Name = ZINC02889316
REMARK  10 active torsions:
REMARK  status: ('A' for Active; 'I' for Inactive)
REMARK    1  A    between atoms: C_1  and  C_2
REMARK    2  A    between atoms: C_2  and  C_3
REMARK    3  A    between atoms: C_2  and  C_4
REMARK    4  A    between atoms: C_2  and  C_5
REMARK    5  A    between atoms: C_8  and  S_11
REMARK    6  A    between atoms: S_11  and  N_14
REMARK    7  A    between atoms: N_14  and  C_15
REMARK    8  A    between atoms: C_15  and  C_16
REMARK    9  A    between atoms: N_18  and  C_19
REMARK   10  A    between atoms: C_20  and  C_29
REMARK                            x       y       z     vdW  Elec       q    Type
REMARK                         _______ _______ _______ _____ _____    ______ ____
ROOT
ATOM      1  C   UNL     1       6.606  -2.403   1.592  0.00  0.00    +0.233 C 
ATOM      2  O   UNL     1       6.903  -1.601   0.732  0.00  0.00    -0.274 OA
ATOM      3  N   UNL     1       5.328  -2.503   2.008  0.00  0.00    -0.278 N 
ATOM      4  H   UNL     1       5.090  -3.144   2.695  0.00  0.00    +0.155 HD
ENDROOT
BRANCH   3   5
ATOM      5  C   UNL     1       4.353  -1.688   1.453  0.00  0.00    +0.084 A 
ATOM      6  C   UNL     1       2.999  -1.642   1.746  0.00  0.00    +0.068 A 
ATOM      7  C   UNL     1       2.179  -0.684   1.016  0.00  0.00    -0.023 A 
ATOM      8  C   UNL     1       2.846   0.061   0.110  0.00  0.00    -0.004 A 
ATOM      9  S   UNL     1       4.530  -0.479   0.225  0.00  0.00    -0.077 S 
ATOM     10  C   UNL     1       2.288   1.105  -0.807  0.00  0.00    +0.043 C 
ATOM     11  C   UNL     1       1.406   2.068  -0.000  0.00  0.00    +0.005 C 
ATOM     12  C   UNL     1      -0.019   1.523   0.010  0.00  0.00    +0.001 C 
ATOM     13  C   UNL     1       0.002  -0.004   0.002  0.00  0.00    +0.005 C 
ATOM     14  C   UNL     1       0.683  -0.535   1.259  0.00  0.00    +0.037 C 
BRANCH   6  15
ATOM     15  C   UNL     1       2.412  -2.527   2.757  0.00  0.00    +0.244 C 
ATOM     16  O   UNL     1       1.982  -3.619   2.434  0.00  0.00    -0.270 OA
ATOM     17  N   UNL     1       2.347  -2.131   4.044  0.00  0.00    -0.325 N 
ATOM     18  H   UNL     1       2.689  -1.260   4.301  0.00  0.00    +0.145 HD
ATOM     19  H   UNL     1       1.959  -2.716   4.713  0.00  0.00    +0.145 HD
ENDBRANCH   6  15
ENDBRANCH   3   5
BRANCH   1  20
ATOM     20  C   UNL     1       7.665  -3.289   2.195  0.00  0.00    +0.201 C 
BRANCH  20  21
ATOM     21  N   UNL     1       8.961  -2.990   1.579  0.00  0.00    -0.181 NA
ATOM     22  H   UNL     1       9.000  -2.476   0.757  0.00  0.00    +0.149 HD
BRANCH  21  23
ATOM     23  S   UNL     1      10.358  -3.529   2.286  0.00  0.00    +0.059 S 
ATOM     24  O   UNL     1      11.425  -3.107   1.448  0.00  0.00    -0.153 OA
ATOM     25  O   UNL     1      10.281  -3.174   3.659  0.00  0.00    -0.153 OA
BRANCH  23  29
ATOM     26  C   UNL     1      10.288  -8.052   2.113  0.00  0.00    -0.042 A 
ATOM     27  C   UNL     1      10.848  -7.329   1.076  0.00  0.00    +0.006 A 
ATOM     28  C   UNL     1      10.870  -5.948   1.129  0.00  0.00    +0.029 A 
ATOM     29  C   UNL     1      10.330  -5.289   2.218  0.00  0.00    +0.105 A 
ATOM     30  C   UNL     1       9.775  -6.012   3.257  0.00  0.00    +0.029 A 
ATOM     31  C   UNL     1       9.749  -7.393   3.202  0.00  0.00    +0.006 A 
BRANCH  26  33
ATOM     32  C   UNL     1      11.697 -10.087   1.967  0.00  0.00    +0.015 C 
ATOM     33  C   UNL     1      10.264  -9.557   2.055  0.00  0.00    -0.013 C 
ATOM     34  C   UNL     1       9.595 -10.106   3.317  0.00  0.00    +0.015 C 
ATOM     35  C   UNL     1       9.477 -10.008   0.823  0.00  0.00    +0.015 C 
ENDBRANCH  26  33
ENDBRANCH  23  29
ENDBRANCH  21  23
ENDBRANCH  20  21
ENDBRANCH   1  20
TORSDOF 7
