REMARK  Name = ZINC36500828
REMARK  12 active torsions:
REMARK  status: ('A' for Active; 'I' for Inactive)
REMARK    1  A    between atoms: C_1  and  C_2
REMARK    2  A    between atoms: C_2  and  C_3
REMARK    3  A    between atoms: C_2  and  C_4
REMARK    4  A    between atoms: C_2  and  N_5
REMARK    5  A    between atoms: C_6  and  C_8
REMARK    6  A    between atoms: C_8  and  C_10
REMARK    7  A    between atoms: C_8  and  N_18
REMARK    8  A    between atoms: N_18  and  C_19
REMARK    9  A    between atoms: C_19  and  C_20
REMARK   10  A    between atoms: C_25  and  C_27
REMARK   11  A    between atoms: C_31  and  O_34
REMARK   12  A    between atoms: C_32  and  O_33
REMARK                            x       y       z     vdW  Elec       q    Type
REMARK                         _______ _______ _______ _____ _____    ______ ____
ROOT
ATOM      1  N   UNL     1       3.918  -0.201  -2.846  0.00  0.00    -0.274 N 
ATOM      2  C   UNL     1       4.053  -0.106  -1.508  0.00  0.00    +0.252 C 
ATOM      3  O   UNL     1       4.425   0.937  -1.007  0.00  0.00    -0.270 OA
ENDROOT
BRANCH   2   4
ATOM      4  C   UNL     1       3.750  -1.269  -0.652  0.00  0.00    +0.082 A 
ATOM      5  C   UNL     1       3.350  -2.479  -1.227  0.00  0.00    +0.017 A 
ATOM      6  C   UNL     1       3.068  -3.563  -0.425  0.00  0.00    +0.005 A 
ATOM      7  C   UNL     1       3.179  -3.462   0.952  0.00  0.00    +0.049 A 
ATOM      8  C   UNL     1       3.574  -2.271   1.536  0.00  0.00    +0.159 A 
ATOM      9  C   UNL     1       3.867  -1.168   0.739  0.00  0.00    +0.171 A 
BRANCH   9  10
ATOM     10  O   UNL     1       4.260  -0.000   1.307  0.00  0.00    -0.503 OA
ATOM     11  H   UNL     1       3.531   0.597   1.524  0.00  0.00    +0.292 HD
ENDBRANCH   9  10
BRANCH   8  12
ATOM     12  O   UNL     1       3.680  -2.179   2.889  0.00  0.00    -0.503 OA
ATOM     13  H   UNL     1       4.554  -2.408   3.232  0.00  0.00    +0.292 HD
ENDBRANCH   8  12
ENDBRANCH   2   4
BRANCH   1  14
ATOM     14  C   UNL     1       3.042  -1.222  -3.423  0.00  0.00    +0.196 C 
BRANCH  14  15
ATOM     15  C   UNL     1       2.585  -0.779  -4.790  0.00  0.00    +0.018 A 
ATOM     16  C   UNL     1       2.319   0.557  -5.030  0.00  0.00    +0.048 A 
ATOM     17  C   UNL     1       1.900   0.963  -6.285  0.00  0.00    +0.020 A 
ATOM     18  C   UNL     1       1.747   0.035  -7.297  0.00  0.00    +0.003 A 
ATOM     19  C   UNL     1       2.012  -1.300  -7.057  0.00  0.00    +0.020 A 
ATOM     20  C   UNL     1       2.438  -1.707  -5.805  0.00  0.00    +0.048 A 
ATOM     21 CL   UNL     1       2.779  -3.383  -5.506  0.00  0.00    -0.083 Cl
ATOM     22 CL   UNL     1       2.510   1.723  -3.759  0.00  0.00    -0.083 Cl
ENDBRANCH  14  15
BRANCH  14  24
ATOM     23  N   UNL     1       1.090  -2.530  -2.648  0.00  0.00    -0.309 N 
ATOM     24  C   UNL     1       1.842  -1.418  -2.532  0.00  0.00    +0.239 C 
ATOM     25  O   UNL     1       1.554  -0.574  -1.710  0.00  0.00    -0.273 OA
ATOM     26  H   UNL     1       1.321  -3.205  -3.305  0.00  0.00    +0.149 HD
BRANCH  23  28
ATOM     27  C   UNL     1      -1.069  -1.578  -2.005  0.00  0.00    +0.031 C 
ATOM     28  C   UNL     1      -0.075  -2.720  -1.781  0.00  0.00    +0.026 C 
ATOM     29  C   UNL     1       0.372  -2.728  -0.318  0.00  0.00    +0.031 C 
ATOM     30  C   UNL     1      -0.748  -4.053  -2.115  0.00  0.00    +0.031 C 
ENDBRANCH  23  28
ENDBRANCH  14  24
ENDBRANCH   1  14
BRANCH   1  31
ATOM     31  C   UNL     1       4.648   0.719  -3.722  0.00  0.00    +0.183 C 
BRANCH  31  32
ATOM     32  C   UNL     1       5.862   0.023  -4.281  0.00  0.00    +0.122 A 
ATOM     33  C   UNL     1       5.915  -0.655  -5.442  0.00  0.00    +0.046 A 
ATOM     34  C   UNL     1       7.237  -1.141  -5.572  0.00  0.00    +0.041 A 
ATOM     35  C   UNL     1       7.912  -0.730  -4.484  0.00  0.00    +0.195 A 
ATOM     36  O   UNL     1       7.076  -0.021  -3.708  0.00  0.00    -0.466 OA
ENDBRANCH  31  32
ENDBRANCH   1  31
TORSDOF 9
