REMARK  Name = ZINC46550701
REMARK  7 active torsions:
REMARK  status: ('A' for Active; 'I' for Inactive)
REMARK    1  A    between atoms: C_1  and  N_2
REMARK    2  A    between atoms: C_3  and  C_5
REMARK    3  A    between atoms: C_8  and  C_11
REMARK    4  A    between atoms: C_12  and  C_13
REMARK    5  A    between atoms: N_15  and  C_16
REMARK    6  A    between atoms: C_19  and  N_22
REMARK    7  A    between atoms: N_25  and  C_26
REMARK                            x       y       z     vdW  Elec       q    Type
REMARK                         _______ _______ _______ _____ _____    ______ ____
ROOT
ATOM      1  C   UNL     1       1.958 -10.603   2.873  0.00  0.00    +0.034 A 
ATOM      2  C   UNL     1       1.423 -11.245   1.764  0.00  0.00    +0.025 A 
ATOM      3  C   UNL     1       1.488 -12.620   1.665  0.00  0.00    +0.025 A 
ATOM      4  C   UNL     1       2.089 -13.362   2.674  0.00  0.00    +0.035 A 
ATOM      5  C   UNL     1       2.623 -12.720   3.783  0.00  0.00    +0.025 A 
ATOM      6  C   UNL     1       2.563 -11.344   3.880  0.00  0.00    +0.025 A 
ENDROOT
BRANCH   4   7
ATOM      7  N   UNL     1       2.155 -14.757   2.573  0.00  0.00    -0.269 N 
ATOM      8  C   UNL     1       2.046 -15.519   3.680  0.00  0.00    +0.308 C 
ATOM      9  O   UNL     1       1.975 -14.994   4.774  0.00  0.00    -0.252 OA
ATOM     10  N   UNL     1       2.016 -16.862   3.574  0.00  0.00    -0.269 N 
ATOM     11  H   UNL     1       2.278 -15.176   1.707  0.00  0.00    +0.156 HD
ATOM     12  H   UNL     1       2.151 -17.283   2.710  0.00  0.00    +0.156 HD
BRANCH  10  13
ATOM     13  C   UNL     1       1.790 -17.649   4.709  0.00  0.00    +0.035 A 
ATOM     14  C   UNL     1       0.933 -17.203   5.705  0.00  0.00    +0.023 A 
ATOM     15  C   UNL     1       0.712 -17.982   6.824  0.00  0.00    +0.002 A 
ATOM     16  C   UNL     1       1.343 -19.205   6.952  0.00  0.00    +0.000 A 
ATOM     17  C   UNL     1       2.198 -19.652   5.961  0.00  0.00    +0.002 A 
ATOM     18  C   UNL     1       2.419 -18.880   4.838  0.00  0.00    +0.023 A 
ENDBRANCH  10  13
ENDBRANCH   4   7
BRANCH   1  21
ATOM     19  C   UNL     1       2.905  -8.525   3.544  0.00  0.00    +0.241 C 
ATOM     20  O   UNL     1       3.837  -9.125   4.046  0.00  0.00    -0.270 OA
ATOM     21  N   UNL     1       1.892  -9.208   2.974  0.00  0.00    -0.282 N 
ATOM     22  H   UNL     1       1.118  -8.733   2.633  0.00  0.00    +0.155 HD
BRANCH  19  24
ATOM     23  C   UNL     1       3.895  -6.377   4.129  0.00  0.00    +0.013 C 
ATOM     24  C   UNL     1       2.883  -7.060   3.559  0.00  0.00    +0.068 C 
BRANCH  23  28
ATOM     25  C   UNL     1       3.833  -2.131   4.172  0.00  0.00    +0.037 A 
ATOM     26  C   UNL     1       4.903  -2.819   4.749  0.00  0.00    +0.013 A 
ATOM     27  C   UNL     1       4.924  -4.195   4.736  0.00  0.00    +0.008 A 
ATOM     28  C   UNL     1       3.873  -4.904   4.144  0.00  0.00    -0.025 A 
ATOM     29  C   UNL     1       2.803  -4.214   3.567  0.00  0.00    +0.008 A 
ATOM     30  C   UNL     1       2.781  -2.838   3.586  0.00  0.00    +0.013 A 
BRANCH  25  33
ATOM     31  C   UNL     1       4.806   1.496   4.766  0.00  0.00    +0.128 C 
ATOM     32  N   UNL     1       4.827   0.031   4.752  0.00  0.00    -0.314 N 
ATOM     33  C   UNL     1       3.812  -0.652   4.186  0.00  0.00    +0.244 C 
ATOM     34  O   UNL     1       2.879  -0.053   3.689  0.00  0.00    -0.270 OA
ATOM     35  H   UNL     1       5.571  -0.447   5.149  0.00  0.00    +0.149 HD
ENDBRANCH  25  33
ENDBRANCH  23  28
ENDBRANCH  19  24
ENDBRANCH   1  21
TORSDOF 6
