REMARK  Name = ZINC09427110
REMARK  7 active torsions:
REMARK  status: ('A' for Active; 'I' for Inactive)
REMARK    1  A    between atoms: C_1  and  O_2
REMARK    2  A    between atoms: O_2  and  C_3
REMARK    3  A    between atoms: C_4  and  C_11
REMARK    4  A    between atoms: N_13  and  C_14
REMARK    5  A    between atoms: C_14  and  N_16
REMARK    6  A    between atoms: N_16  and  C_17
REMARK    7  A    between atoms: C_18  and  C_26
REMARK                            x       y       z     vdW  Elec       q    Type
REMARK                         _______ _______ _______ _____ _____    ______ ____
ROOT
ATOM      1  C   UNL     1       4.747   4.626  -0.017  0.00  0.00    +0.141 C 
ATOM      2  S   UNL     1       4.720   6.338  -0.008  0.00  0.00    -0.018 S 
ENDROOT
BRANCH   1   5
ATOM      3  C   UNL     1       2.413   4.589   0.004  0.00  0.00    +0.253 C 
ATOM      4  O   UNL     1       2.393   5.805   0.011  0.00  0.00    -0.270 OA
ATOM      5  N   UNL     1       3.590   3.934  -0.010  0.00  0.00    -0.263 N 
ATOM      6  H   UNL     1       3.606   2.964  -0.015  0.00  0.00    +0.157 HD
BRANCH   3   8
ATOM      7  C   UNL     1      -0.079   4.509   0.027  0.00  0.00    +0.150 A 
ATOM      8  C   UNL     1       1.147   3.832   0.012  0.00  0.00    +0.081 A 
ATOM      9  C   UNL     1       1.165   2.434   0.004  0.00  0.00    +0.036 A 
ATOM     10  C   UNL     1      -0.021   1.732   0.012  0.00  0.00    +0.043 A 
ATOM     11  C   UNL     1      -1.233   2.405   0.021  0.00  0.00    +0.043 A 
ATOM     12  C   UNL     1      -1.264   3.787   0.035  0.00  0.00    +0.085 A 
ATOM     13 CL   UNL     1      -2.787   4.619   0.054  0.00  0.00    -0.080 Cl
ATOM     14 CL   UNL     1       0.002  -0.004   0.002  0.00  0.00    -0.083 Cl
BRANCH   7  16
ATOM     15  C   UNL     1      -0.134   6.522  -1.234  0.00  0.00    +0.277 C 
ATOM     16  O   UNL     1      -0.108   5.866   0.035  0.00  0.00    -0.493 OA
ENDBRANCH   7  16
ENDBRANCH   3   8
ENDBRANCH   1   5
BRANCH   1  17
ATOM     17  N   UNL     1       5.924   3.971  -0.031  0.00  0.00    -0.291 N 
ATOM     18  H   UNL     1       5.940   3.001  -0.037  0.00  0.00    +0.154 HD
BRANCH  17  19
ATOM     19  C   UNL     1       7.113   4.683  -0.038  0.00  0.00    +0.084 A 
ATOM     20  C   UNL     1       8.412   4.192  -0.047  0.00  0.00    +0.068 A 
ATOM     21  C   UNL     1       9.495   5.161  -0.057  0.00  0.00    -0.023 A 
ATOM     22  C   UNL     1       9.109   6.455  -0.046  0.00  0.00    -0.004 A 
ATOM     23  S   UNL     1       7.340   6.400  -0.031  0.00  0.00    -0.077 S 
ATOM     24  C   UNL     1       9.996   7.662  -0.047  0.00  0.00    +0.043 C 
ATOM     25  C   UNL     1      11.420   7.216   0.316  0.00  0.00    +0.005 C 
ATOM     26  C   UNL     1      11.785   5.994  -0.531  0.00  0.00    +0.005 C 
ATOM     27  C   UNL     1      10.971   4.782  -0.073  0.00  0.00    +0.037 C 
BRANCH  20  28
ATOM     28  C   UNL     1       8.681   2.751  -0.050  0.00  0.00    +0.244 C 
ATOM     29  O   UNL     1       8.786   2.154  -1.105  0.00  0.00    -0.270 OA
ATOM     30  N   UNL     1       8.811   2.088   1.116  0.00  0.00    -0.325 N 
ATOM     31  H   UNL     1       8.727   2.564   1.957  0.00  0.00    +0.145 HD
ATOM     32  H   UNL     1       8.989   1.134   1.114  0.00  0.00    +0.145 HD
ENDBRANCH  20  28
ENDBRANCH  17  19
ENDBRANCH   1  17
TORSDOF 6
