REMARK  Name = ZINC22356314
REMARK  6 active torsions:
REMARK  status: ('A' for Active; 'I' for Inactive)
REMARK    1  A    between atoms: C_8  and  C_10
REMARK    2  A    between atoms: C_13  and  C_16
REMARK    3  A    between atoms: C_21  and  C_23
REMARK    4  A    between atoms: C_23  and  N_24
REMARK    5  A    between atoms: N_24  and  C_25
REMARK    6  A    between atoms: C_30  and  C_31
REMARK                            x       y       z     vdW  Elec       q    Type
REMARK                         _______ _______ _______ _____ _____    ______ ____
ROOT
ATOM      1  C   UNL     1       4.824  -6.143   0.395  0.00  0.00    +0.104 C 
ATOM      2  N   UNL     1       4.115  -5.067   0.321  0.00  0.00    -0.178 NA
ATOM      3  N   UNL     1       2.744  -5.297   0.219  0.00  0.00    -0.181 N 
ATOM      4  C   UNL     1       2.502  -6.748   0.231  0.00  0.00    +0.173 C 
ATOM      5  C   UNL     1       3.916  -7.351   0.346  0.00  0.00    +0.093 C 
ATOM      6  C   UNL     1       1.794  -4.345   0.129  0.00  0.00    +0.252 C 
ATOM      7  O   UNL     1       0.626  -4.659   0.045  0.00  0.00    -0.272 OA
ENDROOT
BRANCH   1  15
ATOM      8  C   UNL     1      10.838  -5.816   0.855  0.00  0.00    +0.001 A 
ATOM      9  C   UNL     1      10.719  -7.199   0.870  0.00  0.00    +0.004 A 
ATOM     10  C   UNL     1       9.482  -7.801   0.785  0.00  0.00    +0.047 A 
ATOM     11  C   UNL     1       8.338  -7.020   0.683  0.00  0.00    +0.136 A 
ATOM     12  C   UNL     1       8.464  -5.618   0.667  0.00  0.00    +0.021 A 
ATOM     13  C   UNL     1       9.726  -5.027   0.755  0.00  0.00    +0.011 A 
ATOM     14  C   UNL     1       7.101  -5.099   0.548  0.00  0.00    +0.059 A 
ATOM     15  C   UNL     1       6.286  -6.187   0.509  0.00  0.00    +0.152 A 
ATOM     16  O   UNL     1       7.025  -7.312   0.586  0.00  0.00    -0.454 OA
ENDBRANCH   1  15
BRANCH   4  17
ATOM     17  C   UNL     1       1.661  -7.135   1.420  0.00  0.00    +0.128 A 
ATOM     18  C   UNL     1       0.687  -8.063   1.426  0.00  0.00    +0.046 A 
ATOM     19  C   UNL     1       0.165  -8.101   2.740  0.00  0.00    +0.041 A 
ATOM     20  C   UNL     1       0.851  -7.193   3.458  0.00  0.00    +0.195 A 
ATOM     21  O   UNL     1       1.760  -6.615   2.655  0.00  0.00    -0.466 OA
ENDBRANCH   4  17
BRANCH   6  22
ATOM     22  C   UNL     1       2.184  -2.889   0.134  0.00  0.00    +0.199 C 
BRANCH  22  23
ATOM     23  N   UNL     1       0.980  -2.061   0.026  0.00  0.00    -0.335 N 
ATOM     24  H   UNL     1      -0.009  -2.535  -0.042  0.00  0.00    +0.147 HD
BRANCH  23  25
ATOM     25  C   UNL     1       1.089  -0.676   0.011  0.00  0.00    +0.040 A 
ATOM     26  C   UNL     1       2.341  -0.074  -0.021  0.00  0.00    +0.024 A 
ATOM     27  C   UNL     1       2.447   1.301  -0.037  0.00  0.00    +0.002 A 
ATOM     28  C   UNL     1       1.309   2.092  -0.022  0.00  0.00    +0.001 A 
ATOM     29  C   UNL     1       0.059   1.514   0.009  0.00  0.00    +0.015 A 
ATOM     30  C   UNL     1      -0.065   0.122   0.026  0.00  0.00    +0.057 A 
BRANCH  30  31
ATOM     31  C   UNL     1      -1.399  -0.503   0.059  0.00  0.00    +0.243 C 
ATOM     32  O   UNL     1      -1.507  -1.711  -0.035  0.00  0.00    -0.270 OA
ATOM     33  N   UNL     1      -2.500   0.263   0.193  0.00  0.00    -0.325 N 
ATOM     34  H   UNL     1      -3.496  -0.204   0.217  0.00  0.00    +0.145 HD
ATOM     35  H   UNL     1      -2.402   1.355   0.277  0.00  0.00    +0.145 HD
ENDBRANCH  30  31
ENDBRANCH  23  25
ENDBRANCH  22  23
ENDBRANCH   6  22
TORSDOF 6
