REMARK  Name = ZINC20292126
REMARK  7 active torsions:
REMARK  status: ('A' for Active; 'I' for Inactive)
REMARK    1  A    between atoms: C_10  and  N_11
REMARK    2  A    between atoms: C_12  and  C_14
REMARK    3  A    between atoms: C_14  and  S_15
REMARK    4  A    between atoms: S_15  and  C_16
REMARK    5  A    between atoms: N_20  and  N_21
REMARK    6  A    between atoms: N_22  and  N_23
REMARK    7  A    between atoms: C_24  and  C_25
REMARK                            x       y       z     vdW  Elec       q    Type
REMARK                         _______ _______ _______ _____ _____    ______ ____
ROOT
ATOM      1  C   UNL     1      10.142   0.113   0.363  0.00  0.00    +0.210 A 
ATOM      2  N   UNL     1      10.130   1.425   0.376  0.00  0.00    -0.119 NA
ATOM      3  N   UNL     1      11.455   1.869   0.479  0.00  0.00    -0.109 NA
ATOM      4  C   UNL     1      12.233   0.814   0.525  0.00  0.00    +0.254 A 
ATOM      5  N   UNL     1      11.441  -0.298   0.461  0.00  0.00    -0.211 N 
ATOM      6  N   UNL     1      13.617   0.825   0.628  0.00  0.00    -0.204 N 
ATOM      7  H   UNL     1      14.108  -0.011   0.655  0.00  0.00    +0.177 HD
ENDROOT
BRANCH   5   8
ATOM      8  N   UNL     1      11.873  -1.594   0.487  0.00  0.00    -0.294 N 
ATOM      9  H   UNL     1      12.060  -1.932  -0.445  0.00  0.00    +0.163 HD
ATOM     10  H   UNL     1      12.685  -1.693   1.077  0.00  0.00    +0.163 HD
ENDBRANCH   5   8
BRANCH   6  11
ATOM     11  N   UNL     1      14.304   2.044   0.693  0.00  0.00    -0.188 NA
ATOM     12  C   UNL     1      15.599   2.054   0.789  0.00  0.00    +0.138 C 
BRANCH  12  13
ATOM     13  C   UNL     1      16.323   3.337   0.856  0.00  0.00    -0.004 A 
ATOM     14  C   UNL     1      15.619   4.543   0.823  0.00  0.00    +0.009 A 
ATOM     15  C   UNL     1      16.302   5.740   0.887  0.00  0.00    +0.002 A 
ATOM     16  C   UNL     1      17.682   5.748   0.984  0.00  0.00    +0.015 A 
ATOM     17  C   UNL     1      18.387   4.557   1.018  0.00  0.00    +0.018 A 
ATOM     18  C   UNL     1      17.716   3.352   0.960  0.00  0.00    +0.024 A 
ATOM     19 BR   UNL     1      20.274   4.581   1.149  0.00  0.00    -0.050 Br
ENDBRANCH  12  13
ENDBRANCH   6  11
BRANCH   1  20
ATOM     20  S   UNL     1       8.730  -0.934   0.247  0.00  0.00    -0.075 S 
BRANCH  20  21
ATOM     21  C   UNL     1       7.334   0.221   0.146  0.00  0.00    +0.173 C 
BRANCH  21  23
ATOM     22  N   UNL     1       4.871   0.098  -0.045  0.00  0.00    -0.284 N 
ATOM     23  C   UNL     1       6.047  -0.555   0.042  0.00  0.00    +0.228 C 
ATOM     24  O   UNL     1       6.068  -1.768   0.036  0.00  0.00    -0.275 OA
ATOM     25  H   UNL     1       4.858   1.065  -0.121  0.00  0.00    +0.155 HD
BRANCH  22  35
ATOM     26  C   UNL     1       0.203   0.945  -1.767  0.00  0.00    +0.001 A 
ATOM     27  C   UNL     1       1.389   1.676  -1.797  0.00  0.00    +0.001 A 
ATOM     28  C   UNL     1       2.529   1.185  -1.236  0.00  0.00    +0.010 A 
ATOM     29  C   UNL     1       2.511  -0.076  -0.618  0.00  0.00    +0.003 A 
ATOM     30  C   UNL     1       1.306  -0.819  -0.587  0.00  0.00    -0.016 A 
ATOM     31  C   UNL     1       0.149  -0.280  -1.177  0.00  0.00    +0.008 A 
ATOM     32  C   UNL     1       1.286  -2.080   0.032  0.00  0.00    +0.008 A 
ATOM     33  C   UNL     1       2.422  -2.578   0.596  0.00  0.00    +0.002 A 
ATOM     34  C   UNL     1       3.612  -1.857   0.572  0.00  0.00    +0.024 A 
ATOM     35  C   UNL     1       3.672  -0.617  -0.026  0.00  0.00    +0.041 A 
ENDBRANCH  22  35
ENDBRANCH  21  23
ENDBRANCH  20  21
ENDBRANCH   1  20
TORSDOF 7
