REMARK  Name = ZINC44924929
REMARK  4 active torsions:
REMARK  status: ('A' for Active; 'I' for Inactive)
REMARK    1  A    between atoms: C_1  and  C_2
REMARK    2  A    between atoms: C_2  and  C_4
REMARK    3  A    between atoms: C_2  and  N_9
REMARK    4  A    between atoms: C_15  and  N_20
REMARK                            x       y       z     vdW  Elec       q    Type
REMARK                         _______ _______ _______ _____ _____    ______ ____
ROOT
ATOM      1  N   UNL     1       0.711  -0.489   1.189  0.00  0.00    -0.319 N 
ATOM      2  C   UNL     1       2.094  -0.603   1.173  0.00  0.00    +0.120 A 
ATOM      3  C   UNL     1       2.797  -0.243   0.015  0.00  0.00    +0.044 A 
ATOM      4  C   UNL     1       4.155  -0.349  -0.015  0.00  0.00    +0.013 A 
ATOM      5  C   UNL     1       4.814  -0.824   1.138  0.00  0.00    +0.002 A 
ATOM      6  C   UNL     1       6.210  -0.956   1.174  0.00  0.00    +0.032 A 
ATOM      7  C   UNL     1       6.818  -1.423   2.319  0.00  0.00    +0.025 A 
ATOM      8  C   UNL     1       6.055  -1.765   3.441  0.00  0.00    +0.025 A 
ATOM      9  C   UNL     1       4.700  -1.645   3.428  0.00  0.00    +0.030 A 
ATOM     10  C   UNL     1       4.047  -1.171   2.277  0.00  0.00    +0.073 A 
ATOM     11  N   UNL     1       2.715  -1.041   2.248  0.00  0.00    -0.232 NA
ATOM     12  H   UNL     1       0.213  -0.731   1.986  0.00  0.00    +0.148 HD
ENDROOT
BRANCH   7  13
ATOM     13  N   UNL     1       8.209  -1.557   2.360  0.00  0.00    -0.358 N 
ATOM     14  H   UNL     1       8.742  -1.322   1.585  0.00  0.00    +0.142 HD
ATOM     15  H   UNL     1       8.641  -1.886   3.164  0.00  0.00    +0.142 HD
ENDBRANCH   7  13
BRANCH   1  17
ATOM     16  C   UNL     1      -0.019   1.526   0.010  0.00  0.00    +0.036 C 
ATOM     17  C   UNL     1       0.002  -0.004   0.002  0.00  0.00    +0.140 C 
BRANCH  17  18
ATOM     18  C   UNL     1      -1.412  -0.526   0.013  0.00  0.00    +0.196 A 
ATOM     19  N   UNL     1      -2.067  -1.052  -1.011  0.00  0.00    -0.109 NA
ATOM     20  N   UNL     1      -3.245  -1.375  -0.596  0.00  0.00    -0.021 NA
ATOM     21  N   UNL     1      -3.348  -1.069   0.650  0.00  0.00    -0.021 NA
ATOM     22  N   UNL     1      -2.236  -0.552   1.050  0.00  0.00    -0.109 NA
ENDBRANCH  17  18
ENDBRANCH   1  17
TORSDOF 3
