REMARK  Name = ZINC63993014
REMARK  4 active torsions:
REMARK  status: ('A' for Active; 'I' for Inactive)
REMARK    1  A    between atoms: C_1  and  C_2
REMARK    2  A    between atoms: C_5  and  C_8
REMARK    3  A    between atoms: C_13  and  N_17
REMARK    4  A    between atoms: N_17  and  C_18
REMARK                            x       y       z     vdW  Elec       q    Type
REMARK                         _______ _______ _______ _____ _____    ______ ____
ROOT
ATOM      1  C   UNL     1       0.091  -4.254  -0.065  0.00  0.00    +0.002 A 
ATOM      2  C   UNL     1      -0.842  -4.952  -0.754  0.00  0.00    +0.056 A 
ATOM      3  S   UNL     1      -0.400  -6.652  -0.449  0.00  0.00    -0.076 S 
ATOM      4  C   UNL     1       1.016  -6.392   0.587  0.00  0.00    +0.114 A 
ATOM      5  C   UNL     1       1.117  -4.988   0.669  0.00  0.00    +0.055 A 
ATOM      6  C   UNL     1       2.194  -4.498   1.454  0.00  0.00    +0.131 A 
ATOM      7  N   UNL     1       3.012  -5.360   2.037  0.00  0.00    -0.220 NA
ATOM      8  C   UNL     1       2.861  -6.666   1.913  0.00  0.00    +0.224 A 
ATOM      9  N   UNL     1       1.874  -7.180   1.205  0.00  0.00    -0.228 NA
ENDROOT
BRANCH   1  14
ATOM     10  C   UNL     1       0.028   1.504  -0.050  0.00  0.00    +0.044 C 
ATOM     11  C   UNL     1       0.044  -0.003  -0.054  0.00  0.00    -0.050 A 
ATOM     12  C   UNL     1      -1.048  -0.706   0.423  0.00  0.00    +0.004 A 
ATOM     13  C   UNL     1      -1.039  -2.085   0.422  0.00  0.00    +0.009 A 
ATOM     14  C   UNL     1       0.074  -2.772  -0.062  0.00  0.00    -0.017 A 
ATOM     15  C   UNL     1       1.172  -2.059  -0.541  0.00  0.00    +0.009 A 
ATOM     16  C   UNL     1       1.150  -0.679  -0.540  0.00  0.00    +0.004 A 
ENDBRANCH   1  14
BRANCH   6  17
ATOM     17  N   UNL     1       2.386  -3.137   1.607  0.00  0.00    -0.317 N 
ATOM     18  H   UNL     1       1.734  -2.512   1.253  0.00  0.00    +0.148 HD
BRANCH  17  19
ATOM     19  C   UNL     1       3.575  -2.639   2.304  0.00  0.00    +0.158 C 
ATOM     20  C   UNL     1       3.278  -1.257   2.892  0.00  0.00    +0.033 C 
ATOM     21  C   UNL     1       4.598  -0.640   3.371  0.00  0.00    +0.021 C 
ATOM     22  C   UNL     1       5.471  -0.344   2.151  0.00  0.00    +0.104 C 
ATOM     23  N   UNL     1       5.570  -1.520   1.296  0.00  0.00    -0.314 N 
ATOM     24  C   UNL     1       4.719  -2.546   1.335  0.00  0.00    +0.233 C 
ATOM     25  O   UNL     1       4.878  -3.454   0.547  0.00  0.00    -0.274 OA
ATOM     26  H   UNL     1       6.300  -1.559   0.659  0.00  0.00    +0.149 HD
ENDBRANCH  17  19
ENDBRANCH   6  17
TORSDOF 3
