REMARK  Name = ZINC06831686
REMARK  7 active torsions:
REMARK  status: ('A' for Active; 'I' for Inactive)
REMARK    1  A    between atoms: C_1  and  C_2
REMARK    2  A    between atoms: C_5  and  N_9
REMARK    3  A    between atoms: C_7  and  C_8
REMARK    4  A    between atoms: C_10  and  C_24
REMARK    5  A    between atoms: C_13  and  S_14
REMARK    6  A    between atoms: S_14  and  C_15
REMARK    7  A    between atoms: C_15  and  C_16
REMARK                            x       y       z     vdW  Elec       q    Type
REMARK                         _______ _______ _______ _____ _____    ______ ____
ROOT
ATOM      1  N   UNL     1      -4.244   3.609   2.409  0.00  0.00    -0.270 N 
ATOM      2  C   UNL     1      -5.332   4.100   1.721  0.00  0.00    +0.169 A 
ATOM      3  N   UNL     1      -5.032   4.057   0.444  0.00  0.00    -0.128 NA
ATOM      4  N   UNL     1      -3.847   3.586   0.287  0.00  0.00    -0.122 NA
ATOM      5  C   UNL     1      -3.316   3.297   1.454  0.00  0.00    +0.197 A 
ENDROOT
BRANCH   1  10
ATOM      6  C   UNL     1      -3.721   3.014   8.029  0.00  0.00    +0.044 C 
ATOM      7  C   UNL     1      -3.859   3.172   6.537  0.00  0.00    -0.047 A 
ATOM      8  C   UNL     1      -3.917   4.436   5.979  0.00  0.00    +0.005 A 
ATOM      9  C   UNL     1      -4.044   4.584   4.612  0.00  0.00    +0.026 A 
ATOM     10  C   UNL     1      -4.114   3.462   3.797  0.00  0.00    +0.051 A 
ATOM     11  C   UNL     1      -4.061   2.195   4.360  0.00  0.00    +0.030 A 
ATOM     12  C   UNL     1      -3.928   2.053   5.728  0.00  0.00    -0.046 A 
ATOM     13  C   UNL     1      -3.866   0.677   6.340  0.00  0.00    +0.044 C 
ENDBRANCH   1  10
BRANCH   2  14
ATOM     14  C   UNL     1      -6.601   4.578   2.310  0.00  0.00    +0.020 A 
ATOM     15  C   UNL     1      -6.941   4.231   3.619  0.00  0.00    +0.011 A 
ATOM     16  C   UNL     1      -8.125   4.685   4.164  0.00  0.00    +0.001 A 
ATOM     17  C   UNL     1      -8.978   5.474   3.413  0.00  0.00    +0.000 A 
ATOM     18  C   UNL     1      -8.649   5.817   2.114  0.00  0.00    +0.001 A 
ATOM     19  C   UNL     1      -7.466   5.374   1.558  0.00  0.00    +0.011 A 
ENDBRANCH   2  14
BRANCH   5  20
ATOM     20  S   UNL     1      -1.710   2.627   1.735  0.00  0.00    -0.078 S 
BRANCH  20  21
ATOM     21  C   UNL     1      -1.122   2.494   0.029  0.00  0.00    +0.153 C 
BRANCH  21  22
ATOM     22  C   UNL     1       0.274   1.926   0.021  0.00  0.00    +0.146 A 
ATOM     23  N   UNL     1       1.316   2.737   0.079  0.00  0.00    -0.199 NA
ATOM     24  C   UNL     1       2.550   2.240   0.067  0.00  0.00    +0.217 A 
ATOM     25  N   UNL     1       2.735   0.926  -0.002  0.00  0.00    -0.181 NA
ATOM     26  C   UNL     1       1.685   0.114  -0.060  0.00  0.00    +0.217 A 
ATOM     27  N   UNL     1       0.454   0.619  -0.048  0.00  0.00    -0.199 NA
ATOM     28  N   UNL     1       1.872  -1.251  -0.133  0.00  0.00    -0.327 N 
ATOM     29  N   UNL     1       3.637   3.088   0.127  0.00  0.00    -0.327 N 
ATOM     30  H   UNL     1       1.105  -1.844  -0.175  0.00  0.00    +0.145 HD
ATOM     31  H   UNL     1       2.769  -1.619  -0.141  0.00  0.00    +0.145 HD
ATOM     32  H   UNL     1       4.537   2.725   0.118  0.00  0.00    +0.145 HD
ATOM     33  H   UNL     1       3.502   4.048   0.178  0.00  0.00    +0.145 HD
ENDBRANCH  21  22
ENDBRANCH  20  21
ENDBRANCH   5  20
TORSDOF 5
