REMARK  Name = ZINC09077961
REMARK  11 active torsions:
REMARK  status: ('A' for Active; 'I' for Inactive)
REMARK    1  A    between atoms: C_1  and  C_2
REMARK    2  A    between atoms: C_2  and  C_3
REMARK    3  A    between atoms: N_9  and  S_10
REMARK    4  A    between atoms: S_10  and  C_13
REMARK    5  A    between atoms: C_16  and  C_19
REMARK    6  A    between atoms: C_19  and  N_21
REMARK    7  A    between atoms: N_23  and  C_31
REMARK    8  A    between atoms: C_31  and  C_32
REMARK    9  A    between atoms: C_32  and  O_34
REMARK   10  A    between atoms: O_34  and  C_35
REMARK   11  A    between atoms: C_35  and  C_36
REMARK                            x       y       z     vdW  Elec       q    Type
REMARK                         _______ _______ _______ _____ _____    ______ ____
ROOT
ATOM      1  C   UNL     1       1.167  -3.147   5.324  0.00  0.00    +0.269 C 
ATOM      2  O   UNL     1       0.188  -3.505   5.956  0.00  0.00    -0.268 OA
ENDROOT
BRANCH   1   3
ATOM      3  N   UNL     1       2.356  -3.061   5.928  0.00  0.00    -0.152 NA
ATOM      4  C   UNL     1       2.471  -3.365   7.216  0.00  0.00    +0.167 A 
ATOM      5  N   UNL     1       3.588  -3.343   7.992  0.00  0.00    -0.310 N 
ATOM      6  C   UNL     1       3.512  -3.693   9.328  0.00  0.00    +0.058 A 
ATOM      7  C   UNL     1       4.544  -3.727  10.279  0.00  0.00    +0.027 A 
ATOM      8  C   UNL     1       4.291  -4.109  11.575  0.00  0.00    +0.002 A 
ATOM      9  C   UNL     1       3.018  -4.469  11.983  0.00  0.00    +0.001 A 
ATOM     10  C   UNL     1       1.982  -4.444  11.066  0.00  0.00    +0.017 A 
ATOM     11  C   UNL     1       2.233  -4.062   9.769  0.00  0.00    +0.039 A 
ATOM     12  S   UNL     1       1.234  -3.893   8.311  0.00  0.00    -0.052 S 
BRANCH   5  13
ATOM     13  C   UNL     1       4.873  -2.943   7.413  0.00  0.00    +0.244 C 
BRANCH  13  14
ATOM     14  C   UNL     1       5.042  -3.597   6.065  0.00  0.00    +0.327 C 
ATOM     15  O   UNL     1       4.252  -4.434   5.697  0.00  0.00    -0.249 OA
BRANCH  14  16
ATOM     16  O   UNL     1       6.069  -3.249   5.274  0.00  0.00    -0.464 OA
BRANCH  16  17
ATOM     17  C   UNL     1       6.168  -3.919   3.990  0.00  0.00    +0.229 C 
ATOM     18  C   UNL     1       7.392  -3.396   3.235  0.00  0.00    +0.048 C 
ENDBRANCH  16  17
ENDBRANCH  14  16
ENDBRANCH  13  14
ENDBRANCH   5  13
ENDBRANCH   1   3
BRANCH   1  22
ATOM     19  C   UNL     1       0.799  -2.174   1.204  0.00  0.00    +0.106 A 
ATOM     20  C   UNL     1       2.033  -2.089   1.824  0.00  0.00    +0.029 A 
ATOM     21  C   UNL     1       2.158  -2.398   3.163  0.00  0.00    +0.015 A 
ATOM     22  C   UNL     1       1.039  -2.808   3.888  0.00  0.00    +0.039 A 
ATOM     23  C   UNL     1      -0.201  -2.898   3.256  0.00  0.00    +0.015 A 
ATOM     24  C   UNL     1      -0.314  -2.580   1.918  0.00  0.00    +0.029 A 
BRANCH  19  25
ATOM     25  S   UNL     1       0.647  -1.771  -0.505  0.00  0.00    +0.061 S 
ATOM     26  O   UNL     1      -0.379  -2.603  -1.029  0.00  0.00    -0.153 OA
ATOM     27  O   UNL     1       1.964  -1.758  -1.038  0.00  0.00    -0.153 OA
BRANCH  25  33
ATOM     28  C   UNL     1       1.006   0.922  -0.461  0.00  0.00    +0.080 C 
ATOM     29  C   UNL     1       0.826   1.844  -1.671  0.00  0.00    +0.021 C 
ATOM     30  C   UNL     1      -0.647   2.239  -1.792  0.00  0.00    +0.003 C 
ATOM     31  C   UNL     1      -1.497   0.985  -2.010  0.00  0.00    +0.017 C 
ATOM     32  C   UNL     1      -1.343   0.053  -0.810  0.00  0.00    +0.110 C 
ATOM     33  N   UNL     1       0.085  -0.216  -0.593  0.00  0.00    -0.174 NA
BRANCH  28  35
ATOM     34  C   UNL     1       3.394   1.582  -0.141  0.00  0.00    +0.005 C 
ATOM     35  C   UNL     1       2.447   0.411  -0.411  0.00  0.00    +0.017 C 
ENDBRANCH  28  35
ENDBRANCH  25  33
ENDBRANCH  19  25
ENDBRANCH   1  22
TORSDOF 9
