REMARK  Name = ZINC14006022
REMARK  9 active torsions:
REMARK  status: ('A' for Active; 'I' for Inactive)
REMARK    1  A    between atoms: C_4  and  N_7
REMARK    2  A    between atoms: N_7  and  C_8
REMARK    3  A    between atoms: C_11  and  N_14
REMARK    4  A    between atoms: C_15  and  C_17
REMARK    5  A    between atoms: C_22  and  N_23
REMARK    6  A    between atoms: N_23  and  C_24
REMARK    7  A    between atoms: C_24  and  N_26
REMARK    8  A    between atoms: C_27  and  C_29
REMARK    9  A    between atoms: C_30  and  C_31
REMARK                            x       y       z     vdW  Elec       q    Type
REMARK                         _______ _______ _______ _____ _____    ______ ____
ROOT
ATOM      1  C   UNL     1       8.247   6.309  -0.441  0.00  0.00    +0.058 A 
ATOM      2  C   UNL     1       9.482   5.689  -0.644  0.00  0.00    +0.015 A 
ATOM      3  C   UNL     1      10.647   6.404  -0.473  0.00  0.00    +0.001 A 
ATOM      4  C   UNL     1      10.602   7.735  -0.090  0.00  0.00    +0.002 A 
ATOM      5  C   UNL     1       9.389   8.361   0.119  0.00  0.00    +0.024 A 
ATOM      6  C   UNL     1       8.204   7.657  -0.053  0.00  0.00    +0.045 A 
ENDROOT
BRANCH   1   8
ATOM      7  N   UNL     1       7.041   4.225  -0.867  0.00  0.00    -0.281 N 
ATOM      8  C   UNL     1       6.996   5.551  -0.628  0.00  0.00    +0.250 C 
ATOM      9  O   UNL     1       5.924   6.122  -0.567  0.00  0.00    -0.270 OA
ATOM     10  H   UNL     1       7.897   3.780  -0.973  0.00  0.00    +0.155 HD
BRANCH   7  14
ATOM     11  C   UNL     1       3.503   2.037  -1.148  0.00  0.00    +0.031 A 
ATOM     12  C   UNL     1       3.556   3.337  -1.635  0.00  0.00    +0.025 A 
ATOM     13  C   UNL     1       4.726   4.063  -1.538  0.00  0.00    +0.025 A 
ATOM     14  C   UNL     1       5.853   3.490  -0.962  0.00  0.00    +0.034 A 
ATOM     15  C   UNL     1       5.801   2.189  -0.480  0.00  0.00    +0.025 A 
ATOM     16  C   UNL     1       4.630   1.464  -0.572  0.00  0.00    +0.025 A 
BRANCH  11  17
ATOM     17  N   UNL     1       2.315   1.303  -1.242  0.00  0.00    -0.314 N 
ATOM     18  H   UNL     1       2.348   0.343  -1.375  0.00  0.00    +0.152 HD
BRANCH  17  22
ATOM     19  C   UNL     1      -1.359   3.240  -0.954  0.00  0.00    +0.000 A 
ATOM     20  C   UNL     1      -1.276   2.008  -1.576  0.00  0.00    +0.002 A 
ATOM     21  C   UNL     1      -0.060   1.360  -1.668  0.00  0.00    +0.023 A 
ATOM     22  C   UNL     1       1.083   1.953  -1.145  0.00  0.00    +0.031 A 
ATOM     23  C   UNL     1       0.997   3.193  -0.526  0.00  0.00    +0.023 A 
ATOM     24  C   UNL     1      -0.224   3.833  -0.432  0.00  0.00    +0.002 A 
ENDBRANCH  17  22
ENDBRANCH  11  17
ENDBRANCH   7  14
ENDBRANCH   1   8
BRANCH   6  25
ATOM     25  N   UNL     1       6.981   8.286   0.158  0.00  0.00    -0.296 N 
ATOM     26  H   UNL     1       6.274   7.824   0.636  0.00  0.00    +0.154 HD
BRANCH  25  27
ATOM     27  C   UNL     1       6.777   9.536  -0.303  0.00  0.00    +0.141 C 
ATOM     28  S   UNL     1       7.968  10.297  -1.268  0.00  0.00    -0.018 S 
BRANCH  27  29
ATOM     29  N   UNL     1       5.635  10.186  -0.003  0.00  0.00    -0.264 N 
ATOM     30  C   UNL     1       5.431  11.437  -0.464  0.00  0.00    +0.242 C 
ATOM     31  O   UNL     1       6.278  11.978  -1.150  0.00  0.00    -0.270 OA
ATOM     32  H   UNL     1       4.960   9.755   0.544  0.00  0.00    +0.157 HD
BRANCH  30  33
ATOM     33  C   UNL     1       4.233  12.119  -0.150  0.00  0.00    +0.071 C 
ATOM     34  C   UNL     1       4.028  13.378  -0.613  0.00  0.00    +0.051 C 
BRANCH  34  35
ATOM     35  C   UNL     1       2.829  14.061  -0.299  0.00  0.00    +0.128 A 
ATOM     36  C   UNL     1       2.493  15.339  -0.697  0.00  0.00    +0.049 A 
ATOM     37  C   UNL     1       1.223  15.603  -0.162  0.00  0.00    +0.042 A 
ATOM     38  C   UNL     1       0.846  14.506   0.532  0.00  0.00    +0.195 A 
ATOM     39  O   UNL     1       1.813  13.582   0.448  0.00  0.00    -0.464 OA
ENDBRANCH  34  35
ENDBRANCH  30  33
ENDBRANCH  27  29
ENDBRANCH  25  27
ENDBRANCH   6  25
TORSDOF 9
