REMARK  Name = ZINC66860304
REMARK  3 active torsions:
REMARK  status: ('A' for Active; 'I' for Inactive)
REMARK    1  A    between atoms: C_6  and  S_7
REMARK    2  A    between atoms: S_7  and  N_10
REMARK    3  A    between atoms: C_20  and  N_22
REMARK                            x       y       z     vdW  Elec       q    Type
REMARK                         _______ _______ _______ _____ _____    ______ ____
ROOT
ATOM      1  S   UNL     1      -1.383  -1.085   0.004  0.00  0.00    +0.061 S 
ATOM      2  O   UNL     1      -0.853  -2.317   0.472  0.00  0.00    -0.153 OA
ATOM      3  O   UNL     1      -2.481  -0.440   0.636  0.00  0.00    -0.153 OA
ENDROOT
BRANCH   1   9
ATOM      4  C   UNL     1      -0.315   1.424   0.085  0.00  0.00    +0.032 A 
ATOM      5  C   UNL     1       0.724   2.337   0.088  0.00  0.00    +0.049 A 
ATOM      6  C   UNL     1       2.032   1.893   0.010  0.00  0.00    +0.142 A 
ATOM      7  C   UNL     1       2.297   0.526  -0.070  0.00  0.00    +0.078 A 
ATOM      8  C   UNL     1       1.253  -0.383  -0.071  0.00  0.00    +0.055 A 
ATOM      9  C   UNL     1      -0.052   0.070   0.006  0.00  0.00    +0.107 A 
ATOM     10  N   UNL     1       3.627   0.089  -0.150  0.00  0.00    -0.280 N 
ATOM     11  C   UNL     1       4.619   0.951   0.167  0.00  0.00    +0.255 C 
ATOM     12  O   UNL     1       5.778   0.605   0.075  0.00  0.00    -0.272 OA
ATOM     13  C   UNL     1       4.280   2.343   0.633  0.00  0.00    +0.325 C 
ATOM     14  O   UNL     1       3.066   2.776   0.012  0.00  0.00    -0.481 OA
ATOM     15  H   UNL     1       3.832  -0.817  -0.428  0.00  0.00    +0.155 HD
ENDBRANCH   1   9
BRANCH   1  16
ATOM     16  N   UNL     1      -1.820  -1.326  -1.575  0.00  0.00    -0.174 NA
ATOM     17  C   UNL     1      -2.841  -0.478  -2.206  0.00  0.00    +0.128 C 
ATOM     18  C   UNL     1      -2.244   0.143  -3.476  0.00  0.00    +0.123 C 
ATOM     19  N   UNL     1      -1.619  -0.923  -4.271  0.00  0.00    -0.311 N 
ATOM     20  C   UNL     1      -0.598  -1.772  -3.639  0.00  0.00    +0.123 C 
ATOM     21  C   UNL     1      -1.191  -2.389  -2.371  0.00  0.00    +0.128 C 
ATOM     22  C   UNL     1      -1.985  -1.126  -5.596  0.00  0.00    +0.142 A 
ATOM     23  C   UNL     1      -2.780  -0.189  -6.250  0.00  0.00    +0.154 A 
ATOM     24  N   UNL     1      -3.129  -0.381  -7.509  0.00  0.00    -0.256 NA
ATOM     25  C   UNL     1      -2.726  -1.461  -8.152  0.00  0.00    +0.154 A 
ATOM     26  C   UNL     1      -1.932  -2.403  -7.505  0.00  0.00    +0.137 A 
ATOM     27  N   UNL     1      -1.574  -2.211  -6.241  0.00  0.00    -0.215 NA
BRANCH  26  28
ATOM     28  N   UNL     1      -1.509  -3.540  -8.182  0.00  0.00    -0.342 N 
ATOM     29  H   UNL     1      -1.768  -3.678  -9.107  0.00  0.00    +0.144 HD
ATOM     30  H   UNL     1      -0.955  -4.196  -7.731  0.00  0.00    +0.144 HD
ENDBRANCH  26  28
ENDBRANCH   1  16
TORSDOF 3
