REMARK  Name = ZINC05090240
REMARK  5 active torsions:
REMARK  status: ('A' for Active; 'I' for Inactive)
REMARK    1  A    between atoms: C_6  and  N_7
REMARK    2  A    between atoms: N_7  and  C_8
REMARK    3  A    between atoms: C_8  and  C_9
REMARK    4  A    between atoms: N_11  and  C_12
REMARK    5  A    between atoms: C_13  and  C_21
REMARK                            x       y       z     vdW  Elec       q    Type
REMARK                         _______ _______ _______ _____ _____    ______ ____
ROOT
ATOM      1  C   UNL     1      -0.742   1.585  -1.213  0.00  0.00    +0.235 C 
ATOM      2  O   UNL     1      -1.736   2.268  -1.088  0.00  0.00    -0.274 OA
ATOM      3  N   UNL     1      -0.288   1.272  -2.443  0.00  0.00    -0.278 N 
ATOM      4  H   UNL     1       0.507   0.726  -2.543  0.00  0.00    +0.155 HD
ENDROOT
BRANCH   3   5
ATOM      5  C   UNL     1      -0.959   1.732  -3.566  0.00  0.00    +0.084 A 
ATOM      6  C   UNL     1      -0.647   1.523  -4.902  0.00  0.00    +0.068 A 
ATOM      7  C   UNL     1      -1.523   2.118  -5.897  0.00  0.00    -0.023 A 
ATOM      8  C   UNL     1      -2.558   2.829  -5.401  0.00  0.00    -0.004 A 
ATOM      9  S   UNL     1      -2.386   2.712  -3.643  0.00  0.00    -0.077 S 
ATOM     10  C   UNL     1      -3.612   3.554  -6.180  0.00  0.00    +0.043 C 
ATOM     11  C   UNL     1      -3.135   3.685  -7.634  0.00  0.00    +0.005 C 
ATOM     12  C   UNL     1      -2.628   2.321  -8.111  0.00  0.00    +0.005 C 
ATOM     13  C   UNL     1      -1.318   1.975  -7.401  0.00  0.00    +0.037 C 
BRANCH   6  14
ATOM     14  C   UNL     1       0.521   0.728  -5.295  0.00  0.00    +0.244 C 
ATOM     15  O   UNL     1       0.412  -0.473  -5.461  0.00  0.00    -0.270 OA
ATOM     16  N   UNL     1       1.715   1.327  -5.473  0.00  0.00    -0.325 N 
ATOM     17  H   UNL     1       1.802   2.284  -5.340  0.00  0.00    +0.145 HD
ATOM     18  H   UNL     1       2.487   0.801  -5.732  0.00  0.00    +0.145 HD
ENDBRANCH   6  14
ENDBRANCH   3   5
BRANCH   1  19
ATOM     19  C   UNL     1      -0.013   1.086   0.008  0.00  0.00    +0.198 C 
BRANCH  19  20
ATOM     20  N   UNL     1      -0.698   1.558   1.213  0.00  0.00    -0.335 N 
ATOM     21  H   UNL     1      -1.495   2.106   1.135  0.00  0.00    +0.147 HD
BRANCH  20  27
ATOM     22  C   UNL     1       0.933   0.432   2.590  0.00  0.00    +0.024 A 
ATOM     23  C   UNL     1       1.423   0.105   3.839  0.00  0.00    +0.017 A 
ATOM     24  C   UNL     1       0.774   0.552   4.977  0.00  0.00    +0.018 A 
ATOM     25  C   UNL     1      -0.363   1.332   4.866  0.00  0.00    +0.017 A 
ATOM     26  C   UNL     1      -0.854   1.668   3.620  0.00  0.00    +0.024 A 
ATOM     27  C   UNL     1      -0.204   1.220   2.476  0.00  0.00    +0.028 A 
ATOM     28 BR   UNL     1       1.444   0.096   6.685  0.00  0.00    -0.050 Br
ENDBRANCH  20  27
ENDBRANCH  19  20
ENDBRANCH   1  19
TORSDOF 5
