REMARK  Name = ZINC12505884
REMARK  2 active torsions:
REMARK  status: ('A' for Active; 'I' for Inactive)
REMARK    1  A    between atoms: C_13  and  N_20
REMARK    2  A    between atoms: C_14  and  C_17
REMARK                            x       y       z     vdW  Elec       q    Type
REMARK                         _______ _______ _______ _____ _____    ______ ____
ROOT
ATOM      1  C   UNL     1      -0.019   1.518   0.010  0.00  0.00    +0.000 C 
ATOM      2  C   UNL     1       1.433   2.015  -0.001  0.00  0.00    +0.002 C 
ATOM      3  C   UNL     1       2.031   1.664  -1.360  0.00  0.00    +0.023 C 
ATOM      4  C   UNL     1       1.912   0.215  -1.700  0.00  0.00    +0.079 C 
ATOM      5  C   UNL     1       0.729  -0.579  -1.191  0.00  0.00    +0.012 C 
ATOM      6  C   UNL     1       0.002  -0.004   0.002  0.00  0.00    +0.005 C 
ATOM      7  C   UNL     1       1.349  -1.949  -0.769  0.00  0.00    +0.036 C 
ATOM      8  C   UNL     1       2.797  -1.540  -0.428  0.00  0.00    +0.147 C 
ATOM      9  N   UNL     1       3.126  -0.565  -1.485  0.00  0.00    -0.305 N 
ATOM     10  C   UNL     1       4.404  -0.833  -1.837  0.00  0.00    +0.100 C 
ATOM     11  C   UNL     1       4.749  -2.143  -1.479  0.00  0.00    +0.116 C 
ATOM     12  C   UNL     1       3.767  -2.673  -0.643  0.00  0.00    +0.191 C 
ATOM     13  O   UNL     1       3.709  -3.794  -0.177  0.00  0.00    -0.290 OA
ENDROOT
BRANCH  11  14
ATOM     14  C   UNL     1       5.954  -2.852  -1.915  0.00  0.00    +0.248 C 
ATOM     15  O   UNL     1       6.753  -2.300  -2.648  0.00  0.00    -0.270 OA
ATOM     16  N   UNL     1       6.179  -4.116  -1.503  0.00  0.00    -0.325 N 
ATOM     17  H   UNL     1       5.542  -4.556  -0.918  0.00  0.00    +0.145 HD
ATOM     18  H   UNL     1       6.978  -4.585  -1.791  0.00  0.00    +0.145 HD
ENDBRANCH  11  14
BRANCH  10  19
ATOM     19  N   UNL     1       5.239   0.047  -2.454  0.00  0.00    -0.346 N 
ATOM     20  H   UNL     1       4.928   0.940  -2.671  0.00  0.00    +0.143 HD
ATOM     21  H   UNL     1       6.145  -0.219  -2.677  0.00  0.00    +0.143 HD
ENDBRANCH  10  19
TORSDOF 2
