REMARK  Name = ZINC05186737
REMARK  8 active torsions:
REMARK  status: ('A' for Active; 'I' for Inactive)
REMARK    1  A    between atoms: C_1  and  C_2
REMARK    2  A    between atoms: C_2  and  C_4
REMARK    3  A    between atoms: C_4  and  O_28
REMARK    4  A    between atoms: C_9  and  C_27
REMARK    5  A    between atoms: C_19  and  C_26
REMARK    6  A    between atoms: C_22  and  O_25
REMARK    7  A    between atoms: O_28  and  C_29
REMARK    8  A    between atoms: C_29  and  C_31
REMARK                            x       y       z     vdW  Elec       q    Type
REMARK                         _______ _______ _______ _____ _____    ______ ____
ROOT
ATOM      1  C   UNL     1      -0.583  -2.033  -0.004  0.00  0.00    +0.176 C 
ATOM      2  C   UNL     1       0.199  -2.237  -1.318  0.00  0.00    +0.057 C 
ATOM      3  C   UNL     1      -0.686  -3.126  -2.219  0.00  0.00    +0.009 C 
ATOM      4  C   UNL     1      -2.129  -2.875  -1.688  0.00  0.00    +0.003 C 
ATOM      5  C   UNL     1      -1.893  -2.815  -0.169  0.00  0.00    +0.018 C 
ATOM      6  C   UNL     1      -3.047  -2.185   0.576  0.00  0.00    +0.011 C 
ATOM      7  C   UNL     1      -3.373  -0.806   0.007  0.00  0.00    +0.005 C 
ATOM      8  C   UNL     1      -3.758  -0.956  -1.471  0.00  0.00    +0.003 C 
ATOM      9  C   UNL     1      -2.562  -1.513  -2.242  0.00  0.00    +0.000 C 
ATOM     10  C   UNL     1      -2.980  -1.716  -3.706  0.00  0.00    +0.031 C 
ATOM     11  C   UNL     1      -3.550  -0.446  -4.247  0.00  0.00    -0.027 C 
ATOM     12  C   UNL     1      -4.052   0.491  -3.507  0.00  0.00    -0.065 C 
ATOM     13  C   UNL     1      -4.122   0.426  -2.007  0.00  0.00    -0.008 C 
ATOM     14  C   UNL     1      -3.199   1.493  -1.424  0.00  0.00    +0.014 C 
ATOM     15  C   UNL     1      -3.069   2.665  -2.396  0.00  0.00    +0.032 C 
ATOM     16  C   UNL     1      -4.374   2.897  -3.154  0.00  0.00    +0.119 C 
ATOM     17  C   UNL     1      -4.596   1.756  -4.157  0.00  0.00    +0.062 C 
ATOM     18  C   UNL     1      -5.556   0.745  -1.579  0.00  0.00    +0.016 C 
ATOM     19  C   UNL     1      -1.694  -4.236   0.361  0.00  0.00    +0.016 C 
ENDROOT
BRANCH   1  21
ATOM     20  C   UNL     1      -0.067  -2.074   2.554  0.00  0.00    +0.090 C 
ATOM     21  C   UNL     1       0.204  -2.577   1.160  0.00  0.00    +0.174 C 
ATOM     22  O   UNL     1       1.053  -3.416   0.975  0.00  0.00    -0.293 OA
ENDBRANCH   1  21
BRANCH  16  23
ATOM     23  O   UNL     1      -5.462   2.936  -2.229  0.00  0.00    -0.391 OA
ATOM     24  H   UNL     1      -6.325   3.077  -2.642  0.00  0.00    +0.210 HD
ENDBRANCH  16  23
BRANCH   1  25
ATOM     25  O   UNL     1      -0.864  -0.622   0.198  0.00  0.00    -0.450 OA
BRANCH  25  26
ATOM     26  C   UNL     1       0.191   0.203   0.286  0.00  0.00    +0.305 C 
ATOM     27  O   UNL     1       1.312  -0.249   0.291  0.00  0.00    -0.251 OA
ATOM     28  C   UNL     1      -0.022   1.692   0.379  0.00  0.00    +0.136 C 
ENDBRANCH  25  26
ENDBRANCH   1  25
TORSDOF 4
