REMARK  Name = ZINC22424167
REMARK  13 active torsions:
REMARK  status: ('A' for Active; 'I' for Inactive)
REMARK    1  A    between atoms: C_1  and  C_2
REMARK    2  A    between atoms: C_2  and  O_3
REMARK    3  A    between atoms: O_3  and  C_4
REMARK    4  A    between atoms: C_7  and  C_13
REMARK    5  A    between atoms: C_9  and  O_10
REMARK    6  A    between atoms: O_10  and  C_11
REMARK    7  A    between atoms: C_11  and  C_12
REMARK    8  A    between atoms: C_13  and  C_15
REMARK    9  A    between atoms: C_13  and  N_18
REMARK   10  A    between atoms: C_15  and  C_16
REMARK   11  A    between atoms: C_15  and  C_17
REMARK   12  A    between atoms: C_19  and  C_21
REMARK   13  A    between atoms: C_24  and  N_27
REMARK                            x       y       z     vdW  Elec       q    Type
REMARK                         _______ _______ _______ _____ _____    ______ ____
ROOT
ATOM      1  N   UNL     1      -5.141   4.818  -0.287  0.00  0.00    -0.304 N 
ATOM      2  C   UNL     1      -5.059   3.478  -0.168  0.00  0.00    +0.245 C 
ATOM      3  O   UNL     1      -6.073   2.811  -0.099  0.00  0.00    -0.270 OA
ATOM      4  H   UNL     1      -4.224   5.422  -0.350  0.00  0.00    +0.150 HD
ENDROOT
BRANCH   2   5
ATOM      5  C   UNL     1      -3.738   2.821  -0.122  0.00  0.00    +0.037 A 
ATOM      6  C   UNL     1      -3.651   1.432   0.002  0.00  0.00    +0.015 A 
ATOM      7  C   UNL     1      -2.418   0.822   0.044  0.00  0.00    +0.024 A 
ATOM      8  C   UNL     1      -1.259   1.587  -0.036  0.00  0.00    +0.035 A 
ATOM      9  C   UNL     1      -1.342   2.971  -0.154  0.00  0.00    +0.024 A 
ATOM     10  C   UNL     1      -2.572   3.587  -0.202  0.00  0.00    +0.015 A 
BRANCH   8  11
ATOM     11  N   UNL     1      -0.011   0.966   0.007  0.00  0.00    -0.270 N 
ATOM     12  C   UNL     1       1.024   1.576   0.618  0.00  0.00    +0.301 C 
ATOM     13  O   UNL     1       0.892   2.700   1.061  0.00  0.00    -0.253 OA
ATOM     14  N   UNL     1       2.207   0.940   0.736  0.00  0.00    -0.313 N 
ATOM     15  H   UNL     1       0.128  -0.022  -0.456  0.00  0.00    +0.156 HD
ATOM     16  H   UNL     1       3.052   1.438   1.234  0.00  0.00    +0.146 HD
ATOM     17  H   UNL     1       2.326  -0.077   0.334  0.00  0.00    +0.146 HD
ENDBRANCH   8  11
ENDBRANCH   2   5
BRANCH   1  18
ATOM     18  C   UNL     1      -6.452   5.471  -0.333  0.00  0.00    +0.106 C 
BRANCH  18  22
ATOM     19  C   UNL     1      -6.107   9.210  -2.379  0.00  0.00    +0.162 A 
ATOM     20  C   UNL     1      -5.114   8.802  -1.502  0.00  0.00    +0.050 A 
ATOM     21  C   UNL     1      -5.229   7.593  -0.842  0.00  0.00    +0.009 A 
ATOM     22  C   UNL     1      -6.332   6.788  -1.054  0.00  0.00    -0.023 A 
ATOM     23  C   UNL     1      -7.324   7.186  -1.932  0.00  0.00    +0.055 A 
ATOM     24  C   UNL     1      -7.218   8.399  -2.593  0.00  0.00    +0.162 A 
BRANCH  19  25
ATOM     25  O   UNL     1      -5.995  10.399  -3.030  0.00  0.00    -0.489 OA
BRANCH  25  27
ATOM     26  C   UNL     1      -4.879  12.470  -3.579  0.00  0.00    +0.048 C 
ATOM     27  C   UNL     1      -4.827  11.178  -2.762  0.00  0.00    +0.226 C 
ENDBRANCH  25  27
ENDBRANCH  19  25
BRANCH  24  28
ATOM     28  O   UNL     1      -8.194   8.795  -3.453  0.00  0.00    -0.489 OA
BRANCH  28  29
ATOM     29  C   UNL     1      -9.305   7.912  -3.622  0.00  0.00    +0.226 C 
ATOM     30  C   UNL     1     -10.293   8.522  -4.619  0.00  0.00    +0.048 C 
ENDBRANCH  28  29
ENDBRANCH  24  28
ENDBRANCH  18  22
BRANCH  18  31
ATOM     31  C   UNL     1      -6.950   5.714   1.093  0.00  0.00    +0.008 C 
ATOM     32  C   UNL     1      -8.320   6.395   1.045  0.00  0.00    +0.009 C 
ATOM     33  C   UNL     1      -7.072   4.376   1.826  0.00  0.00    +0.009 C 
ENDBRANCH  18  31
ENDBRANCH   1  18
TORSDOF 9
