REMARK  Name = ZINC59924641
REMARK  6 active torsions:
REMARK  status: ('A' for Active; 'I' for Inactive)
REMARK    1  A    between atoms: C_3  and  O_21
REMARK    2  A    between atoms: C_6  and  C_7
REMARK    3  A    between atoms: N_9  and  C_10
REMARK    4  A    between atoms: C_14  and  S_16
REMARK    5  A    between atoms: S_16  and  N_19
REMARK    6  A    between atoms: O_21  and  C_22
REMARK                            x       y       z     vdW  Elec       q    Type
REMARK                         _______ _______ _______ _____ _____    ______ ____
ROOT
ATOM      1  C   UNL     1      -1.264  -0.761   0.013  0.00  0.00    +0.248 C 
ATOM      2  O   UNL     1      -2.326  -0.169   0.035  0.00  0.00    -0.270 OA
ATOM      3  N   UNL     1      -1.244  -2.109   0.003  0.00  0.00    -0.281 N 
ATOM      4  H   UNL     1      -0.401  -2.581  -0.083  0.00  0.00    +0.155 HD
ENDROOT
BRANCH   3   5
ATOM      5  C   UNL     1      -2.439  -2.827   0.117  0.00  0.00    +0.038 A 
ATOM      6  C   UNL     1      -2.465  -4.029   0.812  0.00  0.00    +0.061 A 
ATOM      7  C   UNL     1      -3.648  -4.736   0.922  0.00  0.00    +0.127 A 
ATOM      8  C   UNL     1      -4.806  -4.246   0.340  0.00  0.00    +0.067 A 
ATOM      9  C   UNL     1      -4.781  -3.050  -0.352  0.00  0.00    +0.109 A 
ATOM     10  C   UNL     1      -3.603  -2.336  -0.461  0.00  0.00    +0.052 A 
ATOM     11  F   UNL     1      -3.675  -5.905   1.598  0.00  0.00    -0.205 F 
BRANCH   9  12
ATOM     12  S   UNL     1      -6.256  -2.430  -1.091  0.00  0.00    +0.056 S 
ATOM     13  O   UNL     1      -5.850  -1.567  -2.145  0.00  0.00    -0.153 OA
ATOM     14  O   UNL     1      -7.103  -3.550  -1.308  0.00  0.00    -0.153 OA
BRANCH  12  15
ATOM     15  N   UNL     1      -7.007  -1.480   0.037  0.00  0.00    -0.204 NA
ATOM     16  H   UNL     1      -6.609  -1.361   0.914  0.00  0.00    +0.144 HD
ATOM     17  H   UNL     1      -7.845  -1.041  -0.178  0.00  0.00    +0.144 HD
ENDBRANCH  12  15
ENDBRANCH   9  12
ENDBRANCH   3   5
BRANCH   1  23
ATOM     18  C   UNL     1      -0.017   1.393   0.006  0.00  0.00    +0.016 A 
ATOM     19  C   UNL     1       1.168   2.096  -0.010  0.00  0.00    +0.047 A 
ATOM     20  C   UNL     1       2.380   1.417  -0.035  0.00  0.00    +0.130 A 
ATOM     21  C   UNL     1       2.403   0.027  -0.045  0.00  0.00    +0.047 A 
ATOM     22  C   UNL     1       1.224  -0.683  -0.030  0.00  0.00    +0.016 A 
ATOM     23  C   UNL     1       0.002  -0.004  -0.004  0.00  0.00    +0.037 A 
BRANCH  20  24
ATOM     24  O   UNL     1       3.545   2.113  -0.050  0.00  0.00    -0.406 OA
BRANCH  24  25
ATOM     25  C   UNL     1       4.755   1.353  -0.075  0.00  0.00    +0.575 C 
ATOM     26  F   UNL     1       4.780   0.554  -1.223  0.00  0.00    -0.133 F 
ATOM     27  F   UNL     1       5.851   2.222  -0.088  0.00  0.00    -0.133 F 
ATOM     28  F   UNL     1       4.818   0.539   1.061  0.00  0.00    -0.133 F 
ENDBRANCH  24  25
ENDBRANCH  20  24
ENDBRANCH   1  23
TORSDOF 6
