REMARK  Name = ZINC03380265
REMARK  9 active torsions:
REMARK  status: ('A' for Active; 'I' for Inactive)
REMARK    1  A    between atoms: C_1  and  O_2
REMARK    2  A    between atoms: O_2  and  C_3
REMARK    3  A    between atoms: C_6  and  C_9
REMARK    4  A    between atoms: C_11  and  C_29
REMARK    5  A    between atoms: C_15  and  C_17
REMARK    6  A    between atoms: C_17  and  S_18
REMARK    7  A    between atoms: S_18  and  C_19
REMARK    8  A    between atoms: C_22  and  C_25
REMARK    9  A    between atoms: N_23  and  N_24
REMARK                            x       y       z     vdW  Elec       q    Type
REMARK                         _______ _______ _______ _____ _____    ______ ____
ROOT
ATOM      1  C   UNL     1       2.495  -2.493  -4.364  0.00  0.00    +0.050 C 
ATOM      2  C   UNL     1       2.587  -3.811  -4.522  0.00  0.00    +0.030 C 
ATOM      3  C   UNL     1       3.326  -4.060  -5.818  0.00  0.00    +0.187 C 
ATOM      4  N   UNL     1       3.624  -2.718  -6.343  0.00  0.00    -0.207 N 
ATOM      5  N   UNL     1       3.088  -1.812  -5.417  0.00  0.00    -0.261 N 
ATOM      6  C   UNL     1       4.275  -2.420  -7.485  0.00  0.00    +0.243 C 
ATOM      7  O   UNL     1       4.684  -3.311  -8.199  0.00  0.00    -0.273 OA
ATOM      8  H   UNL     1       3.129  -0.846  -5.500  0.00  0.00    +0.170 HD
ENDROOT
BRANCH   1  12
ATOM      9  C   UNL     1       0.606  -0.607  -1.055  0.00  0.00    +0.120 A 
ATOM     10  C   UNL     1       1.172   0.164  -2.062  0.00  0.00    +0.046 A 
ATOM     11  C   UNL     1       1.786  -0.444  -3.136  0.00  0.00    +0.013 A 
ATOM     12  C   UNL     1       1.837  -1.836  -3.211  0.00  0.00    -0.003 A 
ATOM     13  C   UNL     1       1.267  -2.608  -2.199  0.00  0.00    +0.013 A 
ATOM     14  C   UNL     1       0.659  -1.993  -1.125  0.00  0.00    +0.046 A 
BRANCH   9  16
ATOM     15  C   UNL     1      -0.017   1.425   0.010  0.00  0.00    +0.277 C 
ATOM     16  O   UNL     1       0.002  -0.004   0.002  0.00  0.00    -0.495 OA
ENDBRANCH   9  16
ENDBRANCH   1  12
BRANCH   3  17
ATOM     17  C   UNL     1       4.601  -4.820  -5.557  0.00  0.00    +0.131 A 
ATOM     18  C   UNL     1       4.788  -6.136  -5.760  0.00  0.00    +0.047 A 
ATOM     19  C   UNL     1       6.121  -6.423  -5.386  0.00  0.00    +0.041 A 
ATOM     20  C   UNL     1       6.669  -5.264  -4.977  0.00  0.00    +0.195 A 
ATOM     21  O   UNL     1       5.745  -4.295  -5.088  0.00  0.00    -0.466 OA
ENDBRANCH   3  17
BRANCH   6  22
ATOM     22  C   UNL     1       4.495  -0.981  -7.873  0.00  0.00    +0.175 C 
BRANCH  22  23
ATOM     23  S   UNL     1       5.394  -0.910  -9.448  0.00  0.00    -0.075 S 
BRANCH  23  24
ATOM     24  C   UNL     1       5.570   0.815  -9.761  0.00  0.00    +0.209 A 
ATOM     25  N   UNL     1       5.141   1.794  -8.999  0.00  0.00    -0.121 NA
ATOM     26  N   UNL     1       5.441   2.925  -9.532  0.00  0.00    -0.123 NA
ATOM     27  C   UNL     1       6.074   2.736 -10.655  0.00  0.00    +0.255 A 
ATOM     28  N   UNL     1       6.184   1.386 -10.838  0.00  0.00    -0.220 N 
BRANCH  27  29
ATOM     29  C   UNL     1       6.594   3.808 -11.578  0.00  0.00    +0.454 C 
ATOM     30  F   UNL     1       6.608   5.035 -10.906  0.00  0.00    -0.163 F 
ATOM     31  F   UNL     1       7.893   3.484 -11.983  0.00  0.00    -0.163 F 
ATOM     32  F   UNL     1       5.764   3.901 -12.700  0.00  0.00    -0.163 F 
ENDBRANCH  27  29
BRANCH  28  33
ATOM     33  N   UNL     1       6.782   0.741 -11.884  0.00  0.00    -0.295 N 
ATOM     34  H   UNL     1       6.122   0.570 -12.628  0.00  0.00    +0.163 HD
ATOM     35  H   UNL     1       7.579   1.260 -12.220  0.00  0.00    +0.163 HD
ENDBRANCH  28  33
ENDBRANCH  23  24
ENDBRANCH  22  23
ENDBRANCH   6  22
TORSDOF 8
