REMARK  Name = ZINC45601348
REMARK  12 active torsions:
REMARK  status: ('A' for Active; 'I' for Inactive)
REMARK    1  A    between atoms: C_1  and  C_2
REMARK    2  A    between atoms: C_2  and  O_3
REMARK    3  A    between atoms: O_3  and  C_4
REMARK    4  A    between atoms: C_4  and  C_6
REMARK    5  A    between atoms: C_7  and  C_19
REMARK    6  A    between atoms: C_12  and  C_14
REMARK    7  A    between atoms: C_19  and  O_20
REMARK    8  A    between atoms: O_20  and  C_21
REMARK    9  A    between atoms: C_21  and  C_23
REMARK   10  A    between atoms: C_26  and  C_33
REMARK   11  A    between atoms: C_27  and  S_29
REMARK   12  A    between atoms: S_29  and  N_32
REMARK                            x       y       z     vdW  Elec       q    Type
REMARK                         _______ _______ _______ _____ _____    ______ ____
ROOT
ATOM      1  C   UNL     1      -2.795  -2.410   0.126  0.00  0.00    +0.084 C 
ATOM      2  C   UNL     1      -2.985  -3.731  -0.085  0.00  0.00    +0.061 C 
ATOM      3  N   UNL     1      -4.241  -4.255  -0.186  0.00  0.00    -0.269 N 
ATOM      4  C   UNL     1      -5.360  -3.526  -0.089  0.00  0.00    +0.305 C 
ATOM      5  O   UNL     1      -6.436  -4.083  -0.192  0.00  0.00    -0.252 OA
ATOM      6  N   UNL     1      -5.333  -2.195   0.121  0.00  0.00    -0.285 N 
ATOM      7  C   UNL     1      -4.024  -1.533   0.251  0.00  0.00    +0.179 C 
ATOM      8  H   UNL     1      -4.328  -5.210  -0.337  0.00  0.00    +0.156 HD
ATOM      9  H   UNL     1      -6.156  -1.686   0.188  0.00  0.00    +0.151 HD
ENDROOT
BRANCH   7  10
ATOM     10  C   UNL     1      -3.942  -0.465  -0.809  0.00  0.00    +0.130 A 
ATOM     11  C   UNL     1      -3.533   0.803  -0.618  0.00  0.00    +0.047 A 
ATOM     12  C   UNL     1      -3.615   1.452  -1.872  0.00  0.00    +0.041 A 
ATOM     13  C   UNL     1      -4.069   0.543  -2.753  0.00  0.00    +0.195 A 
ATOM     14  O   UNL     1      -4.260  -0.618  -2.105  0.00  0.00    -0.466 OA
ENDBRANCH   7  10
BRANCH   1  15
ATOM     15  C   UNL     1      -1.494  -1.866   0.231  0.00  0.00    +0.339 C 
ATOM     16  O   UNL     1      -1.029  -1.608   1.326  0.00  0.00    -0.245 OA
BRANCH  15  17
ATOM     17  O   UNL     1      -0.768  -1.632  -0.882  0.00  0.00    -0.462 OA
BRANCH  17  19
ATOM     18  C   UNL     1       1.203  -0.887  -2.065  0.00  0.00    +0.048 C 
ATOM     19  C   UNL     1       0.538  -1.081  -0.701  0.00  0.00    +0.229 C 
ENDBRANCH  17  19
ENDBRANCH  15  17
ENDBRANCH   1  15
BRANCH   2  20
ATOM     20  C   UNL     1      -1.789  -4.640  -0.210  0.00  0.00    +0.283 C 
BRANCH  20  21
ATOM     21  O   UNL     1      -1.771  -5.556   0.886  0.00  0.00    -0.455 OA
BRANCH  21  22
ATOM     22  C   UNL     1      -0.759  -6.445   0.924  0.00  0.00    +0.340 C 
ATOM     23  O   UNL     1       0.085  -6.442   0.051  0.00  0.00    -0.245 OA
BRANCH  22  24
ATOM     24  C   UNL     1      -0.675  -7.423   2.028  0.00  0.00    +0.061 A 
ATOM     25  C   UNL     1      -1.647  -7.433   3.031  0.00  0.00    +0.015 A 
ATOM     26  C   UNL     1      -1.563  -8.349   4.059  0.00  0.00    +0.006 A 
ATOM     27  C   UNL     1      -0.519  -9.256   4.098  0.00  0.00    -0.024 A 
ATOM     28  C   UNL     1       0.448  -9.251   3.108  0.00  0.00    +0.109 A 
ATOM     29  C   UNL     1       0.372  -8.345   2.071  0.00  0.00    +0.043 A 
ATOM     30  C   UNL     1      -0.433 -10.254   5.224  0.00  0.00    +0.046 C 
BRANCH  28  31
ATOM     31  S   UNL     1       1.773 -10.410   3.168  0.00  0.00    +0.056 S 
ATOM     32  O   UNL     1       1.188 -11.685   3.392  0.00  0.00    -0.153 OA
ATOM     33  O   UNL     1       2.601 -10.139   2.045  0.00  0.00    -0.153 OA
BRANCH  31  34
ATOM     34  N   UNL     1       2.671 -10.058   4.514  0.00  0.00    -0.204 NA
ATOM     35  H   UNL     1       3.147 -10.764   4.978  0.00  0.00    +0.144 HD
ATOM     36  H   UNL     1       2.721  -9.145   4.838  0.00  0.00    +0.144 HD
ENDBRANCH  31  34
ENDBRANCH  28  31
ENDBRANCH  22  24
ENDBRANCH  21  22
ENDBRANCH  20  21
ENDBRANCH   2  20
TORSDOF 10
