REMARK  Name = ZINC39722434
REMARK  11 active torsions:
REMARK  status: ('A' for Active; 'I' for Inactive)
REMARK    1  A    between atoms: C_1  and  C_2
REMARK    2  A    between atoms: C_2  and  O_3
REMARK    3  A    between atoms: O_3  and  C_4
REMARK    4  A    between atoms: C_4  and  C_5
REMARK    5  A    between atoms: C_5  and  C_6
REMARK    6  A    between atoms: C_6  and  N_7
REMARK    7  A    between atoms: C_8  and  C_31
REMARK    8  A    between atoms: C_12  and  S_14
REMARK    9  A    between atoms: S_14  and  C_15
REMARK   10  A    between atoms: C_15  and  C_16
REMARK   11  A    between atoms: C_24  and  C_28
REMARK                            x       y       z     vdW  Elec       q    Type
REMARK                         _______ _______ _______ _____ _____    ______ ____
ROOT
ATOM      1  N   UNL     1      -4.155  -4.313   0.036  0.00  0.00    +0.411 N 
ATOM      2  C   UNL     1      -4.546  -5.738  -0.131  0.00  0.00    +0.049 C 
ATOM      3  N   UNL     1      -5.927  -5.767   0.418  0.00  0.00    -0.267 NA
ATOM      4  N   UNL     1      -5.886  -4.854   1.563  0.00  0.00    -0.262 NA
ATOM      5  C   UNL     1      -4.764  -3.922   1.328  0.00  0.00    +0.077 C 
ATOM      6  H   UNL     1      -6.181  -6.699   0.708  0.00  0.00    +0.139 HD
ATOM      7  H   UNL     1      -6.757  -4.354   1.659  0.00  0.00    +0.140 HD
ATOM      8  H   UNL     1      -4.528  -3.751  -0.715  0.00  0.00    -0.075 HD
ENDROOT
BRANCH   2   9
ATOM      9  C   UNL     1      -4.539  -6.126  -1.587  0.00  0.00    -0.046 A 
ATOM     10  C   UNL     1      -3.627  -7.056  -2.050  0.00  0.00    +0.005 A 
ATOM     11  C   UNL     1      -3.619  -7.413  -3.385  0.00  0.00    +0.020 A 
ATOM     12  C   UNL     1      -4.524  -6.838  -4.259  0.00  0.00    +0.041 A 
ATOM     13  C   UNL     1      -5.437  -5.907  -3.796  0.00  0.00    +0.020 A 
ATOM     14  C   UNL     1      -5.447  -5.556  -2.459  0.00  0.00    +0.005 A 
ATOM     15 CL   UNL     1      -4.515  -7.285  -5.937  0.00  0.00    -0.084 Cl
ENDBRANCH   2   9
BRANCH   1  16
ATOM     16  C   UNL     1      -2.693  -4.184   0.097  0.00  0.00    -0.070 C 
BRANCH  16  17
ATOM     17  C   UNL     1      -2.317  -2.710   0.258  0.00  0.00    +0.010 C 
BRANCH  17  18
ATOM     18  C   UNL     1      -0.794  -2.577   0.322  0.00  0.00    +0.158 C 
BRANCH  18  19
ATOM     19  O   UNL     1      -0.442  -1.200   0.473  0.00  0.00    -0.380 OA
BRANCH  19  21
ATOM     20  C   UNL     1       1.223   0.536   0.703  0.00  0.00    +0.034 C 
ATOM     21  C   UNL     1       0.965  -0.964   0.543  0.00  0.00    +0.156 C 
ENDBRANCH  19  21
ENDBRANCH  18  19
ENDBRANCH  17  18
ENDBRANCH  16  17
ENDBRANCH   1  16
BRANCH   5  22
ATOM     22  S   UNL     1      -5.381  -2.219   1.235  0.00  0.00    -0.152 S 
BRANCH  22  23
ATOM     23  C   UNL     1      -6.605  -2.267  -0.103  0.00  0.00    +0.143 C 
BRANCH  23  24
ATOM     24  C   UNL     1      -7.202  -0.896  -0.287  0.00  0.00    +0.120 A 
ATOM     25  N   UNL     1      -8.150  -0.729  -1.246  0.00  0.00    -0.310 N 
ATOM     26  H   UNL     1      -8.422  -1.486  -1.788  0.00  0.00    +0.170 HD
ATOM     27  C   UNL     1      -8.717   0.482  -1.451  0.00  0.00    +0.259 A 
ATOM     28  O   UNL     1      -9.568   0.645  -2.306  0.00  0.00    -0.267 OA
ATOM     29  C   UNL     1      -8.266   1.595  -0.598  0.00  0.00    +0.065 A 
ATOM     30  C   UNL     1      -8.790   2.880  -0.730  0.00  0.00    +0.016 A 
ATOM     31  C   UNL     1      -8.343   3.884   0.082  0.00  0.00    +0.016 A 
ATOM     32  C   UNL     1      -7.361   3.633   1.049  0.00  0.00    +0.065 A 
ATOM     33  C   UNL     1      -6.826   2.358   1.197  0.00  0.00    +0.043 A 
ATOM     34  C   UNL     1      -7.276   1.326   0.372  0.00  0.00    +0.079 A 
ATOM     35  N   UNL     1      -6.788   0.065   0.482  0.00  0.00    -0.233 NA
BRANCH  32  36
ATOM     36  C   UNL     1      -6.891   4.732   1.919  0.00  0.00    +0.387 C 
ATOM     37  O   UNL     1      -7.358   5.855   1.792  0.00  0.00    -0.241 OA
ATOM     38  O   UNL     1      -6.034   4.519   2.764  0.00  0.00    -0.241 OA
ENDBRANCH  32  36
ENDBRANCH  23  24
ENDBRANCH  22  23
ENDBRANCH   5  22
TORSDOF 10
