REMARK  Name = ZINC02050093
REMARK  10 active torsions:
REMARK  status: ('A' for Active; 'I' for Inactive)
REMARK    1  A    between atoms: C_1  and  C_2
REMARK    2  A    between atoms: C_2  and  O_3
REMARK    3  A    between atoms: O_3  and  C_4
REMARK    4  A    between atoms: C_4  and  C_6
REMARK    5  A    between atoms: C_6  and  C_7
REMARK    6  A    between atoms: C_6  and  N_11
REMARK    7  A    between atoms: C_6  and  N_24
REMARK    8  A    between atoms: N_11  and  C_12
REMARK    9  A    between atoms: C_13  and  C_21
REMARK   10  A    between atoms: C_25  and  C_27
REMARK                            x       y       z     vdW  Elec       q    Type
REMARK                         _______ _______ _______ _____ _____    ______ ____
ROOT
ATOM      1  C   UNL     1      -2.205   7.264  -3.054  0.00  0.00    +0.296 C 
ENDROOT
BRANCH   1   2
ATOM      2  C   UNL     1      -3.477   6.670  -3.664  0.00  0.00    +0.438 C 
ATOM      3  F   UNL     1      -4.597   7.212  -3.026  0.00  0.00    -0.166 F 
ATOM      4  F   UNL     1      -3.524   6.975  -5.029  0.00  0.00    -0.166 F 
ATOM      5  F   UNL     1      -3.470   5.282  -3.496  0.00  0.00    -0.166 F 
ENDBRANCH   1   2
BRANCH   1   6
ATOM      6  N   UNL     1      -2.281   8.726  -3.095  0.00  0.00    -0.274 N 
ATOM      7  C   UNL     1      -2.357   9.364  -4.279  0.00  0.00    +0.248 C 
ATOM      8  O   UNL     1      -2.450   8.725  -5.309  0.00  0.00    -0.270 OA
ATOM      9  H   UNL     1      -2.276   9.235  -2.269  0.00  0.00    +0.152 HD
BRANCH   7  10
ATOM     10  C   UNL     1      -2.327  10.841  -4.327  0.00  0.00    +0.055 A 
ATOM     11  C   UNL     1      -2.226  11.579  -3.145  0.00  0.00    +0.014 A 
ATOM     12  C   UNL     1      -2.193  12.956  -3.197  0.00  0.00    +0.001 A 
ATOM     13  C   UNL     1      -2.271  13.609  -4.415  0.00  0.00    +0.001 A 
ATOM     14  C   UNL     1      -2.377  12.886  -5.589  0.00  0.00    +0.021 A 
ATOM     15  C   UNL     1      -2.406  11.505  -5.553  0.00  0.00    +0.053 A 
ATOM     16 CL   UNL     1      -2.540  10.599  -7.027  0.00  0.00    -0.083 Cl
ENDBRANCH   7  10
ENDBRANCH   1   6
BRANCH   1  17
ATOM     17  C   UNL     1      -1.006   6.800  -3.840  0.00  0.00    +0.359 C 
ATOM     18  O   UNL     1      -0.278   5.950  -3.386  0.00  0.00    -0.246 OA
BRANCH  17  19
ATOM     19  O   UNL     1      -0.748   7.332  -5.045  0.00  0.00    -0.462 OA
BRANCH  19  21
ATOM     20  C   UNL     1       0.554   7.556  -7.091  0.00  0.00    +0.048 C 
ATOM     21  C   UNL     1       0.423   6.838  -5.747  0.00  0.00    +0.229 C 
ENDBRANCH  19  21
ENDBRANCH  17  19
ENDBRANCH   1  17
BRANCH   1  22
ATOM     22  N   UNL     1      -2.078   6.820  -1.663  0.00  0.00    -0.301 N 
ATOM     23  H   UNL     1      -2.156   7.462  -0.940  0.00  0.00    +0.149 HD
BRANCH  22  24
ATOM     24  C   UNL     1      -1.847   5.487  -1.382  0.00  0.00    +0.080 A 
ATOM     25  C   UNL     1      -1.677   4.883  -0.142  0.00  0.00    +0.068 A 
ATOM     26  C   UNL     1      -1.444   3.448  -0.122  0.00  0.00    -0.023 A 
ATOM     27  C   UNL     1      -1.419   2.852  -1.333  0.00  0.00    -0.005 A 
ATOM     28  S   UNL     1      -1.698   4.163  -2.489  0.00  0.00    -0.078 S 
ATOM     29  C   UNL     1      -1.200   1.398  -1.619  0.00  0.00    +0.043 C 
ATOM     30  C   UNL     1      -0.635   0.735  -0.355  0.00  0.00    +0.005 C 
ATOM     31  C   UNL     1      -1.480   1.162   0.849  0.00  0.00    +0.005 C 
ATOM     32  C   UNL     1      -1.240   2.641   1.155  0.00  0.00    +0.037 C 
BRANCH  25  33
ATOM     33  C   UNL     1      -1.730   5.663   1.096  0.00  0.00    +0.244 C 
ATOM     34  O   UNL     1      -0.712   6.154   1.550  0.00  0.00    -0.270 OA
ATOM     35  N   UNL     1      -2.904   5.836   1.734  0.00  0.00    -0.325 N 
ATOM     36  H   UNL     1      -3.715   5.444   1.373  0.00  0.00    +0.145 HD
ATOM     37  H   UNL     1      -2.939   6.352   2.555  0.00  0.00    +0.145 HD
ENDBRANCH  25  33
ENDBRANCH  22  24
ENDBRANCH   1  22
TORSDOF 9
