REMARK  Name = ZINC12542897
REMARK  13 active torsions:
REMARK  status: ('A' for Active; 'I' for Inactive)
REMARK    1  A    between atoms: C_1  and  C_2
REMARK    2  A    between atoms: C_2  and  C_3
REMARK    3  A    between atoms: C_3  and  N_4
REMARK    4  A    between atoms: C_5  and  C_38
REMARK    5  A    between atoms: C_7  and  C_10
REMARK    6  A    between atoms: C_8  and  C_9
REMARK    7  A    between atoms: C_11  and  C_12
REMARK    8  A    between atoms: C_11  and  C_14
REMARK    9  A    between atoms: C_14  and  O_16
REMARK   10  A    between atoms: O_16  and  C_17
REMARK   11  A    between atoms: C_17  and  C_18
REMARK   12  A    between atoms: C_21  and  C_33
REMARK   13  A    between atoms: C_24  and  C_26
REMARK                            x       y       z     vdW  Elec       q    Type
REMARK                         _______ _______ _______ _____ _____    ______ ____
ROOT
ATOM      1  C   UNL     1       6.878  -5.077  -0.616  0.00  0.00    +0.273 C 
ATOM      2  O   UNL     1       7.537  -4.059  -0.604  0.00  0.00    -0.270 OA
ATOM      3  N   UNL     1       7.488  -6.273  -0.736  0.00  0.00    -0.179 N 
ATOM      4  C   UNL     1       8.938  -6.486  -0.866  0.00  0.00    +0.173 C 
ATOM      5  C   UNL     1       9.071  -8.018  -0.964  0.00  0.00    +0.090 C 
ATOM      6  C   UNL     1       7.645  -8.514  -0.886  0.00  0.00    +0.069 C 
ATOM      7  N   UNL     1       6.847  -7.510  -0.763  0.00  0.00    -0.181 NA
ENDROOT
BRANCH   6   8
ATOM      8  C   UNL     1       7.231  -9.928  -0.942  0.00  0.00    -0.002 A 
ATOM      9  C   UNL     1       8.190 -10.934  -1.083  0.00  0.00    +0.011 A 
ATOM     10  C   UNL     1       7.797 -12.256  -1.127  0.00  0.00    +0.020 A 
ATOM     11  C   UNL     1       6.454 -12.585  -1.046  0.00  0.00    +0.041 A 
ATOM     12  C   UNL     1       5.498 -11.592  -0.912  0.00  0.00    +0.020 A 
ATOM     13  C   UNL     1       5.879 -10.267  -0.859  0.00  0.00    +0.011 A 
ATOM     14 CL   UNL     1       5.967 -14.250  -1.111  0.00  0.00    -0.084 Cl
ENDBRANCH   6   8
BRANCH   4  15
ATOM     15  C   UNL     1       9.461  -5.824  -2.115  0.00  0.00    +0.128 A 
ATOM     16  C   UNL     1      10.636  -5.180  -2.230  0.00  0.00    +0.046 A 
ATOM     17  C   UNL     1      10.721  -4.719  -3.564  0.00  0.00    +0.041 A 
ATOM     18  C   UNL     1       9.593  -5.108  -4.184  0.00  0.00    +0.195 A 
ATOM     19  O   UNL     1       8.836  -5.782  -3.302  0.00  0.00    -0.466 OA
ENDBRANCH   4  15
BRANCH   1  20
ATOM     20  C   UNL     1       5.378  -5.005  -0.497  0.00  0.00    +0.330 C 
BRANCH  20  21
ATOM     21  O   UNL     1       4.968  -3.617  -0.380  0.00  0.00    -0.451 OA
BRANCH  21  22
ATOM     22  C   UNL     1       3.646  -3.376  -0.265  0.00  0.00    +0.350 C 
ATOM     23  O   UNL     1       2.857  -4.302  -0.261  0.00  0.00    -0.244 OA
BRANCH  22  25
ATOM     24  C   UNL     1       1.804  -1.751  -0.024  0.00  0.00    +0.035 C 
ATOM     25  C   UNL     1       3.159  -1.997  -0.142  0.00  0.00    +0.136 C 
BRANCH  24  29
ATOM     26  N   UNL     1       0.025   1.359   0.171  0.00  0.00    -0.348 N 
ATOM     27  C   UNL     1       1.195   1.810  -0.369  0.00  0.00    +0.016 A 
ATOM     28  C   UNL     1       2.035   0.774  -0.532  0.00  0.00    +0.030 A 
ATOM     29  C   UNL     1       1.321  -0.418  -0.052  0.00  0.00    -0.003 A 
ATOM     30  C   UNL     1       0.079   0.029   0.369  0.00  0.00    +0.023 A 
ATOM     31  C   UNL     1      -1.020  -0.825   0.946  0.00  0.00    +0.064 C 
ATOM     32  C   UNL     1       1.497   3.242  -0.726  0.00  0.00    +0.063 C 
BRANCH  26  33
ATOM     33  C   UNL     1      -1.130   2.204   0.485  0.00  0.00    +0.121 C 
BRANCH  33  35
ATOM     34  C   UNL     1      -2.217   3.599   2.250  0.00  0.00    +0.005 C 
ATOM     35  C   UNL     1      -1.011   2.717   1.922  0.00  0.00    +0.018 C 
ENDBRANCH  33  35
ENDBRANCH  26  33
ENDBRANCH  24  29
BRANCH  25  36
ATOM     36  C   UNL     1       4.087  -0.907  -0.147  0.00  0.00    +0.106 C 
ATOM     37  N   UNL     1       4.824  -0.042  -0.150  0.00  0.00    -0.191 NA
ENDBRANCH  25  36
ENDBRANCH  22  25
ENDBRANCH  21  22
ENDBRANCH  20  21
ENDBRANCH   1  20
TORSDOF 10
