REMARK  Name = ZINC55154856
REMARK  12 active torsions:
REMARK  status: ('A' for Active; 'I' for Inactive)
REMARK    1  A    between atoms: C_1  and  C_2
REMARK    2  A    between atoms: C_4  and  O_25
REMARK    3  A    between atoms: C_7  and  N_8
REMARK    4  A    between atoms: N_8  and  C_9
REMARK    5  A    between atoms: C_9  and  C_11
REMARK    6  A    between atoms: C_9  and  C_12
REMARK    7  A    between atoms: N_14  and  C_15
REMARK    8  A    between atoms: C_18  and  S_21
REMARK    9  A    between atoms: S_21  and  N_24
REMARK   10  A    between atoms: O_25  and  C_26
REMARK   11  A    between atoms: C_26  and  C_27
REMARK   12  A    between atoms: C_26  and  C_28
REMARK                            x       y       z     vdW  Elec       q    Type
REMARK                         _______ _______ _______ _____ _____    ______ ____
ROOT
ATOM      1  C   UNL     1       0.649   0.158   4.725  0.00  0.00    +0.237 C 
ATOM      2  O   UNL     1       1.024   1.298   4.548  0.00  0.00    -0.273 OA
ATOM      3  N   UNL     1       0.766  -0.408   5.943  0.00  0.00    -0.284 N 
ATOM      4  H   UNL     1       0.539  -1.344   6.066  0.00  0.00    +0.155 HD
ENDROOT
BRANCH   3   5
ATOM      5  C   UNL     1       1.214   0.352   7.028  0.00  0.00    +0.034 A 
ATOM      6  C   UNL     1       2.005  -0.233   8.009  0.00  0.00    +0.025 A 
ATOM      7  C   UNL     1       2.446   0.520   9.079  0.00  0.00    +0.030 A 
ATOM      8  C   UNL     1       2.101   1.856   9.175  0.00  0.00    +0.105 A 
ATOM      9  C   UNL     1       1.313   2.442   8.200  0.00  0.00    +0.030 A 
ATOM     10  C   UNL     1       0.874   1.695   7.125  0.00  0.00    +0.025 A 
BRANCH   8  11
ATOM     11  S   UNL     1       2.665   2.814  10.542  0.00  0.00    +0.056 S 
ATOM     12  O   UNL     1       1.755   3.896  10.683  0.00  0.00    -0.153 OA
ATOM     13  O   UNL     1       2.931   1.899  11.596  0.00  0.00    -0.153 OA
BRANCH  11  14
ATOM     14  N   UNL     1       4.121   3.474  10.109  0.00  0.00    -0.204 NA
ATOM     15  H   UNL     1       4.494   3.293   9.233  0.00  0.00    +0.144 HD
ATOM     16  H   UNL     1       4.601   4.042  10.733  0.00  0.00    +0.144 HD
ENDBRANCH  11  14
ENDBRANCH   8  11
ENDBRANCH   3   5
BRANCH   1  17
ATOM     17  C   UNL     1       0.053  -0.625   3.584  0.00  0.00    +0.154 C 
ATOM     18  C   UNL     1      -1.378  -1.036   3.939  0.00  0.00    +0.038 C 
BRANCH  17  19
ATOM     19  N   UNL     1       0.037   0.206   2.378  0.00  0.00    -0.333 N 
ATOM     20  H   UNL     1       0.025   1.173   2.455  0.00  0.00    +0.147 HD
BRANCH  19  27
ATOM     21  C   UNL     1       0.005   1.894   0.089  0.00  0.00    +0.046 C 
ATOM     22  C   UNL     1       0.023   0.392  -0.030  0.00  0.00    -0.026 A 
ATOM     23  C   UNL     1       0.030  -0.202  -1.277  0.00  0.00    +0.050 A 
ATOM     24  C   UNL     1       0.047  -1.584  -1.387  0.00  0.00    +0.121 A 
ATOM     25  C   UNL     1       0.056  -2.372  -0.244  0.00  0.00    +0.047 A 
ATOM     26  C   UNL     1       0.049  -1.779   1.003  0.00  0.00    +0.027 A 
ATOM     27  C   UNL     1       0.038  -0.395   1.114  0.00  0.00    +0.031 A 
BRANCH  24  28
ATOM     28  O   UNL     1       0.053  -2.168  -2.615  0.00  0.00    -0.489 OA
BRANCH  28  29
ATOM     29  C   UNL     1       0.185  -3.591  -2.656  0.00  0.00    +0.167 C 
ATOM     30  C   UNL     1      -1.192  -4.236  -2.488  0.00  0.00    +0.051 C 
ATOM     31  C   UNL     1       0.784  -4.009  -4.000  0.00  0.00    +0.051 C 
ENDBRANCH  28  29
ENDBRANCH  24  28
ENDBRANCH  19  27
ENDBRANCH  17  19
ENDBRANCH   1  17
TORSDOF 8
