REMARK  Name = ZINC31969689
REMARK  4 active torsions:
REMARK  status: ('A' for Active; 'I' for Inactive)
REMARK    1  A    between atoms: C_1  and  N_2
REMARK    2  A    between atoms: N_2  and  C_3
REMARK    3  A    between atoms: N_2  and  C_4
REMARK    4  A    between atoms: C_6  and  C_20
REMARK                            x       y       z     vdW  Elec       q    Type
REMARK                         _______ _______ _______ _____ _____    ______ ____
ROOT
ATOM      1  C   UNL     1       3.883   3.213  -1.006  0.00  0.00    +0.085 C 
ATOM      2  C   UNL     1       3.744   1.838  -1.038  0.00  0.00    +0.080 C 
ATOM      3  C   UNL     1       3.142   0.977  -0.001  0.00  0.00    +0.103 C 
ATOM      4  N   UNL     1       3.219  -0.256  -0.431  0.00  0.00    -0.169 NA
ATOM      5  N   UNL     1       3.824  -0.290  -1.688  0.00  0.00    -0.131 N 
ATOM      6  C   UNL     1       4.153   0.957  -2.077  0.00  0.00    +0.275 C 
ATOM      7  O   UNL     1       4.698   1.271  -3.121  0.00  0.00    -0.268 OA
ATOM      8  C   UNL     1       4.056  -1.440  -2.428  0.00  0.00    +0.189 A 
ATOM      9  N   UNL     1       4.613  -1.561  -3.611  0.00  0.00    -0.223 NA
ATOM     10  C   UNL     1       4.780  -2.756  -4.216  0.00  0.00    +0.080 A 
ATOM     11  C   UNL     1       5.364  -3.022  -5.477  0.00  0.00    +0.029 A 
ATOM     12  C   UNL     1       5.452  -4.304  -5.951  0.00  0.00    +0.002 A 
ATOM     13  C   UNL     1       4.975  -5.382  -5.219  0.00  0.00    +0.001 A 
ATOM     14  C   UNL     1       4.397  -5.159  -3.983  0.00  0.00    +0.017 A 
ATOM     15  C   UNL     1       4.305  -3.877  -3.499  0.00  0.00    +0.041 A 
ATOM     16  S   UNL     1       3.666  -3.135  -2.017  0.00  0.00    -0.050 S 
ENDROOT
BRANCH   3  17
ATOM     17  C   UNL     1       2.563   1.424   1.288  0.00  0.00    +0.003 A 
ATOM     18  C   UNL     1       1.350   0.899   1.731  0.00  0.00    +0.010 A 
ATOM     19  C   UNL     1       0.814   1.323   2.929  0.00  0.00    +0.001 A 
ATOM     20  C   UNL     1       1.484   2.260   3.697  0.00  0.00    +0.000 A 
ATOM     21  C   UNL     1       2.688   2.785   3.263  0.00  0.00    +0.001 A 
ATOM     22  C   UNL     1       3.231   2.372   2.063  0.00  0.00    +0.010 A 
ENDBRANCH   3  17
BRANCH   1  24
ATOM     23  C   UNL     1       1.769   3.529   0.168  0.00  0.00    +0.128 C 
ATOM     24  N   UNL     1       3.136   3.946  -0.153  0.00  0.00    -0.341 N 
ATOM     25  C   UNL     1       3.693   5.160   0.450  0.00  0.00    +0.128 C 
ENDBRANCH   1  24
TORSDOF 2
