REMARK  Name = ZINC07294131
REMARK  7 active torsions:
REMARK  status: ('A' for Active; 'I' for Inactive)
REMARK    1  A    between atoms: C_1  and  C_2
REMARK    2  A    between atoms: C_15  and  C_17
REMARK    3  A    between atoms: C_17  and  O_18
REMARK    4  A    between atoms: O_18  and  C_19
REMARK    5  A    between atoms: C_19  and  C_21
REMARK    6  A    between atoms: C_24  and  C_27
REMARK    7  A    between atoms: C_27  and  O_28
REMARK                            x       y       z     vdW  Elec       q    Type
REMARK                         _______ _______ _______ _____ _____    ______ ____
ROOT
ATOM      1  C   UNL     1      -0.866   5.852  -2.275  0.00  0.00    +0.029 C 
ATOM      2  C   UNL     1       0.304   5.916  -1.291  0.00  0.00    +0.087 C 
ATOM      3  C   UNL     1       1.522   5.224  -1.905  0.00  0.00    +0.118 C 
ATOM      4  C   UNL     1       2.540   4.924  -0.837  0.00  0.00    +0.219 C 
ATOM      5  O   UNL     1       3.541   5.604  -0.751  0.00  0.00    -0.275 OA
ATOM      6  N   UNL     1       2.347   3.902   0.025  0.00  0.00    -0.284 N 
ATOM      7  C   UNL     1       1.157   3.166  -0.000  0.00  0.00    +0.055 A 
ATOM      8  C   UNL     1       1.177   1.781   0.000  0.00  0.00    +0.025 A 
ATOM      9  C   UNL     1      -0.013   1.076   0.008  0.00  0.00    +0.002 A 
ATOM     10  C   UNL     1      -1.221   1.748   0.017  0.00  0.00    +0.002 A 
ATOM     11  C   UNL     1      -1.249   3.131   0.020  0.00  0.00    +0.025 A 
ATOM     12  C   UNL     1      -0.062   3.845  -0.002  0.00  0.00    +0.058 A 
ATOM     13  N   UNL     1      -0.071   5.247  -0.045  0.00  0.00    -0.264 N 
ATOM     14  C   UNL     1      -0.419   5.964   1.042  0.00  0.00    +0.258 C 
ATOM     15  O   UNL     1      -0.422   7.176   0.993  0.00  0.00    -0.271 OA
ATOM     16  H   UNL     1       3.039   3.676   0.667  0.00  0.00    +0.155 HD
ENDROOT
BRANCH  14  17
ATOM     17  C   UNL     1      -0.803   5.261   2.318  0.00  0.00    +0.328 C 
BRANCH  17  18
ATOM     18  O   UNL     1      -1.132   6.246   3.333  0.00  0.00    -0.452 OA
BRANCH  18  19
ATOM     19  C   UNL     1      -1.499   5.779   4.542  0.00  0.00    +0.340 C 
ATOM     20  O   UNL     1      -1.542   4.582   4.743  0.00  0.00    -0.245 OA
BRANCH  19  21
ATOM     21  C   UNL     1      -1.848   6.723   5.624  0.00  0.00    +0.059 A 
ATOM     22  C   UNL     1      -1.794   8.100   5.398  0.00  0.00    +0.015 A 
ATOM     23  C   UNL     1      -2.127   8.975   6.410  0.00  0.00    +0.006 A 
ATOM     24  C   UNL     1      -2.503   8.492   7.651  0.00  0.00    -0.022 A 
ATOM     25  C   UNL     1      -2.554   7.129   7.884  0.00  0.00    +0.006 A 
ATOM     26  C   UNL     1      -2.229   6.242   6.878  0.00  0.00    +0.015 A 
BRANCH  24  27
ATOM     27  C   UNL     1      -2.859   9.455   8.755  0.00  0.00    +0.191 C 
BRANCH  27  28
ATOM     28  O   UNL     1      -1.684   9.779   9.501  0.00  0.00    -0.390 OA
ATOM     29  H   UNL     1      -1.839  10.396  10.229  0.00  0.00    +0.210 HD
ENDBRANCH  27  28
ENDBRANCH  24  27
ENDBRANCH  19  21
ENDBRANCH  18  19
ENDBRANCH  17  18
ENDBRANCH  14  17
TORSDOF 6
