REMARK  Name = ZINC09560594
REMARK  11 active torsions:
REMARK  status: ('A' for Active; 'I' for Inactive)
REMARK    1  A    between atoms: C_1  and  C_2
REMARK    2  A    between atoms: C_5  and  N_9
REMARK    3  A    between atoms: C_6  and  C_8
REMARK    4  A    between atoms: C_10  and  C_12
REMARK    5  A    between atoms: C_13  and  C_37
REMARK    6  A    between atoms: C_17  and  C_18
REMARK    7  A    between atoms: C_21  and  C_23
REMARK    8  A    between atoms: C_24  and  N_36
REMARK    9  A    between atoms: C_25  and  C_27
REMARK   10  A    between atoms: N_29  and  C_30
REMARK   11  A    between atoms: C_30  and  C_31
REMARK                            x       y       z     vdW  Elec       q    Type
REMARK                         _______ _______ _______ _____ _____    ______ ____
ROOT
ATOM      1  C   UNL     1      -2.338   2.673  -8.106  0.00  0.00    +0.069 A 
ATOM      2  C   UNL     1      -3.368   3.385  -7.482  0.00  0.00    +0.052 A 
ATOM      3  N   UNL     1      -3.441   3.438  -6.170  0.00  0.00    -0.244 NA
ATOM      4  C   UNL     1      -2.563   2.833  -5.393  0.00  0.00    +0.112 A 
ATOM      5  C   UNL     1      -1.479   2.084  -5.901  0.00  0.00    +0.040 A 
ATOM      6  C   UNL     1      -1.374   2.009  -7.324  0.00  0.00    +0.043 A 
ATOM      7  C   UNL     1      -0.611   1.493  -4.899  0.00  0.00    +0.054 A 
ATOM      8  C   UNL     1      -0.913   1.697  -3.568  0.00  0.00    +0.097 A 
ATOM      9  S   UNL     1      -2.379   2.709  -3.631  0.00  0.00    -0.062 S 
ATOM     10  C   UNL     1      -4.400   4.096  -8.320  0.00  0.00    +0.066 C 
ENDROOT
BRANCH   6  11
ATOM     11  C   UNL     1      -0.283   1.256  -7.958  0.00  0.00    +0.137 A 
ATOM     12  C   UNL     1      -0.422   0.134  -8.723  0.00  0.00    +0.050 A 
ATOM     13  C   UNL     1       0.871  -0.247  -9.120  0.00  0.00    +0.045 A 
ATOM     14  C   UNL     1       1.730   0.647  -8.585  0.00  0.00    +0.103 A 
ATOM     15  O   UNL     1       1.030   1.554  -7.889  0.00  0.00    -0.460 OA
ATOM     16  C   UNL     1       3.228   0.631  -8.749  0.00  0.00    +0.086 C 
ENDBRANCH   6  11
BRANCH   1  18
ATOM     17  N   UNL     1      -1.564   3.555 -10.248  0.00  0.00    -0.281 N 
ATOM     18  C   UNL     1      -2.262   2.619  -9.574  0.00  0.00    +0.251 C 
ATOM     19  O   UNL     1      -2.829   1.729 -10.180  0.00  0.00    -0.270 OA
ATOM     20  H   UNL     1      -1.179   4.308  -9.773  0.00  0.00    +0.155 HD
BRANCH  17  25
ATOM     21  C   UNL     1      -0.880   3.088 -15.860  0.00  0.00    +0.044 C 
ATOM     22  C   UNL     1      -1.062   3.212 -14.369  0.00  0.00    -0.050 A 
ATOM     23  C   UNL     1      -1.295   2.083 -13.606  0.00  0.00    +0.005 A 
ATOM     24  C   UNL     1      -1.462   2.193 -12.240  0.00  0.00    +0.024 A 
ATOM     25  C   UNL     1      -1.395   3.440 -11.632  0.00  0.00    +0.037 A 
ATOM     26  C   UNL     1      -1.165   4.573 -12.401  0.00  0.00    -0.029 A 
ATOM     27  C   UNL     1      -0.995   4.455 -13.767  0.00  0.00    +0.008 A 
ATOM     28  C   UNL     1      -1.098   5.928 -11.746  0.00  0.00    +0.045 C 
ENDBRANCH  17  25
ENDBRANCH   1  18
BRANCH   8  29
ATOM     29  C   UNL     1      -0.222   1.222  -2.428  0.00  0.00    +0.253 C 
ATOM     30  O   UNL     1       0.775   0.534  -2.562  0.00  0.00    -0.270 OA
ATOM     31  N   UNL     1      -0.666   1.530  -1.193  0.00  0.00    -0.304 N 
ATOM     32  H   UNL     1      -1.460   2.077  -1.086  0.00  0.00    +0.149 HD
BRANCH  31  33
ATOM     33  C   UNL     1       0.049   1.038  -0.013  0.00  0.00    +0.179 C 
BRANCH  33  34
ATOM     34  C   UNL     1      -0.647   1.520   1.233  0.00  0.00    +0.122 A 
ATOM     35  C   UNL     1      -1.630   0.873   1.885  0.00  0.00    +0.046 A 
ATOM     36  C   UNL     1      -1.987   1.679   2.991  0.00  0.00    +0.041 A 
ATOM     37  C   UNL     1      -1.201   2.769   2.949  0.00  0.00    +0.195 A 
ATOM     38  O   UNL     1      -0.388   2.665   1.885  0.00  0.00    -0.466 OA
ENDBRANCH  33  34
ENDBRANCH  31  33
ENDBRANCH   8  29
BRANCH   7  39
ATOM     39  N   UNL     1       0.494   0.740  -5.270  0.00  0.00    -0.356 N 
ATOM     40  H   UNL     1       1.065   0.348  -4.590  0.00  0.00    +0.142 HD
ATOM     41  H   UNL     1       0.696   0.604  -6.209  0.00  0.00    +0.142 HD
ENDBRANCH   7  39
TORSDOF 7
