REMARK  Name = ZINC08858015
REMARK  9 active torsions:
REMARK  status: ('A' for Active; 'I' for Inactive)
REMARK    1  A    between atoms: C_1  and  C_2
REMARK    2  A    between atoms: C_2  and  C_3
REMARK    3  A    between atoms: C_2  and  N_4
REMARK    4  A    between atoms: C_8  and  C_9
REMARK    5  A    between atoms: C_10  and  N_20
REMARK    6  A    between atoms: C_26  and  C_28
REMARK    7  A    between atoms: C_28  and  C_29
REMARK    8  A    between atoms: C_29  and  O_31
REMARK    9  A    between atoms: O_31  and  C_32
REMARK                            x       y       z     vdW  Elec       q    Type
REMARK                         _______ _______ _______ _____ _____    ______ ____
ROOT
ATOM      1  C   UNL     1       1.957  -2.460   0.158  0.00  0.00    +0.081 A 
ATOM      2  C   UNL     1       2.559  -3.740   0.123  0.00  0.00    +0.137 A 
ATOM      3  N   UNL     1       1.794  -4.822   0.105  0.00  0.00    -0.214 NA
ATOM      4  C   UNL     1       0.463  -4.738   0.120  0.00  0.00    +0.142 A 
ATOM      5  C   UNL     1      -0.297  -5.921   0.100  0.00  0.00    +0.047 A 
ATOM      6  C   UNL     1      -1.658  -5.845   0.114  0.00  0.00    +0.005 A 
ATOM      7  C   UNL     1      -2.281  -4.590   0.149  0.00  0.00    +0.018 A 
ATOM      8  C   UNL     1      -1.534  -3.463   0.168  0.00  0.00    +0.096 A 
ATOM      9  N   UNL     1      -0.172  -3.528   0.154  0.00  0.00    -0.268 N 
ATOM     10  C   UNL     1       0.544  -2.383   0.178  0.00  0.00    +0.267 A 
ATOM     11  O   UNL     1      -0.018  -1.302   0.213  0.00  0.00    -0.267 OA
ENDROOT
BRANCH   1  16
ATOM     12  N   UNL     1       2.935   1.643  -2.012  0.00  0.00    -0.253 N 
ATOM     13  C   UNL     1       3.212   0.928  -0.936  0.00  0.00    +0.259 C 
ATOM     14  O   UNL     1       3.951   1.360  -0.069  0.00  0.00    -0.269 OA
ATOM     15  C   UNL     1       2.623  -0.364  -0.819  0.00  0.00    +0.077 C 
ATOM     16  C   UNL     1       2.747  -1.287   0.178  0.00  0.00    +0.037 C 
ATOM     17  S   UNL     1       1.678  -0.446  -2.334  0.00  0.00    -0.061 S 
ATOM     18  C   UNL     1       2.116   1.163  -2.974  0.00  0.00    +0.121 C 
ATOM     19  S   UNL     1       1.629   1.905  -4.438  0.00  0.00    -0.027 S 
BRANCH  12  21
ATOM     20  C   UNL     1       4.374   3.016  -3.436  0.00  0.00    +0.028 C 
ATOM     21  C   UNL     1       3.524   2.976  -2.164  0.00  0.00    +0.077 C 
ATOM     22  C   UNL     1       2.409   4.019  -2.263  0.00  0.00    +0.028 C 
ENDBRANCH  12  21
ENDBRANCH   1  16
BRANCH   2  23
ATOM     23  N   UNL     1       3.931  -3.861   0.107  0.00  0.00    -0.301 N 
ATOM     24  C   UNL     1       4.465  -4.000   1.472  0.00  0.00    +0.126 C 
ATOM     25  C   UNL     1       5.983  -3.820   1.426  0.00  0.00    +0.123 C 
ATOM     26  N   UNL     1       6.558  -4.675   0.392  0.00  0.00    -0.312 N 
ATOM     27  C   UNL     1       5.833  -5.206  -0.598  0.00  0.00    +0.234 C 
ATOM     28  O   UNL     1       6.397  -5.880  -1.433  0.00  0.00    -0.274 OA
ATOM     29  C   UNL     1       4.350  -5.001  -0.720  0.00  0.00    +0.171 C 
ATOM     30  H   UNL     1       7.509  -4.867   0.425  0.00  0.00    +0.149 HD
BRANCH  29  31
ATOM     31  C   UNL     1       3.993  -4.726  -2.182  0.00  0.00    +0.152 C 
BRANCH  31  32
ATOM     32  C   UNL     1       4.643  -3.440  -2.624  0.00  0.00    +0.309 C 
ATOM     33  O   UNL     1       5.383  -2.848  -1.875  0.00  0.00    -0.251 OA
BRANCH  32  34
ATOM     34  O   UNL     1       4.400  -2.953  -3.851  0.00  0.00    -0.468 OA
ATOM     35  C   UNL     1       5.148  -1.775  -4.253  0.00  0.00    +0.280 C 
ENDBRANCH  32  34
ENDBRANCH  31  32
ENDBRANCH  29  31
ENDBRANCH   2  23
TORSDOF 6
