REMARK  Name = ZINC12894933
REMARK  5 active torsions:
REMARK  status: ('A' for Active; 'I' for Inactive)
REMARK    1  A    between atoms: C_1  and  C_2
REMARK    2  A    between atoms: C_2  and  C_3
REMARK    3  A    between atoms: C_13  and  C_15
REMARK    4  A    between atoms: C_16  and  C_17
REMARK    5  A    between atoms: C_21  and  N_23
REMARK                            x       y       z     vdW  Elec       q    Type
REMARK                         _______ _______ _______ _____ _____    ______ ____
ROOT
ATOM      1  C   UNL     1      -7.290   0.851   0.285  0.00  0.00    +0.107 C 
ATOM      2  C   UNL     1      -8.075   1.604  -0.781  0.00  0.00    -0.017 A 
ATOM      3  C   UNL     1      -9.270   1.134  -1.325  0.00  0.00    +0.013 A 
ATOM      4  C   UNL     1      -9.917   1.860  -2.265  0.00  0.00    +0.046 A 
ATOM      5  S   UNL     1      -8.845   3.279  -2.437  0.00  0.00    -0.101 S 
ATOM      6  C   UNL     1      -7.619   2.798  -1.248  0.00  0.00    -0.004 A 
ATOM      7  C   UNL     1      -6.377   3.526  -0.850  0.00  0.00    +0.062 C 
ATOM      8  C   UNL     1      -5.863   2.937   0.472  0.00  0.00    +0.114 C 
ATOM      9  N   UNL     1      -5.963   1.472   0.395  0.00  0.00    -0.291 N 
ATOM     10  C   UNL     1      -4.852   0.709   0.418  0.00  0.00    +0.240 C 
ATOM     11  O   UNL     1      -4.938  -0.496   0.271  0.00  0.00    -0.271 OA
ENDROOT
BRANCH   1  13
ATOM     12  C   UNL     1      -6.508  -0.701  -1.511  0.00  0.00    +0.006 C 
ATOM     13  C   UNL     1      -7.144  -0.617  -0.121  0.00  0.00    +0.024 C 
ENDBRANCH   1  13
BRANCH  10  14
ATOM     14  C   UNL     1      -3.541   1.330   0.621  0.00  0.00    +0.068 C 
ATOM     15  C   UNL     1      -2.443   0.560   0.754  0.00  0.00    +0.013 C 
BRANCH  15  16
ATOM     16  C   UNL     1      -1.126   1.184   0.959  0.00  0.00    -0.023 A 
ATOM     17  C   UNL     1      -1.010   2.577   1.021  0.00  0.00    +0.008 A 
ATOM     18  C   UNL     1       0.228   3.154   1.207  0.00  0.00    +0.003 A 
ATOM     19  C   UNL     1       1.353   2.360   1.338  0.00  0.00    +0.033 A 
ATOM     20  C   UNL     1       1.246   0.981   1.282  0.00  0.00    +0.127 A 
ATOM     21  C   UNL     1       0.015   0.388   1.097  0.00  0.00    +0.040 A 
BRANCH  20  22
ATOM     22  N   UNL     1       2.457   0.141   1.423  0.00  0.00    +0.056 N 
ATOM     23  O   UNL     1       2.364  -1.073   1.375  0.00  0.00    -0.126 OA
ATOM     24  O   UNL     1       3.545   0.662   1.587  0.00  0.00    -0.126 OA
ENDBRANCH  20  22
ENDBRANCH  15  16
ENDBRANCH  10  14
TORSDOF 4
