REMARK  Name = ZINC04309769
REMARK  9 active torsions:
REMARK  status: ('A' for Active; 'I' for Inactive)
REMARK    1  A    between atoms: C_1  and  C_2
REMARK    2  A    between atoms: C_6  and  C_29
REMARK    3  A    between atoms: C_7  and  O_8
REMARK    4  A    between atoms: O_8  and  C_9
REMARK    5  A    between atoms: C_9  and  C_10
REMARK    6  A    between atoms: C_22  and  C_27
REMARK    7  A    between atoms: C_22  and  C_28
REMARK    8  A    between atoms: C_23  and  C_25
REMARK    9  A    between atoms: C_23  and  C_26
REMARK                            x       y       z     vdW  Elec       q    Type
REMARK                         _______ _______ _______ _____ _____    ______ ____
ROOT
ATOM      1  C   UNL     1       1.566   7.002   2.391  0.00  0.00    +0.189 A 
ATOM      2  N   UNL     1       0.860   5.904   2.139  0.00  0.00    -0.207 NA
ATOM      3  C   UNL     1      -0.114   5.795   3.022  0.00  0.00    +0.168 A 
ATOM      4  C   UNL     1      -1.185   4.803   3.233  0.00  0.00    +0.055 A 
ATOM      5  C   UNL     1      -1.484   3.594   2.481  0.00  0.00    -0.027 A 
ATOM      6  C   UNL     1      -2.539   2.851   2.888  0.00  0.00    -0.016 A 
ATOM      7  S   UNL     1      -3.184   3.717   4.292  0.00  0.00    -0.075 S 
ATOM      8  C   UNL     1      -2.036   5.071   4.320  0.00  0.00    +0.114 A 
ATOM      9  N   UNL     1      -1.877   6.140   5.091  0.00  0.00    -0.228 NA
ATOM     10  C   UNL     1      -0.923   7.006   4.889  0.00  0.00    +0.226 A 
ATOM     11  N   UNL     1      -0.033   6.861   3.871  0.00  0.00    -0.201 N 
ATOM     12  N   UNL     1       1.063   7.618   3.433  0.00  0.00    -0.145 NA
ATOM     13  C   UNL     1      -3.028   1.584   2.265  0.00  0.00    -0.041 C 
ATOM     14  C   UNL     1      -0.734   1.582   1.275  0.00  0.00    -0.069 C 
ATOM     15  C   UNL     1      -0.686   3.114   1.273  0.00  0.00    +0.024 C 
ATOM     16  C   UNL     1      -0.013   1.086   0.008  0.00  0.00    -0.010 C 
ATOM     17  C   UNL     1       0.035   1.056   2.491  0.00  0.00    -0.010 C 
ATOM     18  C   UNL     1      -3.253   0.533   3.361  0.00  0.00    -0.005 C 
ATOM     19  C   UNL     1      -4.384   1.865   1.591  0.00  0.00    -0.005 C 
ATOM     20  N   UNL     1      -2.114   1.036   1.221  0.00  0.00    +0.389 N 
ATOM     21  H   UNL     1      -2.511   1.252   0.299  0.00  0.00    -0.084 HD
ATOM     22  H   UNL     1      -2.062   0.017   1.341  0.00  0.00    -0.084 HD
ENDROOT
BRANCH   1  23
ATOM     23  C   UNL     1       2.760   7.468   1.598  0.00  0.00    +0.306 C 
BRANCH  23  24
ATOM     24  O   UNL     1       2.325   8.322   0.539  0.00  0.00    -0.484 OA
BRANCH  24  31
ATOM     25  C   UNL     1       3.464  10.804   1.261  0.00  0.00    +0.047 C 
ATOM     26  C   UNL     1       3.881  10.047   0.027  0.00  0.00    -0.009 A 
ATOM     27  C   UNL     1       4.861  10.560  -0.801  0.00  0.00    +0.007 A 
ATOM     28  C   UNL     1       5.241   9.869  -1.937  0.00  0.00    +0.001 A 
ATOM     29  C   UNL     1       4.644   8.660  -2.244  0.00  0.00    +0.007 A 
ATOM     30  C   UNL     1       3.668   8.140  -1.417  0.00  0.00    -0.009 A 
ATOM     31  C   UNL     1       3.286   8.832  -0.277  0.00  0.00    +0.127 A 
ATOM     32  C   UNL     1       3.018   6.822  -1.753  0.00  0.00    +0.047 C 
ENDBRANCH  24  31
ENDBRANCH  23  24
ENDBRANCH   1  23
TORSDOF 3
