REMARK  Name = ZINC54648846
REMARK  9 active torsions:
REMARK  status: ('A' for Active; 'I' for Inactive)
REMARK    1  A    between atoms: C_1  and  C_2
REMARK    2  A    between atoms: C_4  and  C_28
REMARK    3  A    between atoms: C_5  and  N_9
REMARK    4  A    between atoms: C_6  and  C_8
REMARK    5  A    between atoms: C_10  and  C_12
REMARK    6  A    between atoms: C_12  and  N_13
REMARK    7  A    between atoms: N_16  and  C_17
REMARK    8  A    between atoms: C_17  and  C_18
REMARK    9  A    between atoms: N_20  and  C_21
REMARK                            x       y       z     vdW  Elec       q    Type
REMARK                         _______ _______ _______ _____ _____    ______ ____
ROOT
ATOM      1  N   UNL     1       0.838  -7.006   2.252  0.00  0.00    -0.291 N 
ATOM      2  C   UNL     1       0.949  -8.334   2.457  0.00  0.00    +0.300 C 
ATOM      3  O   UNL     1       0.665  -9.112   1.567  0.00  0.00    -0.253 OA
ATOM      4  N   UNL     1       1.375  -8.799   3.647  0.00  0.00    -0.291 N 
ATOM      5  H   UNL     1       1.065  -6.386   2.962  0.00  0.00    +0.151 HD
ATOM      6  H   UNL     1       1.602  -8.178   4.357  0.00  0.00    +0.151 HD
ENDROOT
BRANCH   1   7
ATOM      7  C   UNL     1       0.374  -6.501   0.958  0.00  0.00    +0.202 C 
BRANCH   7   9
ATOM      8  N   UNL     1      -0.058  -4.306  -0.099  0.00  0.00    -0.284 N 
ATOM      9  C   UNL     1       0.339  -4.995   0.990  0.00  0.00    +0.234 C 
ATOM     10  O   UNL     1       0.669  -4.402   1.995  0.00  0.00    -0.274 OA
ATOM     11  H   UNL     1      -0.399  -4.779  -0.874  0.00  0.00    +0.155 HD
BRANCH   8  16
ATOM     12  C   UNL     1       0.258   1.358  -0.146  0.00  0.00    +0.044 C 
ATOM     13  C   UNL     1       0.174  -0.147  -0.134  0.00  0.00    -0.050 A 
ATOM     14  C   UNL     1       0.819  -0.882  -1.111  0.00  0.00    +0.008 A 
ATOM     15  C   UNL     1       0.744  -2.261  -1.103  0.00  0.00    -0.029 A 
ATOM     16  C   UNL     1       0.020  -2.909  -0.110  0.00  0.00    +0.039 A 
ATOM     17  C   UNL     1      -0.626  -2.168   0.871  0.00  0.00    -0.029 A 
ATOM     18  C   UNL     1      -0.543  -0.789   0.859  0.00  0.00    +0.008 A 
ATOM     19  C   UNL     1      -1.413  -2.867   1.949  0.00  0.00    +0.045 C 
ATOM     20  C   UNL     1       1.446  -3.062  -2.169  0.00  0.00    +0.045 C 
ENDBRANCH   8  16
ENDBRANCH   7   9
ENDBRANCH   1   7
BRANCH   4  21
ATOM     21  C   UNL     1       1.496 -10.242   3.870  0.00  0.00    +0.202 C 
BRANCH  21  22
ATOM     22  C   UNL     1       1.989 -10.495   5.271  0.00  0.00    +0.234 C 
ATOM     23  O   UNL     1       2.217  -9.562   6.011  0.00  0.00    -0.274 OA
ATOM     24  N   UNL     1       2.177 -11.758   5.702  0.00  0.00    -0.284 N 
ATOM     25  H   UNL     1       1.931 -12.505   5.134  0.00  0.00    +0.155 HD
BRANCH  24  26
ATOM     26  C   UNL     1       2.726 -11.992   6.968  0.00  0.00    +0.034 A 
ATOM     27  C   UNL     1       3.577 -13.070   7.169  0.00  0.00    +0.025 A 
ATOM     28  C   UNL     1       4.118 -13.299   8.419  0.00  0.00    +0.022 A 
ATOM     29  C   UNL     1       3.812 -12.453   9.471  0.00  0.00    +0.041 A 
ATOM     30  C   UNL     1       2.964 -11.377   9.274  0.00  0.00    +0.022 A 
ATOM     31  C   UNL     1       2.426 -11.142   8.024  0.00  0.00    +0.025 A 
ATOM     32 CL   UNL     1       4.493 -12.743  11.041  0.00  0.00    -0.084 Cl
ENDBRANCH  24  26
ENDBRANCH  21  22
ENDBRANCH   4  21
TORSDOF 6
