REMARK  Name = ZINC57317392
REMARK  11 active torsions:
REMARK  status: ('A' for Active; 'I' for Inactive)
REMARK    1  A    between atoms: C_1  and  C_2
REMARK    2  A    between atoms: C_5  and  C_11
REMARK    3  A    between atoms: C_6  and  N_8
REMARK    4  A    between atoms: C_14  and  C_16
REMARK    5  A    between atoms: C_16  and  O_18
REMARK    6  A    between atoms: O_18  and  C_19
REMARK    7  A    between atoms: C_19  and  C_20
REMARK    8  A    between atoms: C_20  and  S_21
REMARK    9  A    between atoms: S_21  and  C_22
REMARK   10  A    between atoms: C_25  and  N_30
REMARK   11  A    between atoms: C_31  and  C_33
REMARK                            x       y       z     vdW  Elec       q    Type
REMARK                         _______ _______ _______ _____ _____    ______ ____
ROOT
ATOM      1  C   UNL     1       1.382  -7.439   0.937  0.00  0.00    +0.375 C 
ATOM      2  O   UNL     1       1.044  -8.567   0.629  0.00  0.00    -0.241 OA
ENDROOT
BRANCH   1   6
ATOM      3  C   UNL     1       0.121  -4.209  -0.078  0.00  0.00    +0.138 A 
ATOM      4  C   UNL     1      -0.715  -5.008  -0.804  0.00  0.00    +0.051 A 
ATOM      5  C   UNL     1      -0.361  -6.332  -0.527  0.00  0.00    +0.057 A 
ATOM      6  C   UNL     1       0.688  -6.285   0.366  0.00  0.00    +0.212 A 
ATOM      7  O   UNL     1       0.965  -4.988   0.619  0.00  0.00    -0.448 OA
BRANCH   3  12
ATOM      8  C   UNL     1       0.054   1.544  -0.029  0.00  0.00    +0.044 C 
ATOM      9  C   UNL     1       0.072   0.037  -0.042  0.00  0.00    -0.048 A 
ATOM     10  C   UNL     1       0.083  -0.642  -1.248  0.00  0.00    +0.004 A 
ATOM     11  C   UNL     1       0.099  -2.021  -1.267  0.00  0.00    +0.014 A 
ATOM     12  C   UNL     1       0.104  -2.732  -0.065  0.00  0.00    +0.047 A 
ATOM     13  C   UNL     1       0.093  -2.041   1.148  0.00  0.00    +0.137 A 
ATOM     14  C   UNL     1       0.083  -0.662   1.152  0.00  0.00    +0.036 A 
BRANCH  13  15
ATOM     15  N   UNL     1       0.098  -2.787   2.426  0.00  0.00    +0.057 N 
ATOM     16  O   UNL     1       0.089  -2.187   3.476  0.00  0.00    -0.126 OA
ATOM     17  O   UNL     1       0.112  -3.996   2.421  0.00  0.00    -0.126 OA
ENDBRANCH  13  15
ENDBRANCH   3  12
ENDBRANCH   1   6
BRANCH   1  18
ATOM     18  O   UNL     1       2.398  -7.253   1.806  0.00  0.00    -0.458 OA
BRANCH  18  19
ATOM     19  C   UNL     1       3.031  -8.425   2.324  0.00  0.00    +0.243 C 
BRANCH  19  20
ATOM     20  C   UNL     1       4.151  -8.018   3.284  0.00  0.00    +0.115 C 
BRANCH  20  21
ATOM     21  S   UNL     1       4.955  -9.505   3.942  0.00  0.00    -0.120 S 
BRANCH  21  22
ATOM     22  C   UNL     1       6.202  -8.876   5.015  0.00  0.00    +0.028 A 
ATOM     23  C   UNL     1       6.354  -7.504   5.176  0.00  0.00    +0.018 A 
ATOM     24  C   UNL     1       7.332  -7.011   6.016  0.00  0.00    +0.026 A 
ATOM     25  C   UNL     1       8.164  -7.885   6.703  0.00  0.00    +0.053 A 
ATOM     26  C   UNL     1       8.014  -9.257   6.543  0.00  0.00    +0.081 A 
ATOM     27  C   UNL     1       7.032  -9.752   5.705  0.00  0.00    +0.074 A 
ATOM     28 CL   UNL     1       6.839 -11.466   5.511  0.00  0.00    -0.081 Cl
ATOM     29 CL   UNL     1       9.055 -10.350   7.402  0.00  0.00    -0.080 Cl
BRANCH  25  30
ATOM     30  N   UNL     1       9.157  -7.383   7.556  0.00  0.00    -0.284 N 
ATOM     31  C   UNL     1       9.016  -6.161   8.108  0.00  0.00    +0.214 C 
ATOM     32  O   UNL     1       7.988  -5.538   7.947  0.00  0.00    -0.276 OA
ATOM     33  C   UNL     1      10.137  -5.570   8.923  0.00  0.00    +0.109 C 
ATOM     34  H   UNL     1       9.944  -7.915   7.749  0.00  0.00    +0.155 HD
ENDBRANCH  25  30
ENDBRANCH  21  22
ENDBRANCH  20  21
ENDBRANCH  19  20
ENDBRANCH  18  19
ENDBRANCH   1  18
TORSDOF 9
