REMARK  Name = ZINC40683810
REMARK  9 active torsions:
REMARK  status: ('A' for Active; 'I' for Inactive)
REMARK    1  A    between atoms: C_1  and  O_2
REMARK    2  A    between atoms: O_2  and  C_3
REMARK    3  A    between atoms: C_6  and  C_11
REMARK    4  A    between atoms: C_8  and  O_9
REMARK    5  A    between atoms: O_9  and  C_10
REMARK    6  A    between atoms: C_11  and  C_12
REMARK    7  A    between atoms: C_12  and  N_13
REMARK    8  A    between atoms: C_15  and  N_30
REMARK    9  A    between atoms: C_16  and  N_20
REMARK                            x       y       z     vdW  Elec       q    Type
REMARK                         _______ _______ _______ _____ _____    ______ ____
ROOT
ATOM      1  N   UNL     1       2.253  -3.463   6.558  0.00  0.00    -0.327 N 
ATOM      2  C   UNL     1       1.535  -3.798   7.700  0.00  0.00    +0.145 A 
ATOM      3  C   UNL     1       2.167  -4.421   8.778  0.00  0.00    +0.105 A 
ATOM      4  C   UNL     1       1.399  -4.736   9.900  0.00  0.00    +0.150 A 
ATOM      5  N   UNL     1       0.103  -4.433   9.899  0.00  0.00    -0.219 NA
ATOM      6  C   UNL     1      -0.455  -3.845   8.861  0.00  0.00    +0.225 A 
ATOM      7  N   UNL     1       0.236  -3.525   7.785  0.00  0.00    -0.219 NA
ATOM      8  H   UNL     1       3.201  -3.665   6.505  0.00  0.00    +0.148 HD
ENDROOT
BRANCH   4   9
ATOM      9  N   UNL     1       1.979  -5.358  11.002  0.00  0.00    -0.277 N 
ATOM     10  C   UNL     1       1.209  -5.665  12.107  0.00  0.00    +0.165 A 
ATOM     11  N   UNL     1      -0.074  -5.456  12.300  0.00  0.00    -0.225 NA
ATOM     12  C   UNL     1      -0.702  -5.812  13.442  0.00  0.00    +0.080 A 
ATOM     13  C   UNL     1      -2.066  -5.645  13.776  0.00  0.00    +0.029 A 
ATOM     14  C   UNL     1      -2.546  -6.065  14.989  0.00  0.00    +0.002 A 
ATOM     15  C   UNL     1      -1.719  -6.664  15.928  0.00  0.00    +0.001 A 
ATOM     16  C   UNL     1      -0.379  -6.843  15.635  0.00  0.00    +0.017 A 
ATOM     17  C   UNL     1       0.110  -6.426  14.423  0.00  0.00    +0.041 A 
ATOM     18  S   UNL     1       1.701  -6.453  13.633  0.00  0.00    -0.052 S 
ATOM     19  H   UNL     1       2.924  -5.576  10.994  0.00  0.00    +0.156 HD
ENDBRANCH   4   9
BRANCH   3  20
ATOM     20  N   UNL     1       3.538  -4.723   8.735  0.00  0.00    -0.353 N 
ATOM     21  H   UNL     1       4.059  -4.499   7.948  0.00  0.00    +0.143 HD
ATOM     22  H   UNL     1       3.963  -5.156   9.491  0.00  0.00    +0.143 HD
ENDBRANCH   3  20
BRANCH   1  23
ATOM     23  C   UNL     1       1.580  -2.804   5.436  0.00  0.00    +0.107 C 
BRANCH  23  24
ATOM     24  C   UNL     1       2.590  -2.548   4.315  0.00  0.00    +0.054 C 
BRANCH  24  28
ATOM     25  C   UNL     1       0.626  -0.619   1.042  0.00  0.00    +0.161 A 
ATOM     26  C   UNL     1       1.202   0.137   2.051  0.00  0.00    +0.049 A 
ATOM     27  C   UNL     1       1.836  -0.490   3.108  0.00  0.00    +0.007 A 
ATOM     28  C   UNL     1       1.897  -1.870   3.161  0.00  0.00    -0.042 A 
ATOM     29  C   UNL     1       1.325  -2.630   2.158  0.00  0.00    +0.053 A 
ATOM     30  C   UNL     1       0.683  -2.008   1.099  0.00  0.00    +0.162 A 
BRANCH  25  32
ATOM     31  C   UNL     1      -0.017   1.425   0.010  0.00  0.00    +0.277 C 
ATOM     32  O   UNL     1       0.002  -0.004   0.002  0.00  0.00    -0.491 OA
ENDBRANCH  25  32
BRANCH  30  33
ATOM     33  O   UNL     1       0.115  -2.754   0.114  0.00  0.00    -0.491 OA
ATOM     34  C   UNL     1       0.211  -4.174   0.238  0.00  0.00    +0.277 C 
ENDBRANCH  30  33
ENDBRANCH  24  28
ENDBRANCH  23  24
ENDBRANCH   1  23
TORSDOF 7
