REMARK  Name = ZINC13583428
REMARK  4 active torsions:
REMARK  status: ('A' for Active; 'I' for Inactive)
REMARK    1  A    between atoms: C_9  and  C_12
REMARK    2  A    between atoms: N_14  and  N_15
REMARK    3  A    between atoms: C_16  and  C_17
REMARK    4  A    between atoms: C_22  and  O_23
REMARK                            x       y       z     vdW  Elec       q    Type
REMARK                         _______ _______ _______ _____ _____    ______ ____
ROOT
ATOM      1  C   UNL     1       0.326   1.744   1.609  0.00  0.00    +0.276 C 
ATOM      2  O   UNL     1      -0.795   2.175   1.438  0.00  0.00    -0.270 OA
ATOM      3  N   UNL     1       1.386   2.401   1.098  0.00  0.00    -0.204 N 
ATOM      4  H   UNL     1       2.274   2.017   1.166  0.00  0.00    +0.177 HD
ENDROOT
BRANCH   1  13
ATOM      5  C   UNL     1      -0.892  -3.814   4.423  0.00  0.00    +0.004 A 
ATOM      6  C   UNL     1      -1.844  -2.882   4.792  0.00  0.00    +0.004 A 
ATOM      7  C   UNL     1      -1.779  -1.592   4.300  0.00  0.00    +0.049 A 
ATOM      8  C   UNL     1      -0.759  -1.229   3.434  0.00  0.00    +0.163 A 
ATOM      9  C   UNL     1       0.200  -2.165   3.064  0.00  0.00    +0.162 A 
ATOM     10  C   UNL     1       0.128  -3.458   3.561  0.00  0.00    +0.049 A 
ATOM     11  O   UNL     1       1.214  -1.828   2.221  0.00  0.00    -0.484 OA
ATOM     12  C   UNL     1       1.041  -0.633   1.452  0.00  0.00    +0.283 C 
ATOM     13  C   UNL     1       0.534   0.472   2.389  0.00  0.00    +0.297 C 
ATOM     14  O   UNL     1      -0.710   0.044   2.955  0.00  0.00    -0.472 OA
ENDBRANCH   1  13
BRANCH   3  15
ATOM     15  N   UNL     1       1.205   3.639   0.468  0.00  0.00    -0.187 NA
ATOM     16  C   UNL     1       2.204   4.219  -0.125  0.00  0.00    +0.142 C 
BRANCH  16  17
ATOM     17  C   UNL     1       3.467   3.485  -0.326  0.00  0.00    +0.038 A 
ATOM     18  C   UNL     1       3.460   2.092  -0.433  0.00  0.00    +0.028 A 
ATOM     19  C   UNL     1       4.645   1.412  -0.627  0.00  0.00    +0.020 A 
ATOM     20  C   UNL     1       5.843   2.104  -0.706  0.00  0.00    +0.034 A 
ATOM     21  C   UNL     1       5.862   3.482  -0.595  0.00  0.00    +0.061 A 
ATOM     22  C   UNL     1       4.680   4.181  -0.406  0.00  0.00    +0.139 A 
ATOM     23 BR   UNL     1       7.504   4.415  -0.704  0.00  0.00    -0.046 Br
ATOM     24 BR   UNL     1       4.635  -0.473  -0.778  0.00  0.00    -0.050 Br
BRANCH  22  25
ATOM     25  O   UNL     1       4.699   5.535  -0.298  0.00  0.00    -0.505 OA
ATOM     26  H   UNL     1       4.878   5.856   0.597  0.00  0.00    +0.292 HD
ENDBRANCH  22  25
ENDBRANCH  16  17
ENDBRANCH   3  15
TORSDOF 4
