REMARK  Name = ZINC66937347
REMARK  7 active torsions:
REMARK  status: ('A' for Active; 'I' for Inactive)
REMARK    1  A    between atoms: C_1  and  C_2
REMARK    2  A    between atoms: C_6  and  C_8
REMARK    3  A    between atoms: C_8  and  N_13
REMARK    4  A    between atoms: N_13  and  S_14
REMARK    5  A    between atoms: S_14  and  C_17
REMARK    6  A    between atoms: C_20  and  S_23
REMARK    7  A    between atoms: S_23  and  N_26
REMARK                            x       y       z     vdW  Elec       q    Type
REMARK                         _______ _______ _______ _____ _____    ______ ____
ROOT
ATOM      1  S   UNL     1       2.340  -1.600   3.222  0.00  0.00    +0.059 S 
ATOM      2  O   UNL     1       2.888  -1.007   4.391  0.00  0.00    -0.153 OA
ATOM      3  O   UNL     1       2.927  -2.732   2.595  0.00  0.00    -0.153 OA
ENDROOT
BRANCH   1   4
ATOM      4  C   UNL     1       2.265  -0.331   2.002  0.00  0.00    +0.105 A 
ATOM      5  C   UNL     1       2.435  -0.645   0.666  0.00  0.00    +0.030 A 
ATOM      6  C   UNL     1       2.376   0.351  -0.291  0.00  0.00    +0.030 A 
ATOM      7  C   UNL     1       2.147   1.661   0.087  0.00  0.00    +0.105 A 
ATOM      8  C   UNL     1       1.977   1.975   1.423  0.00  0.00    +0.030 A 
ATOM      9  C   UNL     1       2.032   0.978   2.379  0.00  0.00    +0.030 A 
BRANCH   7  10
ATOM     10  S   UNL     1       2.074   2.930  -1.133  0.00  0.00    +0.056 S 
ATOM     11  O   UNL     1       2.392   4.147  -0.472  0.00  0.00    -0.153 OA
ATOM     12  O   UNL     1       2.807   2.458  -2.255  0.00  0.00    -0.153 OA
BRANCH  10  13
ATOM     13  N   UNL     1       0.495   3.052  -1.617  0.00  0.00    -0.204 NA
ATOM     14  H   UNL     1      -0.179   2.474  -1.226  0.00  0.00    +0.144 HD
ATOM     15  H   UNL     1       0.243   3.703  -2.291  0.00  0.00    +0.144 HD
ENDBRANCH  10  13
ENDBRANCH   7  10
ENDBRANCH   1   4
BRANCH   1  16
ATOM     16  N   UNL     1       0.781  -2.018   3.589  0.00  0.00    -0.180 NA
ATOM     17  H   UNL     1       0.408  -1.787   4.454  0.00  0.00    +0.149 HD
BRANCH  16  18
ATOM     18  C   UNL     1      -0.035  -2.738   2.608  0.00  0.00    +0.065 C 
ATOM     19  C   UNL     1      -1.437  -3.049   3.189  0.00  0.00    +0.028 C 
ATOM     20  C   UNL     1      -1.177  -4.308   4.054  0.00  0.00    +0.002 C 
ATOM     21  C   UNL     1      -0.155  -5.124   3.236  0.00  0.00    +0.002 C 
ATOM     22  C   UNL     1       0.570  -4.126   2.317  0.00  0.00    +0.028 C 
BRANCH  18  28
ATOM     23  C   UNL     1       0.837  -2.230  -2.293  0.00  0.00    +0.044 C 
ATOM     24  C   UNL     1       0.261  -1.694  -1.008  0.00  0.00    -0.050 A 
ATOM     25  C   UNL     1      -0.379  -0.469  -0.995  0.00  0.00    +0.003 A 
ATOM     26  C   UNL     1      -0.907   0.022   0.184  0.00  0.00    +0.001 A 
ATOM     27  C   UNL     1      -0.796  -0.712   1.350  0.00  0.00    +0.005 A 
ATOM     28  C   UNL     1      -0.157  -1.938   1.337  0.00  0.00    -0.026 A 
ATOM     29  C   UNL     1       0.367  -2.431   0.157  0.00  0.00    +0.009 A 
ENDBRANCH  18  28
ENDBRANCH  16  18
ENDBRANCH   1  16
TORSDOF 6
