REMARK  Name = ZINC13639899
REMARK  9 active torsions:
REMARK  status: ('A' for Active; 'I' for Inactive)
REMARK    1  A    between atoms: C_1  and  C_2
REMARK    2  A    between atoms: C_2  and  O_3
REMARK    3  A    between atoms: O_3  and  C_4
REMARK    4  A    between atoms: C_7  and  N_10
REMARK    5  A    between atoms: N_10  and  S_11
REMARK    6  A    between atoms: S_11  and  C_14
REMARK    7  A    between atoms: C_27  and  C_30
REMARK    8  A    between atoms: C_33  and  O_37
REMARK    9  A    between atoms: C_35  and  O_36
REMARK                            x       y       z     vdW  Elec       q    Type
REMARK                         _______ _______ _______ _____ _____    ______ ____
ROOT
ATOM      1  C   UNL     1      -4.090   1.794  -0.686  0.00  0.00    +0.109 A 
ATOM      2  C   UNL     1      -5.215   1.740   0.116  0.00  0.00    +0.030 A 
ATOM      3  C   UNL     1      -5.734   0.516   0.487  0.00  0.00    +0.025 A 
ATOM      4  C   UNL     1      -5.124  -0.656   0.054  0.00  0.00    +0.031 A 
ATOM      5  C   UNL     1      -3.998  -0.607  -0.748  0.00  0.00    -0.018 A 
ATOM      6  C   UNL     1      -3.489   0.630  -1.120  0.00  0.00    +0.034 A 
ATOM      7  C   UNL     1      -3.294  -1.846  -1.256  0.00  0.00    +0.049 C 
ATOM      8  C   UNL     1      -1.862  -1.788  -0.721  0.00  0.00    -0.023 C 
ATOM      9  C   UNL     1      -1.750  -2.495   0.376  0.00  0.00    -0.030 C 
ATOM     10  C   UNL     1      -3.083  -3.122   0.742  0.00  0.00    +0.033 C 
ATOM     11  C   UNL     1      -3.843  -3.128  -0.605  0.00  0.00    +0.029 C 
ATOM     12  C   UNL     1      -5.343  -3.061  -0.385  0.00  0.00    +0.108 C 
ATOM     13  N   UNL     1      -5.666  -1.889   0.436  0.00  0.00    -0.336 N 
ATOM     14  H   UNL     1      -6.236  -1.965   1.218  0.00  0.00    +0.147 HD
ENDROOT
BRANCH  12  15
ATOM     15  C   UNL     1      -6.041  -2.949  -1.716  0.00  0.00    +0.015 A 
ATOM     16  C   UNL     1      -6.524  -1.726  -2.142  0.00  0.00    +0.012 A 
ATOM     17  C   UNL     1      -7.164  -1.621  -3.362  0.00  0.00    +0.046 A 
ATOM     18  C   UNL     1      -7.324  -2.744  -4.162  0.00  0.00    +0.120 A 
ATOM     19  C   UNL     1      -6.841  -3.971  -3.737  0.00  0.00    +0.091 A 
ATOM     20  C   UNL     1      -6.194  -4.074  -2.515  0.00  0.00    +0.125 A 
BRANCH  20  21
ATOM     21  O   UNL     1      -5.715  -5.275  -2.097  0.00  0.00    -0.506 OA
ATOM     22  H   UNL     1      -6.349  -5.795  -1.585  0.00  0.00    +0.292 HD
ENDBRANCH  20  21
BRANCH  18  23
ATOM     23  O   UNL     1      -7.954  -2.639  -5.362  0.00  0.00    -0.507 OA
ATOM     24  H   UNL     1      -7.363  -2.440  -6.101  0.00  0.00    +0.292 HD
ENDBRANCH  18  23
ENDBRANCH  12  15
BRANCH   1  25
ATOM     25  S   UNL     1      -3.427   3.355  -1.163  0.00  0.00    +0.072 S 
ATOM     26  O   UNL     1      -4.461   4.311  -0.974  0.00  0.00    -0.150 OA
ATOM     27  O   UNL     1      -2.790   3.160  -2.419  0.00  0.00    -0.150 OA
BRANCH  25  28
ATOM     28  N   UNL     1      -2.231   3.731  -0.080  0.00  0.00    -0.216 N 
ATOM     29  H   UNL     1      -2.326   4.503   0.499  0.00  0.00    +0.174 HD
BRANCH  28  33
ATOM     30  C   UNL     1       1.186   1.356   0.156  0.00  0.00    +0.121 A 
ATOM     31  C   UNL     1       1.024   2.233  -0.906  0.00  0.00    +0.047 A 
ATOM     32  C   UNL     1      -0.106   3.024  -0.982  0.00  0.00    +0.028 A 
ATOM     33  C   UNL     1      -1.084   2.933  -0.001  0.00  0.00    +0.048 A 
ATOM     34  C   UNL     1      -0.920   2.055   1.062  0.00  0.00    +0.028 A 
ATOM     35  C   UNL     1       0.212   1.268   1.140  0.00  0.00    +0.047 A 
BRANCH  30  36
ATOM     36  O   UNL     1       2.301   0.581   0.233  0.00  0.00    -0.492 OA
BRANCH  36  38
ATOM     37  C   UNL     1       3.715  -1.083   1.269  0.00  0.00    +0.048 C 
ATOM     38  C   UNL     1       2.403  -0.299   1.354  0.00  0.00    +0.225 C 
ENDBRANCH  36  38
ENDBRANCH  30  36
ENDBRANCH  28  33
ENDBRANCH  25  28
ENDBRANCH   1  25
TORSDOF 8
