REMARK  Name = ZINC06329096
REMARK  10 active torsions:
REMARK  status: ('A' for Active; 'I' for Inactive)
REMARK    1  A    between atoms: C_1  and  C_2
REMARK    2  A    between atoms: C_4  and  C_27
REMARK    3  A    between atoms: C_5  and  N_9
REMARK    4  A    between atoms: C_6  and  C_8
REMARK    5  A    between atoms: C_10  and  C_12
REMARK    6  A    between atoms: C_12  and  C_25
REMARK    7  A    between atoms: C_13  and  C_14
REMARK    8  A    between atoms: C_17  and  N_23
REMARK    9  A    between atoms: C_18  and  N_20
REMARK   10  A    between atoms: N_23  and  C_24
REMARK                            x       y       z     vdW  Elec       q    Type
REMARK                         _______ _______ _______ _____ _____    ______ ____
ROOT
ATOM      1  C   UNL     1       3.794   5.892  -0.176  0.00  0.00    +0.114 C 
ATOM      2  C   UNL     1       3.894   7.197  -0.612  0.00  0.00    +0.032 C 
ENDROOT
BRANCH   2   3
ATOM      3  C   UNL     1       5.181   7.890  -0.555  0.00  0.00    -0.021 A 
ATOM      4  C   UNL     1       6.375   7.174  -0.726  0.00  0.00    +0.010 A 
ATOM      5  C   UNL     1       7.573   7.827  -0.679  0.00  0.00    +0.026 A 
ATOM      6  C   UNL     1       7.612   9.201  -0.448  0.00  0.00    +0.058 A 
ATOM      7  C   UNL     1       6.429   9.916  -0.272  0.00  0.00    +0.147 A 
ATOM      8  C   UNL     1       5.226   9.273  -0.324  0.00  0.00    +0.042 A 
BRANCH   7   9
ATOM      9  N   UNL     1       6.478  11.375  -0.029  0.00  0.00    +0.058 N 
ATOM     10  O   UNL     1       5.453  11.986   0.217  0.00  0.00    -0.126 OA
ATOM     11  O   UNL     1       7.542  11.965  -0.074  0.00  0.00    -0.126 OA
ENDBRANCH   7   9
BRANCH   6  12
ATOM     12  N   UNL     1       8.834   9.859  -0.394  0.00  0.00    -0.345 N 
ATOM     13  C   UNL     1      10.069   9.139  -0.714  0.00  0.00    +0.125 C 
ATOM     14  H   UNL     1       8.869  10.796  -0.145  0.00  0.00    +0.146 HD
ENDBRANCH   6  12
ENDBRANCH   2   3
BRANCH   1  16
ATOM     15  N   UNL     1       2.446   3.870   0.052  0.00  0.00    -0.280 N 
ATOM     16  C   UNL     1       2.543   5.144  -0.374  0.00  0.00    +0.259 C 
ATOM     17  O   UNL     1       1.597   5.676  -0.924  0.00  0.00    -0.269 OA
ATOM     18  H   UNL     1       3.169   3.472   0.562  0.00  0.00    +0.155 HD
BRANCH  15  23
ATOM     19  C   UNL     1      -2.196   0.836  -1.141  0.00  0.00    +0.044 C 
ATOM     20  C   UNL     1      -0.963   1.640  -0.822  0.00  0.00    -0.050 A 
ATOM     21  C   UNL     1       0.281   1.182  -1.215  0.00  0.00    +0.008 A 
ATOM     22  C   UNL     1       1.413   1.920  -0.929  0.00  0.00    -0.029 A 
ATOM     23  C   UNL     1       1.302   3.121  -0.240  0.00  0.00    +0.040 A 
ATOM     24  C   UNL     1       0.051   3.575   0.159  0.00  0.00    -0.029 A 
ATOM     25  C   UNL     1      -1.077   2.833  -0.131  0.00  0.00    +0.008 A 
ATOM     26  C   UNL     1      -0.075   4.878   0.906  0.00  0.00    +0.045 C 
ATOM     27  C   UNL     1       2.768   1.423  -1.364  0.00  0.00    +0.045 C 
ENDBRANCH  15  23
ENDBRANCH   1  16
BRANCH   1  28
ATOM     28  C   UNL     1       4.908   5.266   0.471  0.00  0.00    +0.104 C 
ATOM     29  N   UNL     1       5.791   4.770   0.984  0.00  0.00    -0.191 NA
ENDBRANCH   1  28
TORSDOF 6
