REMARK  Name = ZINC37654310
REMARK  3 active torsions:
REMARK  status: ('A' for Active; 'I' for Inactive)
REMARK    1  A    between atoms: C_1  and  C_2
REMARK    2  A    between atoms: C_6  and  C_14
REMARK    3  A    between atoms: C_10  and  C_12
REMARK                            x       y       z     vdW  Elec       q    Type
REMARK                         _______ _______ _______ _____ _____    ______ ____
ROOT
ATOM      1  C   UNL     1      -0.019   1.526   0.010  0.00  0.00    +0.028 C 
ATOM      2  C   UNL     1       0.002  -0.004   0.002  0.00  0.00    +0.073 C 
ATOM      3  C   UNL     1      -1.434  -0.537   0.020  0.00  0.00    +0.023 C 
ATOM      4  C   UNL     1      -2.101  -0.151   1.343  0.00  0.00    +0.016 C 
ATOM      5  C   UNL     1      -1.335  -0.786   2.506  0.00  0.00    +0.092 C 
ATOM      6  C   UNL     1       0.102  -0.256   2.516  0.00  0.00    +0.120 C 
ATOM      7  N   UNL     1       0.706  -0.494   1.195  0.00  0.00    -0.297 N 
ATOM      8  C   UNL     1       1.879  -1.149   1.080  0.00  0.00    +0.230 C 
ATOM      9  O   UNL     1       2.362  -1.339  -0.016  0.00  0.00    -0.274 OA
ENDROOT
BRANCH   5  10
ATOM     10  C   UNL     1      -2.011  -0.433   3.805  0.00  0.00    +0.215 C 
ATOM     11  O   UNL     1      -3.008   0.259   3.802  0.00  0.00    -0.276 OA
ATOM     12  N   UNL     1      -1.509  -0.885   4.971  0.00  0.00    -0.329 N 
ATOM     13  H   UNL     1      -0.712  -1.438   4.974  0.00  0.00    +0.145 HD
ATOM     14  H   UNL     1      -1.945  -0.658   5.808  0.00  0.00    +0.145 HD
ENDBRANCH   5  10
BRANCH   8  15
ATOM     15  C   UNL     1       2.589  -1.645   2.313  0.00  0.00    +0.204 C 
ATOM     16 CL   UNL     1       4.117  -2.474   1.834  0.00  0.00    -0.116 Cl
ENDBRANCH   8  15
TORSDOF 2
