REMARK  Name = ZINC42667409
REMARK  8 active torsions:
REMARK  status: ('A' for Active; 'I' for Inactive)
REMARK    1  A    between atoms: C_1  and  C_2
REMARK    2  A    between atoms: C_2  and  C_4
REMARK    3  A    between atoms: C_2  and  N_16
REMARK    4  A    between atoms: N_6  and  C_7
REMARK    5  A    between atoms: C_10  and  C_14
REMARK    6  A    between atoms: N_16  and  C_17
REMARK    7  A    between atoms: C_20  and  N_23
REMARK    8  A    between atoms: N_26  and  C_27
REMARK                            x       y       z     vdW  Elec       q    Type
REMARK                         _______ _______ _______ _____ _____    ______ ____
ROOT
ATOM      1  N   UNL     1       0.060  -0.037  -1.523  0.00  0.00    -0.333 N 
ATOM      2  H   UNL     1       0.977  -0.242  -1.282  0.00  0.00    +0.147 HD
ENDROOT
BRANCH   1   3
ATOM      3  C   UNL     1      -0.398  -0.305  -2.818  0.00  0.00    +0.028 A 
ATOM      4  C   UNL     1      -1.710  -0.007  -3.165  0.00  0.00    +0.025 A 
ATOM      5  C   UNL     1      -2.162  -0.272  -4.442  0.00  0.00    +0.025 A 
ATOM      6  C   UNL     1      -1.307  -0.836  -5.379  0.00  0.00    +0.035 A 
ATOM      7  C   UNL     1       0.004  -1.134  -5.032  0.00  0.00    +0.025 A 
ATOM      8  C   UNL     1       0.459  -0.864  -3.757  0.00  0.00    +0.025 A 
BRANCH   6   9
ATOM      9  N   UNL     1      -1.767  -1.105  -6.676  0.00  0.00    -0.269 N 
ATOM     10  C   UNL     1      -2.657  -0.279  -7.260  0.00  0.00    +0.304 C 
ATOM     11  O   UNL     1      -3.126   0.652  -6.633  0.00  0.00    -0.253 OA
ATOM     12  N   UNL     1      -3.029  -0.484  -8.539  0.00  0.00    -0.296 N 
ATOM     13  H   UNL     1      -1.444  -1.885  -7.153  0.00  0.00    +0.156 HD
ATOM     14  H   UNL     1      -2.655  -1.226  -9.040  0.00  0.00    +0.151 HD
BRANCH  12  15
ATOM     15  C   UNL     1      -3.997   0.414  -9.174  0.00  0.00    +0.075 C 
ATOM     16  C   UNL     1      -5.102  -0.223 -10.019  0.00  0.00    +0.024 C 
ATOM     17  C   UNL     1      -3.957   0.531 -10.699  0.00  0.00    +0.024 C 
ENDBRANCH  12  15
ENDBRANCH   6   9
ENDBRANCH   1   3
BRANCH   1  19
ATOM     18  C   UNL     1      -0.848   2.074  -0.688  0.00  0.00    +0.038 C 
ATOM     19  C   UNL     1      -0.844   0.552  -0.533  0.00  0.00    +0.154 C 
BRANCH  19  20
ATOM     20  C   UNL     1      -0.376   0.190   0.853  0.00  0.00    +0.237 C 
ATOM     21  O   UNL     1       0.616  -0.493   0.999  0.00  0.00    -0.273 OA
ATOM     22  N   UNL     1      -1.059   0.625   1.930  0.00  0.00    -0.284 N 
ATOM     23  H   UNL     1      -1.812   1.226   1.817  0.00  0.00    +0.155 HD
BRANCH  22  24
ATOM     24  C   UNL     1      -0.682   0.212   3.209  0.00  0.00    +0.035 A 
ATOM     25  C   UNL     1       0.663   0.020   3.508  0.00  0.00    +0.024 A 
ATOM     26  C   UNL     1       1.039  -0.388   4.768  0.00  0.00    +0.022 A 
ATOM     27  C   UNL     1       0.067  -0.609   5.748  0.00  0.00    +0.070 A 
ATOM     28  C   UNL     1      -1.284  -0.415   5.445  0.00  0.00    +0.060 A 
ATOM     29  C   UNL     1      -1.652  -0.001   4.182  0.00  0.00    +0.044 A 
ATOM     30 CL   UNL     1      -2.496  -0.689   6.657  0.00  0.00    -0.082 Cl
BRANCH  27  31
ATOM     31  C   UNL     1       0.454  -1.034   7.060  0.00  0.00    +0.101 C 
ATOM     32  N   UNL     1       0.762  -1.372   8.100  0.00  0.00    -0.191 NA
ENDBRANCH  27  31
ENDBRANCH  22  24
ENDBRANCH  19  20
ENDBRANCH   1  19
TORSDOF 7
