REMARK  Name = ZINC02092583
REMARK  5 active torsions:
REMARK  status: ('A' for Active; 'I' for Inactive)
REMARK    1  A    between atoms: C_4  and  C_7
REMARK    2  A    between atoms: C_7  and  C_8
REMARK    3  A    between atoms: C_8  and  C_10
REMARK    4  A    between atoms: C_8  and  N_14
REMARK    5  A    between atoms: N_12  and  N_13
REMARK                            x       y       z     vdW  Elec       q    Type
REMARK                         _______ _______ _______ _____ _____    ______ ____
ROOT
ATOM      1  N   UNL     1      -0.054   0.009   3.668  0.00  0.00    -0.288 N 
ATOM      2  C   UNL     1       0.283  -1.200   3.178  0.00  0.00    +0.303 C 
ATOM      3  O   UNL     1       1.109  -1.881   3.754  0.00  0.00    -0.253 OA
ATOM      4  N   UNL     1      -0.297  -1.655   2.049  0.00  0.00    -0.285 N 
ATOM      5  C   UNL     1      -1.369  -0.893   1.397  0.00  0.00    +0.114 C 
ATOM      6  C   UNL     1      -2.561  -1.798   1.115  0.00  0.00    +0.027 C 
ATOM      7  C   UNL     1      -2.123  -3.078   0.403  0.00  0.00    +0.018 C 
ATOM      8  C   UNL     1      -1.118  -3.809   1.297  0.00  0.00    +0.054 C 
ATOM      9  C   UNL     1       0.132  -2.925   1.443  0.00  0.00    +0.119 C 
ATOM     10  C   UNL     1      -1.708  -4.003   2.674  0.00  0.00    +0.027 A 
ATOM     11  C   UNL     1      -1.247  -5.048   3.411  0.00  0.00    +0.022 A 
ATOM     12  C   UNL     1      -1.696  -5.248   4.721  0.00  0.00    +0.007 A 
ATOM     13  C   UNL     1      -2.578  -4.358   5.258  0.00  0.00    +0.070 A 
ATOM     14  C   UNL     1      -3.024  -3.283   4.476  0.00  0.00    +0.251 A 
ATOM     15  O   UNL     1      -3.759  -2.442   4.968  0.00  0.00    -0.268 OA
ATOM     16  N   UNL     1      -2.646  -3.168   3.179  0.00  0.00    -0.312 N 
ATOM     17  C   UNL     1      -3.323  -2.146   2.381  0.00  0.00    +0.130 C 
ATOM     18  H   UNL     1      -0.764   0.521   3.251  0.00  0.00    +0.151 HD
ENDROOT
BRANCH   1  19
ATOM     19  C   UNL     1       0.652   0.551   4.832  0.00  0.00    +0.166 C 
BRANCH  19  20
ATOM     20  C   UNL     1       0.059  -0.025   6.092  0.00  0.00    +0.247 C 
ATOM     21  O   UNL     1      -0.863  -0.810   6.025  0.00  0.00    -0.272 OA
ATOM     22  N   UNL     1       0.553   0.332   7.294  0.00  0.00    -0.252 N 
ATOM     23  H   UNL     1       1.291   0.960   7.348  0.00  0.00    +0.169 HD
BRANCH  22  24
ATOM     24  N   UNL     1       0.016  -0.190   8.436  0.00  0.00    -0.254 NA
ATOM     25  H   UNL     1       0.039  -1.198   8.419  0.00  0.00    +0.140 HD
ATOM     26  H   UNL     1       0.487   0.169   9.254  0.00  0.00    +0.140 HD
ENDBRANCH  22  24
ENDBRANCH  19  20
BRANCH  19  27
ATOM     27  C   UNL     1       0.510   2.074   4.852  0.00  0.00    +0.067 C 
BRANCH  27  31
ATOM     28  C   UNL     1       2.516   3.735   1.465  0.00  0.00    +0.000 A 
ATOM     29  C   UNL     1       1.158   3.482   1.409  0.00  0.00    +0.000 A 
ATOM     30  C   UNL     1       0.509   2.945   2.505  0.00  0.00    +0.004 A 
ATOM     31  C   UNL     1       1.218   2.660   3.657  0.00  0.00    -0.045 A 
ATOM     32  C   UNL     1       2.575   2.917   3.715  0.00  0.00    +0.004 A 
ATOM     33  C   UNL     1       3.225   3.449   2.617  0.00  0.00    +0.000 A 
ENDBRANCH  27  31
ENDBRANCH  19  27
ENDBRANCH   1  19
TORSDOF 5
