REMARK  Name = ZINC12502385
REMARK  7 active torsions:
REMARK  status: ('A' for Active; 'I' for Inactive)
REMARK    1  A    between atoms: C_3  and  C_9
REMARK    2  A    between atoms: N_11  and  N_12
REMARK    3  A    between atoms: N_12  and  C_13
REMARK    4  A    between atoms: C_13  and  N_15
REMARK    5  A    between atoms: C_16  and  C_18
REMARK    6  A    between atoms: C_18  and  O_19
REMARK    7  A    between atoms: O_19  and  C_20
REMARK                            x       y       z     vdW  Elec       q    Type
REMARK                         _______ _______ _______ _____ _____    ______ ____
ROOT
ATOM      1  C   UNL     1       5.162  -2.690  -0.064  0.00  0.00    +0.153 C 
ATOM      2  S   UNL     1       6.504  -1.627  -0.071  0.00  0.00    -0.017 S 
ENDROOT
BRANCH   1   3
ATOM      3  N   UNL     1       3.909  -2.193  -0.049  0.00  0.00    -0.264 N 
ATOM      4  C   UNL     1       3.713  -0.860  -0.040  0.00  0.00    +0.256 C 
ATOM      5  O   UNL     1       4.663  -0.107  -0.044  0.00  0.00    -0.272 OA
ATOM      6  H   UNL     1       3.148  -2.795  -0.045  0.00  0.00    +0.157 HD
BRANCH   4   7
ATOM      7  C   UNL     1       2.312  -0.304  -0.023  0.00  0.00    +0.325 C 
BRANCH   7   8
ATOM      8  O   UNL     1       2.366   1.123  -0.015  0.00  0.00    -0.481 OA
BRANCH   8   9
ATOM      9  C   UNL     1       1.179   1.786   0.000  0.00  0.00    +0.140 A 
ATOM     10  C   UNL     1      -0.013   1.076   0.008  0.00  0.00    +0.048 A 
ATOM     11  C   UNL     1      -1.218   1.751   0.017  0.00  0.00    +0.023 A 
ATOM     12  C   UNL     1      -1.238   3.134   0.031  0.00  0.00    +0.043 A 
ATOM     13  C   UNL     1      -0.051   3.845   0.023  0.00  0.00    +0.043 A 
ATOM     14  C   UNL     1       1.157   3.174   0.008  0.00  0.00    +0.084 A 
ATOM     15 CL   UNL     1       2.647   4.066  -0.002  0.00  0.00    -0.080 Cl
ATOM     16 CL   UNL     1      -2.754   3.979   0.049  0.00  0.00    -0.083 Cl
ENDBRANCH   8   9
ENDBRANCH   7   8
ENDBRANCH   4   7
ENDBRANCH   1   3
BRANCH   1  17
ATOM     17  N   UNL     1       5.358  -4.024  -0.074  0.00  0.00    -0.245 N 
ATOM     18  H   UNL     1       6.259  -4.381  -0.085  0.00  0.00    +0.172 HD
BRANCH  17  21
ATOM     19  C   UNL     1       4.455  -6.226  -0.077  0.00  0.00    +0.262 C 
ATOM     20  O   UNL     1       5.585  -6.675  -0.091  0.00  0.00    -0.269 OA
ATOM     21  N   UNL     1       4.259  -4.893  -0.068  0.00  0.00    -0.231 N 
ATOM     22  H   UNL     1       3.358  -4.536  -0.057  0.00  0.00    +0.173 HD
BRANCH  19  25
ATOM     23  C   UNL     1       0.921  -7.493  -0.051  0.00  0.00    +0.021 A 
ATOM     24  C   UNL     1       1.998  -6.632  -0.056  0.00  0.00    +0.016 A 
ATOM     25  C   UNL     1       3.297  -7.143  -0.071  0.00  0.00    +0.057 A 
ATOM     26  C   UNL     1       3.497  -8.527  -0.087  0.00  0.00    +0.054 A 
ATOM     27  C   UNL     1       2.410  -9.378  -0.077  0.00  0.00    +0.040 A 
ATOM     28  C   UNL     1       1.125  -8.863  -0.061  0.00  0.00    +0.042 A 
ATOM     29 CL   UNL     1      -0.237  -9.939  -0.054  0.00  0.00    -0.083 Cl
ATOM     30 CL   UNL     1       5.108  -9.173  -0.114  0.00  0.00    -0.083 Cl
ENDBRANCH  19  25
ENDBRANCH  17  21
ENDBRANCH   1  17
TORSDOF 7
