REMARK  Name = ZINC04721246
REMARK  6 active torsions:
REMARK  status: ('A' for Active; 'I' for Inactive)
REMARK    1  A    between atoms: C_1  and  O_2
REMARK    2  A    between atoms: O_2  and  C_3
REMARK    3  A    between atoms: C_5  and  O_18
REMARK    4  A    between atoms: C_7  and  O_17
REMARK    5  A    between atoms: C_9  and  O_16
REMARK    6  A    between atoms: C_11  and  C_14
REMARK                            x       y       z     vdW  Elec       q    Type
REMARK                         _______ _______ _______ _____ _____    ______ ____
ROOT
ATOM      1  C   UNL     1       2.151   1.482  -1.223  0.00  0.00    +0.282 C 
ATOM      2  C   UNL     1       1.422   2.047  -0.001  0.00  0.00    +0.201 C 
ATOM      3  C   UNL     1      -0.019   1.528   0.010  0.00  0.00    +0.179 C 
ATOM      4  C   UNL     1       0.002  -0.004   0.002  0.00  0.00    +0.185 C 
ATOM      5  C   UNL     1       0.785  -0.489  -1.221  0.00  0.00    +0.265 C 
ATOM      6  O   UNL     1       2.106   0.054  -1.185  0.00  0.00    -0.331 OA
ENDROOT
BRANCH   5   7
ATOM      7  C   UNL     1       0.861  -1.994  -1.204  0.00  0.00    +0.387 C 
ATOM      8  O   UNL     1       1.929  -2.545  -1.076  0.00  0.00    -0.243 OA
ATOM      9  O   UNL     1      -0.259  -2.724  -1.332  0.00  0.00    -0.243 OA
ENDBRANCH   5   7
BRANCH   1  11
ATOM     10  C   UNL     1       4.224   1.636  -2.417  0.00  0.00    +0.197 C 
ATOM     11  O   UNL     1       3.512   1.917  -1.210  0.00  0.00    -0.352 OA
ENDBRANCH   1  11
BRANCH   4  12
ATOM     12  O   UNL     1       0.632  -0.480   1.193  0.00  0.00    -0.386 OA
ATOM     13  H   UNL     1       0.680  -1.444   1.255  0.00  0.00    +0.210 HD
ENDBRANCH   4  12
BRANCH   3  14
ATOM     14  O   UNL     1      -0.685   1.990   1.187  0.00  0.00    -0.386 OA
ATOM     15  H   UNL     1      -0.734   2.953   1.258  0.00  0.00    +0.210 HD
ENDBRANCH   3  14
BRANCH   2  16
ATOM     16  O   UNL     1       2.091   1.626   1.190  0.00  0.00    -0.384 OA
ATOM     17  H   UNL     1       3.010   1.920   1.250  0.00  0.00    +0.210 HD
ENDBRANCH   2  16
TORSDOF 5
