REMARK  Name = ZINC67457283
REMARK  8 active torsions:
REMARK  status: ('A' for Active; 'I' for Inactive)
REMARK    1  A    between atoms: C_1  and  N_2
REMARK    2  A    between atoms: C_3  and  C_5
REMARK    3  A    between atoms: C_8  and  C_11
REMARK    4  A    between atoms: C_11  and  N_12
REMARK    5  A    between atoms: N_15  and  C_16
REMARK    6  A    between atoms: C_16  and  C_17
REMARK    7  A    between atoms: N_22  and  C_23
REMARK    8  A    between atoms: C_23  and  C_24
REMARK                            x       y       z     vdW  Elec       q    Type
REMARK                         _______ _______ _______ _____ _____    ______ ____
ROOT
ATOM      1  N   UNL     1       1.882  -6.898   0.273  0.00  0.00    -0.295 N 
ATOM      2  C   UNL     1       2.113  -8.219   0.141  0.00  0.00    +0.300 C 
ATOM      3  O   UNL     1       1.326  -9.022   0.603  0.00  0.00    -0.253 OA
ATOM      4  N   UNL     1       3.216  -8.650  -0.502  0.00  0.00    -0.301 N 
ATOM      5  H   UNL     1       2.510  -6.257  -0.095  0.00  0.00    +0.151 HD
ATOM      6  H   UNL     1       3.845  -8.009  -0.870  0.00  0.00    +0.150 HD
ENDROOT
BRANCH   1   7
ATOM      7  C   UNL     1       0.683  -6.429   0.972  0.00  0.00    +0.141 C 
BRANCH   7  11
ATOM      8  C   UNL     1       0.624  -2.154   0.995  0.00  0.00    +0.037 A 
ATOM      9  C   UNL     1       0.026  -2.857  -0.051  0.00  0.00    +0.013 A 
ATOM     10  C   UNL     1       0.048  -4.236  -0.053  0.00  0.00    +0.006 A 
ATOM     11  C   UNL     1       0.662  -4.923   0.980  0.00  0.00    -0.030 A 
ATOM     12  C   UNL     1       1.258  -4.231   2.020  0.00  0.00    +0.006 A 
ATOM     13  C   UNL     1       1.247  -2.852   2.031  0.00  0.00    +0.013 A 
BRANCH   8  16
ATOM     14  C   UNL     1      -0.018   1.461   0.010  0.00  0.00    +0.128 C 
ATOM     15  N   UNL     1       0.002  -0.004   0.002  0.00  0.00    -0.314 N 
ATOM     16  C   UNL     1       0.604  -0.675   1.004  0.00  0.00    +0.244 C 
ATOM     17  O   UNL     1       1.131  -0.065   1.913  0.00  0.00    -0.270 OA
ATOM     18  H   UNL     1      -0.418  -0.491  -0.724  0.00  0.00    +0.149 HD
ENDBRANCH   8  16
ENDBRANCH   7  11
ENDBRANCH   1   7
BRANCH   4  19
ATOM     19  C   UNL     1       3.467 -10.086  -0.644  0.00  0.00    +0.090 C 
BRANCH  19  20
ATOM     20  C   UNL     1       4.776 -10.302  -1.407  0.00  0.00    -0.051 C 
ATOM     21  C   UNL     1       5.136 -11.802  -1.417  0.00  0.00    -0.016 C 
ATOM     22  C   UNL     1       6.678 -11.792  -1.250  0.00  0.00    -0.020 C 
ATOM     23  C   UNL     1       6.882 -10.587  -0.299  0.00  0.00    -0.078 C 
ATOM     24  N   UNL     1       5.875  -9.590  -0.730  0.00  0.00    +0.383 N 
ATOM     25  H   UNL     1       5.516  -9.098   0.075  0.00  0.00    -0.081 HD
BRANCH  24  26
ATOM     26  C   UNL     1       6.489  -8.631  -1.659  0.00  0.00    -0.075 C 
BRANCH  26  27
ATOM     27  C   UNL     1       7.544  -7.808  -0.918  0.00  0.00    -0.028 C 
ATOM     28  C   UNL     1       6.864  -6.954   0.154  0.00  0.00    +0.002 C 
ATOM     29  C   UNL     1       7.919  -6.130   0.895  0.00  0.00    +0.000 C 
ATOM     30  C   UNL     1       8.646  -5.220  -0.097  0.00  0.00    +0.000 C 
ATOM     31  C   UNL     1       9.325  -6.074  -1.169  0.00  0.00    +0.000 C 
ATOM     32  C   UNL     1       8.270  -6.898  -1.910  0.00  0.00    +0.002 C 
ENDBRANCH  26  27
ENDBRANCH  24  26
ENDBRANCH  19  20
ENDBRANCH   4  19
TORSDOF 7
