REMARK  Name = ZINC44167091
REMARK  7 active torsions:
REMARK  status: ('A' for Active; 'I' for Inactive)
REMARK    1  A    between atoms: C_3  and  O_8
REMARK    2  A    between atoms: C_6  and  N_7
REMARK    3  A    between atoms: O_8  and  C_9
REMARK    4  A    between atoms: C_11  and  O_25
REMARK    5  A    between atoms: C_13  and  O_24
REMARK    6  A    between atoms: C_15  and  O_23
REMARK    7  A    between atoms: C_17  and  C_20
REMARK                            x       y       z     vdW  Elec       q    Type
REMARK                         _______ _______ _______ _____ _____    ______ ____
ROOT
ATOM      1  C   UNL     1       4.758   1.349  -0.036  0.00  0.00    +0.340 C 
ATOM      2  C   UNL     1       5.955   2.294  -0.169  0.00  0.00    +0.214 C 
ATOM      3  C   UNL     1       6.003   3.218   1.052  0.00  0.00    +0.180 C 
ATOM      4  C   UNL     1       6.074   2.364   2.322  0.00  0.00    +0.186 C 
ATOM      5  C   UNL     1       4.872   1.416   2.358  0.00  0.00    +0.266 C 
ATOM      6  O   UNL     1       4.870   0.607   1.180  0.00  0.00    -0.322 OA
ENDROOT
BRANCH   5   7
ATOM      7  C   UNL     1       4.966   0.532   3.575  0.00  0.00    +0.387 C 
ATOM      8  O   UNL     1       4.891   1.020   4.690  0.00  0.00    -0.243 OA
ATOM      9  O   UNL     1       5.116  -0.671   3.444  0.00  0.00    -0.243 OA
ENDBRANCH   5   7
BRANCH   4  10
ATOM     10  O   UNL     1       6.048   3.214   3.471  0.00  0.00    -0.386 OA
ATOM     11  H   UNL     1       6.089   2.739   4.312  0.00  0.00    +0.210 HD
ENDBRANCH   4  10
BRANCH   3  12
ATOM     12  O   UNL     1       4.827   4.029   1.084  0.00  0.00    -0.386 OA
ATOM     13  H   UNL     1       4.791   4.640   1.833  0.00  0.00    +0.210 HD
ENDBRANCH   3  12
BRANCH   2  14
ATOM     14  O   UNL     1       7.161   1.530  -0.239  0.00  0.00    -0.383 OA
ATOM     15  H   UNL     1       7.196   0.919  -0.988  0.00  0.00    +0.210 HD
ENDBRANCH   2  14
BRANCH   1  16
ATOM     16  O   UNL     1       3.549   2.110  -0.021  0.00  0.00    -0.461 OA
BRANCH  16  19
ATOM     17  C   UNL     1      -0.017   1.384   0.010  0.00  0.00    +0.026 A 
ATOM     18  C   UNL     1       1.170   2.091   0.002  0.00  0.00    +0.047 A 
ATOM     19  C   UNL     1       2.380   1.414  -0.013  0.00  0.00    +0.124 A 
ATOM     20  C   UNL     1       2.400   0.027  -0.021  0.00  0.00    +0.047 A 
ATOM     21  C   UNL     1       1.214  -0.681  -0.013  0.00  0.00    +0.026 A 
ATOM     22  C   UNL     1       0.002  -0.004   0.002  0.00  0.00    +0.025 A 
BRANCH  22  23
ATOM     23  N   UNL     1      -1.200  -0.721   0.010  0.00  0.00    -0.358 N 
ATOM     24  H   UNL     1      -2.047  -0.247   0.021  0.00  0.00    +0.142 HD
ATOM     25  H   UNL     1      -1.186  -1.690   0.005  0.00  0.00    +0.142 HD
ENDBRANCH  22  23
ENDBRANCH  16  19
ENDBRANCH   1  16
TORSDOF 7
