REMARK  Name = ZINC09575352
REMARK  4 active torsions:
REMARK  status: ('A' for Active; 'I' for Inactive)
REMARK    1  A    between atoms: C_7  and  O_23
REMARK    2  A    between atoms: C_9  and  C_15
REMARK    3  A    between atoms: C_15  and  C_16
REMARK    4  A    between atoms: C_19  and  O_22
REMARK                            x       y       z     vdW  Elec       q    Type
REMARK                         _______ _______ _______ _____ _____    ______ ____
ROOT
ATOM      1  C   UNL     1      -2.795  -3.987   0.642  0.00  0.00    +0.000 A 
ATOM      2  C   UNL     1      -1.883  -4.786  -0.024  0.00  0.00    +0.002 A 
ATOM      3  C   UNL     1      -0.791  -4.204  -0.636  0.00  0.00    +0.029 A 
ATOM      4  C   UNL     1      -0.612  -2.833  -0.588  0.00  0.00    +0.111 A 
ATOM      5  C   UNL     1      -1.521  -2.027   0.061  0.00  0.00    +0.009 A 
ATOM      6  C   UNL     1      -2.615  -2.622   0.685  0.00  0.00    +0.008 A 
ATOM      7  C   UNL     1      -1.417  -0.532   0.134  0.00  0.00    +0.165 C 
ATOM      8  C   UNL     1       0.002  -0.004   0.002  0.00  0.00    +0.114 C 
ATOM      9  N   UNL     1       0.582  -0.483  -1.268  0.00  0.00    -0.184 NA
ATOM     10  S   UNL     1       0.809  -2.131  -1.374  0.00  0.00    +0.059 S 
ATOM     11  O   UNL     1       0.733  -2.473  -2.751  0.00  0.00    -0.153 OA
ATOM     12  O   UNL     1       1.932  -2.448  -0.563  0.00  0.00    -0.153 OA
ATOM     13  H   UNL     1       0.815   0.120  -1.992  0.00  0.00    +0.148 HD
ENDROOT
BRANCH   7  14
ATOM     14  O   UNL     1      -2.211   0.030  -0.912  0.00  0.00    -0.386 OA
ATOM     15  H   UNL     1      -3.135  -0.255  -0.902  0.00  0.00    +0.210 HD
ENDBRANCH   7  14
BRANCH   8  16
ATOM     16  C   UNL     1      -0.019   1.526   0.010  0.00  0.00    +0.058 C 
BRANCH  16  17
ATOM     17  C   UNL     1       1.395   2.047  -0.000  0.00  0.00    -0.046 A 
ATOM     18  C   UNL     1       2.052   2.285   1.193  0.00  0.00    +0.007 A 
ATOM     19  C   UNL     1       3.350   2.758   1.186  0.00  0.00    +0.045 A 
ATOM     20  C   UNL     1       3.990   3.005  -0.020  0.00  0.00    +0.117 A 
ATOM     21  C   UNL     1       3.327   2.771  -1.216  0.00  0.00    +0.045 A 
ATOM     22  C   UNL     1       2.031   2.293  -1.203  0.00  0.00    +0.007 A 
BRANCH  20  23
ATOM     23  O   UNL     1       5.266   3.475  -0.030  0.00  0.00    -0.507 OA
ATOM     24  H   UNL     1       5.329   4.440  -0.025  0.00  0.00    +0.292 HD
ENDBRANCH  20  23
ENDBRANCH  16  17
ENDBRANCH   8  16
TORSDOF 4
