REMARK  Name = ZINC20568193
REMARK  12 active torsions:
REMARK  status: ('A' for Active; 'I' for Inactive)
REMARK    1  A    between atoms: C_1  and  C_2
REMARK    2  A    between atoms: C_2  and  C_23
REMARK    3  A    between atoms: C_4  and  N_11
REMARK    4  A    between atoms: C_7  and  C_9
REMARK    5  A    between atoms: C_7  and  C_10
REMARK    6  A    between atoms: N_14  and  C_15
REMARK    7  A    between atoms: C_19  and  S_21
REMARK    8  A    between atoms: S_21  and  C_22
REMARK    9  A    between atoms: C_23  and  N_24
REMARK   10  A    between atoms: N_27  and  C_28
REMARK   11  A    between atoms: C_32  and  S_34
REMARK   12  A    between atoms: S_34  and  C_35
REMARK                            x       y       z     vdW  Elec       q    Type
REMARK                         _______ _______ _______ _____ _____    ______ ____
ROOT
ATOM      1  C   UNL     1      -0.047   1.376   0.890  0.00  0.00    +0.013 C 
ATOM      2  C   UNL     1       0.012  -0.090   0.454  0.00  0.00    -0.014 C 
ATOM      3  C   UNL     1       1.024  -0.259  -0.674  0.00  0.00    +0.030 C 
ATOM      4  C   UNL     1       2.451  -0.131  -0.145  0.00  0.00    +0.076 C 
ATOM      5  C   UNL     1       2.699  -1.238   0.878  0.00  0.00    +0.028 C 
ATOM      6  C   UNL     1       1.748  -1.105   2.061  0.00  0.00    -0.033 C 
ATOM      7  C   UNL     1       0.295  -1.001   1.634  0.00  0.00    +0.014 C 
ATOM      8  C   UNL     1       2.155   0.090   2.928  0.00  0.00    +0.011 C 
ATOM      9  C   UNL     1       1.899  -2.374   2.929  0.00  0.00    +0.011 C 
ENDROOT
BRANCH   4  10
ATOM     10  N   UNL     1       3.393  -0.288  -1.261  0.00  0.00    -0.296 N 
ATOM     11  C   UNL     1       4.622   0.259  -1.187  0.00  0.00    +0.304 C 
ATOM     12  O   UNL     1       4.952   0.882  -0.197  0.00  0.00    -0.253 OA
ATOM     13  N   UNL     1       5.487   0.115  -2.212  0.00  0.00    -0.269 N 
ATOM     14  H   UNL     1       3.130  -0.786  -2.051  0.00  0.00    +0.151 HD
ATOM     15  H   UNL     1       5.253  -0.447  -2.967  0.00  0.00    +0.156 HD
BRANCH  13  16
ATOM     16  C   UNL     1       6.720   0.775  -2.184  0.00  0.00    +0.036 A 
ATOM     17  C   UNL     1       7.837   0.186  -2.766  0.00  0.00    +0.023 A 
ATOM     18  C   UNL     1       9.055   0.837  -2.740  0.00  0.00    +0.003 A 
ATOM     19  C   UNL     1       9.169   2.074  -2.135  0.00  0.00    +0.015 A 
ATOM     20  C   UNL     1       8.056   2.668  -1.551  0.00  0.00    +0.009 A 
ATOM     21  C   UNL     1       6.829   2.019  -1.581  0.00  0.00    +0.038 A 
BRANCH  20  22
ATOM     22  S   UNL     1       8.201   4.245  -0.779  0.00  0.00    -0.129 S 
ATOM     23  C   UNL     1       9.949   4.680  -0.995  0.00  0.00    +0.090 C 
ENDBRANCH  20  22
ENDBRANCH  13  16
ENDBRANCH   4  10
BRANCH   2  24
ATOM     24  C   UNL     1      -1.379  -0.459  -0.108  0.00  0.00    +0.112 C 
BRANCH  24  25
ATOM     25  N   UNL     1      -1.689   0.405  -1.250  0.00  0.00    -0.299 N 
ATOM     26  C   UNL     1      -2.859   0.265  -1.903  0.00  0.00    +0.304 C 
ATOM     27  O   UNL     1      -3.658  -0.580  -1.546  0.00  0.00    -0.253 OA
ATOM     28  N   UNL     1      -3.144   1.059  -2.954  0.00  0.00    -0.269 N 
ATOM     29  H   UNL     1      -1.052   1.079  -1.535  0.00  0.00    +0.150 HD
ATOM     30  H   UNL     1      -2.477   1.679  -3.288  0.00  0.00    +0.156 HD
BRANCH  28  31
ATOM     31  C   UNL     1      -4.402   0.990  -3.563  0.00  0.00    +0.036 A 
ATOM     32  C   UNL     1      -4.525   1.199  -4.931  0.00  0.00    +0.023 A 
ATOM     33  C   UNL     1      -5.766   1.131  -5.534  0.00  0.00    +0.003 A 
ATOM     34  C   UNL     1      -6.890   0.855  -4.779  0.00  0.00    +0.015 A 
ATOM     35  C   UNL     1      -6.774   0.644  -3.410  0.00  0.00    +0.009 A 
ATOM     36  C   UNL     1      -5.527   0.706  -2.803  0.00  0.00    +0.038 A 
BRANCH  35  37
ATOM     37  S   UNL     1      -8.208   0.293  -2.447  0.00  0.00    -0.129 S 
ATOM     38  C   UNL     1      -9.562   0.310  -3.654  0.00  0.00    +0.090 C 
ENDBRANCH  35  37
ENDBRANCH  28  31
ENDBRANCH  24  25
ENDBRANCH   2  24
TORSDOF 7
