REMARK  Name = ZINC39450552
REMARK  6 active torsions:
REMARK  status: ('A' for Active; 'I' for Inactive)
REMARK    1  A    between atoms: C_1  and  C_2
REMARK    2  A    between atoms: C_2  and  C_3
REMARK    3  A    between atoms: C_2  and  S_4
REMARK    4  A    between atoms: S_4  and  N_7
REMARK    5  A    between atoms: C_15  and  O_18
REMARK    6  A    between atoms: C_20  and  O_25
REMARK                            x       y       z     vdW  Elec       q    Type
REMARK                         _______ _______ _______ _____ _____    ______ ____
ROOT
ATOM      1  N   UNL     1      -1.615  -2.286   0.023  0.00  0.00    -0.174 N 
ATOM      2  C   UNL     1      -1.477  -2.958  -1.186  0.00  0.00    +0.134 A 
ATOM      3  C   UNL     1      -1.396  -4.338  -1.226  0.00  0.00    +0.085 A 
ATOM      4  C   UNL     1      -1.465  -5.109   0.021  0.00  0.00    +0.099 A 
ATOM      5  C   UNL     1      -1.607  -4.403   1.236  0.00  0.00    +0.072 A 
ATOM      6  C   UNL     1      -1.676  -2.935   1.200  0.00  0.00    +0.281 A 
ATOM      7  O   UNL     1      -1.791  -2.306   2.236  0.00  0.00    -0.265 OA
ATOM      8  C   UNL     1      -1.675  -5.112   2.434  0.00  0.00    +0.062 A 
ATOM      9  C   UNL     1      -1.599  -6.498   2.375  0.00  0.00    +0.136 A 
ATOM     10  C   UNL     1      -1.460  -7.126   1.139  0.00  0.00    +0.156 A 
ATOM     11  N   UNL     1      -1.397  -6.435   0.022  0.00  0.00    -0.249 NA
ATOM     12  N   UNL     1      -1.244  -4.983  -2.438  0.00  0.00    -0.316 N 
ATOM     13  C   UNL     1      -0.602  -4.253  -3.542  0.00  0.00    +0.207 C 
ATOM     14  C   UNL     1      -1.327  -2.914  -3.718  0.00  0.00    +0.132 C 
ATOM     15  C   UNL     1      -1.416  -2.216  -2.386  0.00  0.00    +0.187 C 
ATOM     16  O   UNL     1      -1.435  -1.002  -2.344  0.00  0.00    -0.290 OA
ATOM     17  H   UNL     1      -1.554  -5.895  -2.559  0.00  0.00    +0.149 HD
ENDROOT
BRANCH   1  18
ATOM     18  S   UNL     1      -1.700  -0.632   0.015  0.00  0.00    +0.060 S 
ATOM     19  O   UNL     1      -1.871  -0.271   1.379  0.00  0.00    -0.153 OA
ATOM     20  O   UNL     1      -2.700  -0.325  -0.947  0.00  0.00    -0.153 OA
BRANCH  18  22
ATOM     21  C   UNL     1      -0.077   1.437  -0.740  0.00  0.00    +0.033 C 
ATOM     22  C   UNL     1      -0.075  -0.085  -0.577  0.00  0.00    +0.148 C 
ATOM     23  C   UNL     1       0.999  -0.487   0.435  0.00  0.00    +0.033 C 
ENDBRANCH  18  22
ENDBRANCH   1  18
BRANCH   9  24
ATOM     24  O   UNL     1      -1.660  -7.236   3.514  0.00  0.00    -0.505 OA
ATOM     25  H   UNL     1      -2.557  -7.494   3.768  0.00  0.00    +0.292 HD
ENDBRANCH   9  24
BRANCH  13  26
ATOM     26  O   UNL     1       0.773  -4.019  -3.229  0.00  0.00    -0.374 OA
ATOM     27  H   UNL     1       1.287  -4.826  -3.086  0.00  0.00    +0.212 HD
ENDBRANCH  13  26
TORSDOF 4
