REMARK  Name = ZINC40784337
REMARK  7 active torsions:
REMARK  status: ('A' for Active; 'I' for Inactive)
REMARK    1  A    between atoms: C_1  and  O_2
REMARK    2  A    between atoms: O_2  and  C_3
REMARK    3  A    between atoms: C_14  and  N_27
REMARK    4  A    between atoms: C_15  and  N_19
REMARK    5  A    between atoms: N_19  and  C_20
REMARK    6  A    between atoms: C_20  and  C_21
REMARK    7  A    between atoms: C_21  and  C_22
REMARK                            x       y       z     vdW  Elec       q    Type
REMARK                         _______ _______ _______ _____ _____    ______ ____
ROOT
ATOM      1  C   UNL     1       0.606  -0.608  -1.056  0.00  0.00    +0.121 A 
ATOM      2  C   UNL     1       1.177   0.156  -2.070  0.00  0.00    +0.048 A 
ATOM      3  C   UNL     1       1.791  -0.430  -3.146  0.00  0.00    +0.032 A 
ATOM      4  C   UNL     1       1.864  -1.837  -3.261  0.00  0.00    +0.081 A 
ATOM      5  C   UNL     1       1.275  -2.582  -2.214  0.00  0.00    +0.044 A 
ATOM      6  C   UNL     1       0.665  -1.991  -1.136  0.00  0.00    +0.063 A 
ATOM      7  S   UNL     1       1.575  -4.257  -2.725  0.00  0.00    -0.052 S 
ATOM      8  C   UNL     1       2.435  -3.878  -4.245  0.00  0.00    +0.165 A 
ATOM      9  N   UNL     1       2.430  -2.565  -4.250  0.00  0.00    -0.225 NA
ATOM     10  N   UNL     1       2.970  -4.746  -5.179  0.00  0.00    -0.277 N 
ATOM     11  C   UNL     1       3.608  -4.245  -6.309  0.00  0.00    +0.150 A 
ATOM     12  C   UNL     1       4.147  -5.112  -7.261  0.00  0.00    +0.105 A 
ATOM     13  C   UNL     1       4.777  -4.557  -8.377  0.00  0.00    +0.145 A 
ATOM     14  N   UNL     1       4.840  -3.233  -8.489  0.00  0.00    -0.219 NA
ATOM     15  C   UNL     1       4.318  -2.450  -7.567  0.00  0.00    +0.225 A 
ATOM     16  N   UNL     1       3.710  -2.933  -6.502  0.00  0.00    -0.219 NA
ATOM     17  H   UNL     1       2.900  -5.704  -5.046  0.00  0.00    +0.156 HD
ENDROOT
BRANCH  12  18
ATOM     18  N   UNL     1       4.058  -6.505  -7.101  0.00  0.00    -0.353 N 
ATOM     19  H   UNL     1       3.617  -6.876  -6.321  0.00  0.00    +0.143 HD
ATOM     20  H   UNL     1       4.437  -7.095  -7.771  0.00  0.00    +0.143 HD
ENDBRANCH  12  18
BRANCH   1  22
ATOM     21  C   UNL     1      -0.017   1.425   0.010  0.00  0.00    +0.277 C 
ATOM     22  O   UNL     1       0.002  -0.004   0.002  0.00  0.00    -0.495 OA
ENDBRANCH   1  22
BRANCH  13  23
ATOM     23  N   UNL     1       5.330  -5.375  -9.355  0.00  0.00    -0.327 N 
ATOM     24  H   UNL     1       5.281  -6.340  -9.265  0.00  0.00    +0.148 HD
BRANCH  23  25
ATOM     25  C   UNL     1       5.989  -4.781 -10.521  0.00  0.00    +0.108 C 
BRANCH  25  26
ATOM     26  C   UNL     1       6.507  -5.892 -11.435  0.00  0.00    +0.061 C 
BRANCH  26  27
ATOM     27  C   UNL     1       7.185  -5.281 -12.635  0.00  0.00    -0.009 A 
ATOM     28  C   UNL     1       8.486  -4.939 -12.798  0.00  0.00    +0.011 A 
ATOM     29  C   UNL     1       8.888  -4.386 -13.999  0.00  0.00    +0.008 A 
ATOM     30  C   UNL     1       7.970  -4.203 -14.979  0.00  0.00    +0.045 A 
ATOM     31  S   UNL     1       6.483  -4.826 -14.212  0.00  0.00    -0.102 S 
ENDBRANCH  26  27
ENDBRANCH  25  26
ENDBRANCH  23  25
ENDBRANCH  13  23
TORSDOF 6
