REMARK  Name = ZINC36593171
REMARK  15 active torsions:
REMARK  status: ('A' for Active; 'I' for Inactive)
REMARK    1  A    between atoms: C_1  and  C_2
REMARK    2  A    between atoms: C_2  and  C_3
REMARK    3  A    between atoms: C_2  and  C_4
REMARK    4  A    between atoms: C_2  and  N_5
REMARK    5  A    between atoms: C_6  and  C_8
REMARK    6  A    between atoms: C_8  and  C_10
REMARK    7  A    between atoms: C_8  and  N_19
REMARK    8  A    between atoms: C_11  and  O_18
REMARK    9  A    between atoms: C_13  and  O_17
REMARK   10  A    between atoms: C_15  and  O_16
REMARK   11  A    between atoms: N_19  and  C_29
REMARK   12  A    between atoms: C_20  and  C_22
REMARK   13  A    between atoms: C_29  and  C_30
REMARK   14  A    between atoms: C_29  and  C_31
REMARK   15  A    between atoms: C_29  and  C_32
REMARK                            x       y       z     vdW  Elec       q    Type
REMARK                         _______ _______ _______ _____ _____    ______ ____
ROOT
ATOM      1  C   UNL     1       1.430   0.840  -1.613  0.00  0.00    +0.200 C 
ENDROOT
BRANCH   1   2
ATOM      2  C   UNL     1       0.685   1.833  -2.467  0.00  0.00    +0.065 A 
ATOM      3  C   UNL     1       1.383   2.813  -3.158  0.00  0.00    +0.129 A 
ATOM      4  C   UNL     1       0.698   3.727  -3.945  0.00  0.00    +0.091 A 
ATOM      5  C   UNL     1      -0.684   3.661  -4.041  0.00  0.00    +0.124 A 
ATOM      6  C   UNL     1      -1.381   2.681  -3.351  0.00  0.00    +0.091 A 
ATOM      7  C   UNL     1      -0.696   1.764  -2.568  0.00  0.00    +0.129 A 
BRANCH   7   8
ATOM      8  O   UNL     1      -1.379   0.801  -1.895  0.00  0.00    -0.506 OA
ATOM      9  H   UNL     1      -1.654   1.062  -1.005  0.00  0.00    +0.292 HD
ENDBRANCH   7   8
BRANCH   5  10
ATOM     10  O   UNL     1      -1.355   4.558  -4.811  0.00  0.00    -0.507 OA
ATOM     11  H   UNL     1      -1.475   4.276  -5.728  0.00  0.00    +0.292 HD
ENDBRANCH   5  10
BRANCH   3  12
ATOM     12  O   UNL     1       2.737   2.878  -3.064  0.00  0.00    -0.506 OA
ATOM     13  H   UNL     1       3.202   2.306  -3.689  0.00  0.00    +0.292 HD
ENDBRANCH   3  12
ENDBRANCH   1   2
BRANCH   1  15
ATOM     14  N   UNL     1       0.333   1.988   0.284  0.00  0.00    -0.309 N 
ATOM     15  C   UNL     1       1.387   1.285  -0.173  0.00  0.00    +0.239 C 
ATOM     16  O   UNL     1       2.303   1.010   0.573  0.00  0.00    -0.273 OA
ATOM     17  H   UNL     1      -0.399   2.208  -0.313  0.00  0.00    +0.149 HD
BRANCH  14  19
ATOM     18  C   UNL     1       1.492   3.324   1.973  0.00  0.00    +0.031 C 
ATOM     19  C   UNL     1       0.292   2.421   1.683  0.00  0.00    +0.026 C 
ATOM     20  C   UNL     1       0.343   1.195   2.597  0.00  0.00    +0.031 C 
ATOM     21  C   UNL     1      -1.003   3.195   1.940  0.00  0.00    +0.031 C 
ENDBRANCH  14  19
ENDBRANCH   1  15
BRANCH   1  22
ATOM     22  N   UNL     1       2.823   0.760  -2.058  0.00  0.00    -0.277 N 
ATOM     23  C   UNL     1       3.117   0.211  -3.253  0.00  0.00    +0.248 C 
ATOM     24  O   UNL     1       4.249  -0.166  -3.487  0.00  0.00    -0.270 OA
BRANCH  23  25
ATOM     25  C   UNL     1       2.065   0.068  -4.280  0.00  0.00    +0.037 A 
ATOM     26  C   UNL     1       0.720   0.208  -3.929  0.00  0.00    +0.016 A 
ATOM     27  C   UNL     1      -0.258   0.073  -4.891  0.00  0.00    +0.039 A 
ATOM     28  C   UNL     1       0.091  -0.201  -6.205  0.00  0.00    +0.123 A 
ATOM     29  C   UNL     1       1.425  -0.341  -6.558  0.00  0.00    +0.039 A 
ATOM     30  C   UNL     1       2.411  -0.203  -5.606  0.00  0.00    +0.016 A 
ATOM     31  F   UNL     1      -0.872  -0.333  -7.143  0.00  0.00    -0.205 F 
ENDBRANCH  23  25
BRANCH  22  32
ATOM     32  C   UNL     1       3.896   1.276  -1.204  0.00  0.00    +0.030 C 
ATOM     33  C   UNL     1       4.205   0.259  -0.104  0.00  0.00    +0.031 C 
ATOM     34  C   UNL     1       5.150   1.511  -2.048  0.00  0.00    +0.031 C 
ATOM     35  C   UNL     1       3.453   2.595  -0.570  0.00  0.00    +0.031 C 
ENDBRANCH  22  32
ENDBRANCH   1  22
TORSDOF 9
