REMARK  Name = ZINC50470884
REMARK  3 active torsions:
REMARK  status: ('A' for Active; 'I' for Inactive)
REMARK    1  A    between atoms: C_3  and  N_16
REMARK    2  A    between atoms: C_6  and  O_7
REMARK    3  A    between atoms: O_7  and  C_8
REMARK                            x       y       z     vdW  Elec       q    Type
REMARK                         _______ _______ _______ _____ _____    ______ ____
ROOT
ATOM      1  C   UNL     1      -0.071   1.367  -0.424  0.00  0.00    +0.047 A 
ATOM      2  C   UNL     1       1.092   2.075  -0.653  0.00  0.00    +0.028 A 
ATOM      3  C   UNL     1       2.313   1.416  -0.677  0.00  0.00    +0.043 A 
ATOM      4  C   UNL     1       2.364   0.042  -0.469  0.00  0.00    +0.065 A 
ATOM      5  C   UNL     1       1.199  -0.664  -0.240  0.00  0.00    +0.067 A 
ATOM      6  C   UNL     1      -0.020  -0.003  -0.217  0.00  0.00    +0.123 A 
ATOM      7 CL   UNL     1       3.890  -0.785  -0.499  0.00  0.00    -0.082 Cl
ENDROOT
BRANCH   3   8
ATOM      8  N   UNL     1       3.493   2.133  -0.910  0.00  0.00    -0.357 N 
ATOM      9  H   UNL     1       3.457   3.091  -1.055  0.00  0.00    +0.142 HD
ATOM     10  H   UNL     1       4.346   1.672  -0.927  0.00  0.00    +0.142 HD
ENDBRANCH   3   8
BRANCH   6  11
ATOM     11  O   UNL     1      -1.167  -0.700   0.009  0.00  0.00    -0.477 OA
BRANCH  11  12
ATOM     12  C   UNL     1      -2.372   0.058   0.136  0.00  0.00    +0.284 C 
ATOM     13  C   UNL     1      -3.438  -0.744   0.924  0.00  0.00    +0.097 C 
ATOM     14  C   UNL     1      -4.709  -0.434   0.089  0.00  0.00    +0.236 C 
ATOM     15  O   UNL     1      -4.195  -0.362  -1.258  0.00  0.00    -0.462 OA
ATOM     16  C   UNL     1      -3.006   0.279  -1.224  0.00  0.00    +0.348 C 
ATOM     17  O   UNL     1      -2.527   0.922  -2.127  0.00  0.00    -0.247 OA
ENDBRANCH  11  12
ENDBRANCH   6  11
TORSDOF 3
