REMARK  Name = ZINC12414549
REMARK  6 active torsions:
REMARK  status: ('A' for Active; 'I' for Inactive)
REMARK    1  A    between atoms: C_1  and  C_2
REMARK    2  A    between atoms: C_9  and  C_15
REMARK    3  A    between atoms: N_17  and  C_18
REMARK    4  A    between atoms: C_19  and  C_26
REMARK    5  A    between atoms: C_21  and  C_25
REMARK    6  A    between atoms: C_23  and  C_24
REMARK                            x       y       z     vdW  Elec       q    Type
REMARK                         _______ _______ _______ _____ _____    ______ ____
ROOT
ATOM      1  C   UNL     1      -3.522   0.517  -1.434  0.00  0.00    +0.044 C 
ATOM      2  C   UNL     1      -3.235   1.089  -0.070  0.00  0.00    -0.049 A 
ATOM      3  C   UNL     1      -1.927   1.210   0.364  0.00  0.00    +0.005 A 
ATOM      4  C   UNL     1      -1.663   1.741   1.614  0.00  0.00    +0.030 A 
ATOM      5  C   UNL     1      -2.702   2.148   2.424  0.00  0.00    +0.126 A 
ATOM      6  C   UNL     1      -4.019   2.020   2.004  0.00  0.00    +0.056 A 
ATOM      7  C   UNL     1      -4.276   1.495   0.738  0.00  0.00    +0.028 A 
ATOM      8  N   UNL     1      -5.093   2.393   2.807  0.00  0.00    -0.319 N 
ATOM      9  C   UNL     1      -4.979   3.346   3.908  0.00  0.00    +0.247 C 
ATOM     10  N   UNL     1      -3.842   2.948   4.763  0.00  0.00    -0.161 NA
ATOM     11  S   UNL     1      -2.358   2.859   4.006  0.00  0.00    +0.062 S 
ATOM     12  O   UNL     1      -1.581   1.912   4.726  0.00  0.00    -0.153 OA
ATOM     13  O   UNL     1      -1.928   4.194   3.777  0.00  0.00    -0.153 OA
ATOM     14  H   UNL     1      -5.961   2.001   2.626  0.00  0.00    +0.148 HD
ATOM     15  H   UNL     1      -3.952   2.751   5.706  0.00  0.00    +0.151 HD
ENDROOT
BRANCH   9  16
ATOM     16  C   UNL     1      -4.739   4.728   3.358  0.00  0.00    +0.254 C 
ATOM     17  O   UNL     1      -4.400   4.871   2.202  0.00  0.00    -0.272 OA
ATOM     18  N   UNL     1      -4.900   5.806   4.151  0.00  0.00    -0.282 N 
ATOM     19  H   UNL     1      -5.135   5.691   5.085  0.00  0.00    +0.155 HD
BRANCH  18  20
ATOM     20  C   UNL     1      -4.728   7.092   3.627  0.00  0.00    +0.039 A 
ATOM     21  C   UNL     1      -5.630   8.100   3.944  0.00  0.00    -0.029 A 
ATOM     22  C   UNL     1      -5.453   9.369   3.430  0.00  0.00    +0.008 A 
ATOM     23  C   UNL     1      -4.388   9.635   2.590  0.00  0.00    -0.050 A 
ATOM     24  C   UNL     1      -3.492   8.633   2.267  0.00  0.00    +0.008 A 
ATOM     25  C   UNL     1      -3.659   7.362   2.783  0.00  0.00    -0.029 A 
ATOM     26  C   UNL     1      -2.682   6.271   2.430  0.00  0.00    +0.045 C 
ATOM     27  C   UNL     1      -4.202  11.020   2.026  0.00  0.00    +0.044 C 
ATOM     28  C   UNL     1      -6.795   7.809   4.854  0.00  0.00    +0.045 C 
ENDBRANCH  18  20
ENDBRANCH   9  16
TORSDOF 2
