REMARK  Name = ZINC32943852
REMARK  3 active torsions:
REMARK  status: ('A' for Active; 'I' for Inactive)
REMARK    1  A    between atoms: C_4  and  C_7
REMARK    2  A    between atoms: N_10  and  S_13
REMARK    3  A    between atoms: S_13  and  C_16
REMARK                            x       y       z     vdW  Elec       q    Type
REMARK                         _______ _______ _______ _____ _____    ______ ____
ROOT
ATOM      1  S   UNL     1      -1.005   0.589  -2.482  0.00  0.00    +0.061 S 
ATOM      2  O   UNL     1      -1.175   1.441  -3.607  0.00  0.00    -0.153 OA
ATOM      3  O   UNL     1      -0.016  -0.430  -2.441  0.00  0.00    -0.153 OA
ENDROOT
BRANCH   1   4
ATOM      4  C   UNL     1      -2.556  -0.204  -2.213  0.00  0.00    +0.107 A 
ATOM      5  C   UNL     1      -2.603  -1.417  -1.551  0.00  0.00    +0.030 A 
ATOM      6  C   UNL     1      -3.819  -2.038  -1.338  0.00  0.00    +0.018 A 
ATOM      7  C   UNL     1      -4.993  -1.454  -1.797  0.00  0.00    +0.029 A 
ATOM      8  C   UNL     1      -4.949  -0.233  -2.464  0.00  0.00    +0.043 A 
ATOM      9  C   UNL     1      -3.718   0.386  -2.668  0.00  0.00    +0.052 A 
ATOM     10  N   UNL     1      -6.094   0.411  -2.936  0.00  0.00    -0.342 N 
ATOM     11  C   UNL     1      -7.364  -0.277  -3.148  0.00  0.00    +0.112 C 
ATOM     12  C   UNL     1      -7.763  -0.990  -1.846  0.00  0.00    +0.093 C 
ATOM     13  S   UNL     1      -6.526  -2.283  -1.526  0.00  0.00    -0.122 S 
ATOM     14  H   UNL     1      -6.009   1.486  -3.151  0.00  0.00    +0.146 HD
ENDBRANCH   1   4
BRANCH   1  18
ATOM     15  C   UNL     1      -1.669   2.477   1.222  0.00  0.00    -0.042 C 
ATOM     16  C   UNL     1      -0.719   1.572   1.243  0.00  0.00    -0.006 C 
ATOM     17  C   UNL     1      -0.013   1.086   0.008  0.00  0.00    +0.137 C 
ATOM     18  N   UNL     1      -0.726   1.574  -1.181  0.00  0.00    -0.173 NA
ATOM     19  C   UNL     1      -1.183   2.974  -1.168  0.00  0.00    +0.114 C 
ATOM     20  C   UNL     1      -2.188   3.132  -0.024  0.00  0.00    +0.052 C 
BRANCH  15  24
ATOM     21  C   UNL     1      -3.392   3.626   4.930  0.00  0.00    +0.000 A 
ATOM     22  C   UNL     1      -2.060   3.901   4.674  0.00  0.00    +0.001 A 
ATOM     23  C   UNL     1      -1.495   3.530   3.472  0.00  0.00    +0.008 A 
ATOM     24  C   UNL     1      -2.269   2.876   2.512  0.00  0.00    -0.022 A 
ATOM     25  C   UNL     1      -3.612   2.607   2.775  0.00  0.00    +0.008 A 
ATOM     26  C   UNL     1      -4.165   2.978   3.983  0.00  0.00    +0.001 A 
ENDBRANCH  15  24
ENDBRANCH   1  18
TORSDOF 3
