REMARK  Name = ZINC19730995
REMARK  10 active torsions:
REMARK  status: ('A' for Active; 'I' for Inactive)
REMARK    1  A    between atoms: C_1  and  C_2
REMARK    2  A    between atoms: C_2  and  C_8
REMARK    3  A    between atoms: N_3  and  N_4
REMARK    4  A    between atoms: N_4  and  C_5
REMARK    5  A    between atoms: C_5  and  N_7
REMARK    6  A    between atoms: C_8  and  C_9
REMARK    7  A    between atoms: C_15  and  C_16
REMARK    8  A    between atoms: C_15  and  C_17
REMARK    9  A    between atoms: C_18  and  C_22
REMARK   10  A    between atoms: C_18  and  C_23
REMARK                            x       y       z     vdW  Elec       q    Type
REMARK                         _______ _______ _______ _____ _____    ______ ____
ROOT
ATOM      1  C   UNL     1      -1.143  -0.534  -2.133  0.00  0.00    +0.004 C 
ATOM      2  C   UNL     1      -1.131   0.890  -2.673  0.00  0.00    +0.035 C 
ATOM      3  C   UNL     1      -2.223   1.103  -3.701  0.00  0.00    -0.069 C 
ATOM      4  C   UNL     1      -2.813   0.123  -4.315  0.00  0.00    -0.064 C 
ATOM      5  C   UNL     1      -2.496  -1.331  -4.035  0.00  0.00    +0.038 C 
ATOM      6  C   UNL     1      -1.152  -1.487  -3.336  0.00  0.00    -0.028 C 
ATOM      7  C   UNL     1      -0.978  -2.930  -2.858  0.00  0.00    +0.011 C 
ATOM      8  C   UNL     1      -0.022  -1.118  -4.300  0.00  0.00    +0.011 C 
ATOM      9  C   UNL     1      -3.866   0.339  -5.383  0.00  0.00    -0.014 C 
ATOM     10  C   UNL     1      -4.471   1.735  -5.297  0.00  0.00    +0.011 C 
ATOM     11  C   UNL     1      -3.312   2.741  -5.264  0.00  0.00    +0.005 C 
ATOM     12  C   UNL     1      -2.580   2.556  -3.941  0.00  0.00    +0.031 C 
ATOM     13  C   UNL     1      -3.227   0.155  -6.760  0.00  0.00    +0.015 C 
ATOM     14  C   UNL     1      -4.977  -0.699  -5.206  0.00  0.00    +0.015 C 
ENDROOT
BRANCH   1  15
ATOM     15  C   UNL     1       0.108  -0.779  -1.286  0.00  0.00    +0.056 C 
BRANCH  15  17
ATOM     16  C   UNL     1      -0.552  -0.491   1.222  0.00  0.00    +0.062 C 
ATOM     17  C   UNL     1       0.046   0.069  -0.042  0.00  0.00    +0.034 C 
ATOM     18  N   UNL     1       0.502   1.265  -0.059  0.00  0.00    -0.190 NA
BRANCH  18  19
ATOM     19  N   UNL     1       0.444   2.053   1.098  0.00  0.00    -0.219 N 
ATOM     20  H   UNL     1       0.059   1.693   1.912  0.00  0.00    +0.176 HD
BRANCH  19  21
ATOM     21  C   UNL     1       0.924   3.313   1.080  0.00  0.00    +0.147 C 
ATOM     22  S   UNL     1       0.853   4.276   2.494  0.00  0.00    -0.017 S 
BRANCH  21  23
ATOM     23  N   UNL     1       1.459   3.814  -0.051  0.00  0.00    -0.339 N 
ATOM     24  H   UNL     1       1.499   3.268  -0.852  0.00  0.00    +0.144 HD
ATOM     25  H   UNL     1       1.804   4.720  -0.064  0.00  0.00    +0.144 HD
ENDBRANCH  21  23
ENDBRANCH  19  21
ENDBRANCH  18  19
ENDBRANCH  15  17
ENDBRANCH   1  15
TORSDOF 5
