REMARK  Name = ZINC03531207
REMARK  14 active torsions:
REMARK  status: ('A' for Active; 'I' for Inactive)
REMARK    1  A    between atoms: C_1  and  C_2
REMARK    2  A    between atoms: C_2  and  C_4
REMARK    3  A    between atoms: C_2  and  N_7
REMARK    4  A    between atoms: C_4  and  C_5
REMARK    5  A    between atoms: C_4  and  C_6
REMARK    6  A    between atoms: C_8  and  C_10
REMARK    7  A    between atoms: C_10  and  S_11
REMARK    8  A    between atoms: S_11  and  C_12
REMARK    9  A    between atoms: C_15  and  C_18
REMARK   10  A    between atoms: N_16  and  N_17
REMARK   11  A    between atoms: C_21  and  C_24
REMARK   12  A    between atoms: C_24  and  C_25
REMARK   13  A    between atoms: C_24  and  C_26
REMARK   14  A    between atoms: C_24  and  C_27
REMARK                            x       y       z     vdW  Elec       q    Type
REMARK                         _______ _______ _______ _____ _____    ______ ____
ROOT
ATOM      1  C   UNL     1       5.268  -1.731   3.564  0.00  0.00    +0.209 A 
ATOM      2  N   UNL     1       4.611  -2.069   4.651  0.00  0.00    -0.121 NA
ATOM      3  N   UNL     1       5.432  -2.462   5.558  0.00  0.00    -0.127 NA
ATOM      4  C   UNL     1       6.663  -2.399   5.106  0.00  0.00    +0.182 A 
ATOM      5  N   UNL     1       6.595  -1.935   3.813  0.00  0.00    -0.224 N 
ENDROOT
BRANCH   4   6
ATOM      6  C   UNL     1       7.890  -2.765   5.846  0.00  0.00    +0.021 A 
ATOM      7  C   UNL     1       9.139  -2.357   5.375  0.00  0.00    +0.012 A 
ATOM      8  C   UNL     1      10.280  -2.701   6.069  0.00  0.00    +0.005 A 
ATOM      9  C   UNL     1      10.188  -3.448   7.230  0.00  0.00    -0.042 A 
ATOM     10  C   UNL     1       8.953  -3.856   7.702  0.00  0.00    +0.005 A 
ATOM     11  C   UNL     1       7.804  -3.514   7.020  0.00  0.00    +0.012 A 
BRANCH   9  12
ATOM     12  C   UNL     1      11.439  -3.820   7.984  0.00  0.00    -0.013 C 
ATOM     13  C   UNL     1      12.171  -2.548   8.418  0.00  0.00    +0.015 C 
ATOM     14  C   UNL     1      11.065  -4.640   9.220  0.00  0.00    +0.015 C 
ATOM     15  C   UNL     1      12.352  -4.650   7.079  0.00  0.00    +0.015 C 
ENDBRANCH   9  12
ENDBRANCH   4   6
BRANCH   5  16
ATOM     16  N   UNL     1       7.638  -1.720   2.958  0.00  0.00    -0.295 N 
ATOM     17  H   UNL     1       7.990  -0.778   3.047  0.00  0.00    +0.163 HD
ATOM     18  H   UNL     1       8.371  -2.396   3.105  0.00  0.00    +0.163 HD
ENDBRANCH   5  16
BRANCH   1  19
ATOM     19  S   UNL     1       4.566  -1.134   2.062  0.00  0.00    -0.075 S 
BRANCH  19  20
ATOM     20  C   UNL     1       2.783  -1.099   2.395  0.00  0.00    +0.173 C 
BRANCH  20  22
ATOM     21  N   UNL     1       0.711  -0.489   1.189  0.00  0.00    -0.312 N 
ATOM     22  C   UNL     1       2.054  -0.600   1.174  0.00  0.00    +0.224 C 
ATOM     23  O   UNL     1       2.676  -0.297   0.177  0.00  0.00    -0.275 OA
ATOM     24  H   UNL     1       0.213  -0.731   1.986  0.00  0.00    +0.149 HD
BRANCH  21  26
ATOM     25  C   UNL     1      -0.019   1.526   0.010  0.00  0.00    +0.028 C 
ATOM     26  C   UNL     1       0.002  -0.004   0.002  0.00  0.00    +0.072 C 
BRANCH  26  27
ATOM     27  C   UNL     1      -1.433  -0.534   0.013  0.00  0.00    +0.003 C 
ATOM     28  C   UNL     1      -2.173  -0.027  -1.227  0.00  0.00    +0.009 C 
ATOM     29  C   UNL     1      -1.413  -2.063   0.004  0.00  0.00    +0.009 C 
ENDBRANCH  26  27
ENDBRANCH  21  26
ENDBRANCH  20  22
ENDBRANCH  19  20
ENDBRANCH   1  19
TORSDOF 8
