REMARK  Name = ZINC20693588
REMARK  8 active torsions:
REMARK  status: ('A' for Active; 'I' for Inactive)
REMARK    1  A    between atoms: C_1  and  C_2
REMARK    2  A    between atoms: C_2  and  C_3
REMARK    3  A    between atoms: C_2  and  C_4
REMARK    4  A    between atoms: N_6  and  C_7
REMARK    5  A    between atoms: C_20  and  C_23
REMARK    6  A    between atoms: C_26  and  O_31
REMARK    7  A    between atoms: C_27  and  O_29
REMARK    8  A    between atoms: O_29  and  C_30
REMARK                            x       y       z     vdW  Elec       q    Type
REMARK                         _______ _______ _______ _____ _____    ______ ____
ROOT
ATOM      1  C   UNL     1       4.968   3.625  -5.060  0.00  0.00    +0.034 A 
ATOM      2  C   UNL     1       5.733   2.502  -4.770  0.00  0.00    +0.025 A 
ATOM      3  C   UNL     1       6.043   2.209  -3.457  0.00  0.00    +0.025 A 
ATOM      4  C   UNL     1       5.592   3.033  -2.434  0.00  0.00    +0.031 A 
ATOM      5  C   UNL     1       4.831   4.157  -2.716  0.00  0.00    -0.018 A 
ATOM      6  C   UNL     1       4.522   4.446  -4.038  0.00  0.00    +0.029 A 
ATOM      7  C   UNL     1       4.327   5.072  -1.645  0.00  0.00    +0.049 C 
ATOM      8  C   UNL     1       2.832   4.885  -1.373  0.00  0.00    -0.023 C 
ATOM      9  C   UNL     1       2.578   5.026  -0.095  0.00  0.00    -0.030 C 
ATOM     10  C   UNL     1       3.851   5.333   0.670  0.00  0.00    +0.033 C 
ATOM     11  C   UNL     1       4.973   4.806  -0.272  0.00  0.00    +0.029 C 
ATOM     12  C   UNL     1       5.097   3.298  -0.036  0.00  0.00    +0.105 C 
ATOM     13  N   UNL     1       5.895   2.712  -1.118  0.00  0.00    -0.336 N 
ATOM     14  H   UNL     1       6.723   2.027  -0.882  0.00  0.00    +0.147 HD
ENDROOT
BRANCH  12  15
ATOM     15  C   UNL     1       3.725   2.675  -0.026  0.00  0.00    -0.023 A 
ATOM     16  C   UNL     1       3.084   2.399  -1.219  0.00  0.00    +0.009 A 
ATOM     17  C   UNL     1       1.825   1.828  -1.216  0.00  0.00    +0.049 A 
ATOM     18  C   UNL     1       1.203   1.529  -0.014  0.00  0.00    +0.158 A 
ATOM     19  C   UNL     1       1.846   1.812   1.188  0.00  0.00    +0.162 A 
ATOM     20  C   UNL     1       3.110   2.379   1.177  0.00  0.00    +0.054 A 
BRANCH  19  21
ATOM     21  O   UNL     1       1.237   1.526   2.370  0.00  0.00    -0.491 OA
ATOM     22  C   UNL     1       1.957   1.843   3.563  0.00  0.00    +0.277 C 
ENDBRANCH  19  21
BRANCH  18  23
ATOM     23  O   UNL     1      -0.035   0.967  -0.008  0.00  0.00    -0.503 OA
ATOM     24  H   UNL     1      -0.528   0.731   0.946  0.00  0.00    +0.292 HD
ENDBRANCH  18  23
ENDBRANCH  12  15
BRANCH   1  27
ATOM     25  C   UNL     1       5.535   3.670  -7.373  0.00  0.00    +0.220 C 
ATOM     26  O   UNL     1       6.574   3.099  -7.117  0.00  0.00    -0.275 OA
ATOM     27  N   UNL     1       4.648   3.928  -6.391  0.00  0.00    -0.285 N 
ATOM     28  H   UNL     1       3.674   4.377  -6.633  0.00  0.00    +0.155 HD
BRANCH  25  30
ATOM     29  C   UNL     1       5.056   5.609  -8.842  0.00  0.00    +0.017 C 
ATOM     30  C   UNL     1       5.234   4.090  -8.788  0.00  0.00    +0.069 C 
ATOM     31  C   UNL     1       6.394   3.680  -9.699  0.00  0.00    +0.017 C 
ENDBRANCH  25  30
ENDBRANCH   1  27
TORSDOF 5
