REMARK  Name = ZINC19930617
REMARK  14 active torsions:
REMARK  status: ('A' for Active; 'I' for Inactive)
REMARK    1  A    between atoms: C_1  and  C_2
REMARK    2  A    between atoms: C_3  and  C_9
REMARK    3  A    between atoms: C_4  and  O_8
REMARK    4  A    between atoms: C_9  and  C_10
REMARK    5  A    between atoms: C_9  and  C_29
REMARK    6  A    between atoms: C_13  and  O_16
REMARK    7  A    between atoms: O_16  and  C_17
REMARK    8  A    between atoms: C_17  and  C_19
REMARK    9  A    between atoms: C_22  and  C_25
REMARK   10  A    between atoms: C_25  and  C_26
REMARK   11  A    between atoms: C_25  and  C_27
REMARK   12  A    between atoms: C_25  and  C_28
REMARK   13  A    between atoms: C_30  and  C_36
REMARK   14  A    between atoms: C_34  and  O_35
REMARK                            x       y       z     vdW  Elec       q    Type
REMARK                         _______ _______ _______ _____ _____    ______ ____
ROOT
ATOM      1  C   UNL     1      -0.026  -0.364  -2.592  0.00  0.00    +0.093 C 
ENDROOT
BRANCH   1   4
ATOM      2  C   UNL     1      -1.061   1.785  -0.506  0.00  0.00    +0.068 C 
ATOM      3  C   UNL     1      -0.796   0.329  -0.218  0.00  0.00    +0.068 A 
ATOM      4  C   UNL     1      -0.339  -0.618  -1.139  0.00  0.00    +0.048 A 
ATOM      5  C   UNL     1      -0.228  -1.808  -0.492  0.00  0.00    +0.213 A 
ATOM      6  N   UNL     1      -0.602  -1.613   0.791  0.00  0.00    -0.247 N 
ATOM      7  H   UNL     1      -0.624  -2.287   1.488  0.00  0.00    +0.192 HD
ATOM      8  N   UNL     1      -0.948  -0.263   0.939  0.00  0.00    -0.176 NA
BRANCH   5   9
ATOM      9  O   UNL     1       0.185  -2.981  -1.037  0.00  0.00    -0.492 OA
ATOM     10  H   UNL     1       1.127  -3.163  -0.913  0.00  0.00    +0.294 HD
ENDBRANCH   5   9
ENDBRANCH   1   4
BRANCH   1  11
ATOM     11  C   UNL     1       1.364  -0.857  -2.900  0.00  0.00    +0.048 A 
ATOM     12  C   UNL     1       2.431  -0.800  -2.070  0.00  0.00    +0.041 A 
ATOM     13  N   UNL     1       3.486  -1.341  -2.714  0.00  0.00    -0.278 N 
ATOM     14  N   UNL     1       3.056  -1.745  -3.985  0.00  0.00    -0.136 NA
ATOM     15  H   UNL     1       4.384  -1.434  -2.360  0.00  0.00    +0.189 HD
ATOM     16  C   UNL     1       1.781  -1.460  -4.095  0.00  0.00    +0.236 A 
ATOM     17  C   UNL     1       2.440  -0.232  -0.673  0.00  0.00    +0.065 C 
BRANCH  16  18
ATOM     18  O   UNL     1       0.999  -1.704  -5.181  0.00  0.00    -0.491 OA
ATOM     19  H   UNL     1       1.041  -1.016  -5.859  0.00  0.00    +0.294 HD
ENDBRANCH  16  18
ENDBRANCH   1  11
BRANCH   1  20
ATOM     20  C   UNL     1      -1.021  -1.097  -3.455  0.00  0.00    -0.035 A 
ATOM     21  C   UNL     1      -1.003  -2.479  -3.507  0.00  0.00    +0.008 A 
ATOM     22  C   UNL     1      -1.914  -3.153  -4.298  0.00  0.00    +0.046 A 
ATOM     23  C   UNL     1      -2.846  -2.442  -5.040  0.00  0.00    +0.132 A 
ATOM     24  C   UNL     1      -2.862  -1.056  -4.985  0.00  0.00    +0.046 A 
ATOM     25  C   UNL     1      -1.953  -0.387  -4.189  0.00  0.00    +0.008 A 
BRANCH  23  26
ATOM     26  O   UNL     1      -3.743  -3.103  -5.819  0.00  0.00    -0.422 OA
BRANCH  26  27
ATOM     27  C   UNL     1      -4.776  -3.719  -5.212  0.00  0.00    +0.344 C 
ATOM     28  O   UNL     1      -4.937  -3.596  -4.014  0.00  0.00    -0.245 OA
BRANCH  27  29
ATOM     29  C   UNL     1      -5.712  -4.544  -6.002  0.00  0.00    +0.059 A 
ATOM     30  C   UNL     1      -5.526  -4.692  -7.378  0.00  0.00    +0.015 A 
ATOM     31  C   UNL     1      -6.404  -5.464  -8.110  0.00  0.00    +0.005 A 
ATOM     32  C   UNL     1      -7.467  -6.090  -7.484  0.00  0.00    -0.042 A 
ATOM     33  C   UNL     1      -7.658  -5.947  -6.121  0.00  0.00    +0.005 A 
ATOM     34  C   UNL     1      -6.784  -5.183  -5.376  0.00  0.00    +0.015 A 
BRANCH  32  35
ATOM     35  C   UNL     1      -8.423  -6.932  -8.291  0.00  0.00    -0.013 C 
ATOM     36  C   UNL     1      -7.657  -8.076  -8.957  0.00  0.00    +0.015 C 
ATOM     37  C   UNL     1      -9.499  -7.507  -7.368  0.00  0.00    +0.015 C 
ATOM     38  C   UNL     1      -9.082  -6.066  -9.366  0.00  0.00    +0.015 C 
ENDBRANCH  32  35
ENDBRANCH  27  29
ENDBRANCH  26  27
ENDBRANCH  23  26
ENDBRANCH   1  20
TORSDOF 9
