REMARK  Name = ZINC26173300
REMARK  10 active torsions:
REMARK  status: ('A' for Active; 'I' for Inactive)
REMARK    1  A    between atoms: C_1  and  C_2
REMARK    2  A    between atoms: C_3  and  C_18
REMARK    3  A    between atoms: C_6  and  N_9
REMARK    4  A    between atoms: C_7  and  C_8
REMARK    5  A    between atoms: C_10  and  C_12
REMARK    6  A    between atoms: C_20  and  C_23
REMARK    7  A    between atoms: C_24  and  C_39
REMARK    8  A    between atoms: C_25  and  C_38
REMARK    9  A    between atoms: C_26  and  N_29
REMARK   10  A    between atoms: C_30  and  C_32
REMARK                            x       y       z     vdW  Elec       q    Type
REMARK                         _______ _______ _______ _____ _____    ______ ____
ROOT
ATOM      1  C   UNL     1       3.127  -4.573  -3.792  0.00  0.00    +0.136 A 
ATOM      2  O   UNL     1       2.354  -3.521  -4.124  0.00  0.00    -0.455 OA
ATOM      3  C   UNL     1       2.683  -3.097  -5.360  0.00  0.00    +0.136 A 
ATOM      4  C   UNL     1       3.686  -3.891  -5.833  0.00  0.00    +0.050 A 
ATOM      5  C   UNL     1       3.973  -4.829  -4.831  0.00  0.00    +0.050 A 
ENDROOT
BRANCH   1   8
ATOM      6  C   UNL     1       3.178  -3.123  -1.294  0.00  0.00    +0.045 C 
ATOM      7  C   UNL     1       3.096  -4.628  -1.304  0.00  0.00    -0.035 A 
ATOM      8  C   UNL     1       3.071  -5.318  -2.521  0.00  0.00    +0.021 A 
ATOM      9  C   UNL     1       2.995  -6.714  -2.531  0.00  0.00    +0.014 A 
ATOM     10  C   UNL     1       2.943  -7.404  -1.353  0.00  0.00    +0.029 A 
ATOM     11  C   UNL     1       2.968  -6.714  -0.137  0.00  0.00    +0.069 A 
ATOM     12  C   UNL     1       3.050  -5.317  -0.127  0.00  0.00    -0.021 A 
ATOM     13  C   UNL     1       3.083  -4.574   1.184  0.00  0.00    +0.046 C 
BRANCH  11  14
ATOM     14  N   UNL     1       2.916  -7.404   1.040  0.00  0.00    -0.231 NA
ATOM     15  C   UNL     1       1.985  -8.308   1.231  0.00  0.00    +0.142 C 
ATOM     16  N   UNL     1       0.990  -8.479   0.294  0.00  0.00    -0.341 N 
ATOM     17  H   UNL     1       0.910  -7.859  -0.448  0.00  0.00    +0.144 HD
ATOM     18  H   UNL     1       0.368  -9.219   0.377  0.00  0.00    +0.144 HD
BRANCH  15  19
ATOM     19  C   UNL     1       2.005  -9.144   2.451  0.00  0.00    +0.103 A 
ATOM     20  N   UNL     1       1.062 -10.062   2.635  0.00  0.00    -0.252 NA
ATOM     21  C   UNL     1       1.044 -10.825   3.707  0.00  0.00    +0.111 A 
ATOM     22  C   UNL     1       2.014 -10.698   4.688  0.00  0.00    +0.020 A 
ATOM     23  C   UNL     1       3.016  -9.753   4.535  0.00  0.00    +0.004 A 
ATOM     24  C   UNL     1       3.015  -8.966   3.395  0.00  0.00    +0.031 A 
ENDBRANCH  15  19
ENDBRANCH  11  14
ENDBRANCH   1   8
BRANCH   3  25
ATOM     25  C   UNL     1       2.064  -1.968  -6.079  0.00  0.00    +0.021 A 
ATOM     26  C   UNL     1       0.671  -1.878  -6.172  0.00  0.00    -0.035 A 
ATOM     27  C   UNL     1       0.098  -0.832  -6.838  0.00  0.00    -0.021 A 
ATOM     28  C   UNL     1       0.904   0.149  -7.426  0.00  0.00    +0.069 A 
ATOM     29  C   UNL     1       2.296   0.059  -7.332  0.00  0.00    +0.029 A 
ATOM     30  C   UNL     1       2.869  -0.985  -6.662  0.00  0.00    +0.014 A 
ATOM     31  C   UNL     1      -1.403  -0.736  -6.940  0.00  0.00    +0.046 C 
ATOM     32  C   UNL     1      -0.197  -2.934  -5.539  0.00  0.00    +0.045 C 
BRANCH  28  33
ATOM     33  N   UNL     1       0.331   1.194  -8.092  0.00  0.00    -0.231 NA
ATOM     34  C   UNL     1       0.690   2.425  -7.814  0.00  0.00    +0.142 C 
ATOM     35  N   UNL     1       1.553   2.671  -6.770  0.00  0.00    -0.341 N 
ATOM     36  H   UNL     1       1.807   1.952  -6.170  0.00  0.00    +0.144 HD
ATOM     37  H   UNL     1       1.908   3.564  -6.634  0.00  0.00    +0.144 HD
BRANCH  34  38
ATOM     38  C   UNL     1       0.167   3.548  -8.623  0.00  0.00    +0.103 A 
ATOM     39  N   UNL     1       0.539   4.792  -8.340  0.00  0.00    -0.252 NA
ATOM     40  C   UNL     1       0.097   5.818  -9.035  0.00  0.00    +0.111 A 
ATOM     41  C   UNL     1      -0.778   5.637 -10.093  0.00  0.00    +0.020 A 
ATOM     42  C   UNL     1      -1.192   4.355 -10.423  0.00  0.00    +0.004 A 
ATOM     43  C   UNL     1      -0.706   3.292  -9.679  0.00  0.00    +0.031 A 
ENDBRANCH  34  38
ENDBRANCH  28  33
ENDBRANCH   3  25
TORSDOF 6
