REMARK  Name = ZINC02251957
REMARK  6 active torsions:
REMARK  status: ('A' for Active; 'I' for Inactive)
REMARK    1  A    between atoms: C_5  and  C_7
REMARK    2  A    between atoms: N_9  and  C_10
REMARK    3  A    between atoms: C_10  and  N_12
REMARK    4  A    between atoms: N_12  and  C_13
REMARK    5  A    between atoms: C_16  and  O_28
REMARK    6  A    between atoms: C_17  and  C_19
REMARK                            x       y       z     vdW  Elec       q    Type
REMARK                         _______ _______ _______ _____ _____    ______ ____
ROOT
ATOM      1  C   UNL     1      -1.100  -6.297  -0.075  0.00  0.00    +0.034 A 
ATOM      2  C   UNL     1       0.069  -7.048  -0.060  0.00  0.00    +0.027 A 
ATOM      3  C   UNL     1       0.012  -8.427  -0.117  0.00  0.00    +0.048 A 
ATOM      4  C   UNL     1      -1.213  -9.071  -0.191  0.00  0.00    +0.129 A 
ATOM      5  C   UNL     1      -2.395  -8.320  -0.207  0.00  0.00    +0.080 A 
ATOM      6  C   UNL     1      -2.331  -6.927  -0.143  0.00  0.00    +0.040 A 
ENDROOT
BRANCH   5   7
ATOM      7  C   UNL     1      -3.704  -8.999  -0.285  0.00  0.00    +0.232 A 
ATOM      8  N   UNL     1      -4.864  -8.393  -0.312  0.00  0.00    -0.209 NA
ATOM      9  C   UNL     1      -5.845  -9.329  -0.387  0.00  0.00    +0.110 A 
ATOM     10  C   UNL     1      -7.239  -9.264  -0.443  0.00  0.00    +0.031 A 
ATOM     11  C   UNL     1      -7.975 -10.425  -0.516  0.00  0.00    +0.002 A 
ATOM     12  C   UNL     1      -7.341 -11.659  -0.533  0.00  0.00    +0.004 A 
ATOM     13  C   UNL     1      -5.964 -11.739  -0.478  0.00  0.00    +0.048 A 
ATOM     14  C   UNL     1      -5.207 -10.580  -0.405  0.00  0.00    +0.156 A 
ATOM     15  O   UNL     1      -3.879 -10.333  -0.346  0.00  0.00    -0.435 OA
ENDBRANCH   5   7
BRANCH   1  16
ATOM     16  N   UNL     1      -1.033  -4.898  -0.017  0.00  0.00    -0.297 N 
ATOM     17  H   UNL     1      -1.619  -4.409   0.582  0.00  0.00    +0.154 HD
BRANCH  16  18
ATOM     18  C   UNL     1      -0.154  -4.233  -0.791  0.00  0.00    +0.141 C 
ATOM     19  S   UNL     1       0.955  -5.099  -1.767  0.00  0.00    -0.018 S 
BRANCH  18  22
ATOM     20  C   UNL     1       0.732  -2.220  -1.574  0.00  0.00    +0.251 C 
ATOM     21  O   UNL     1       1.518  -2.835  -2.266  0.00  0.00    -0.270 OA
ATOM     22  N   UNL     1      -0.148  -2.885  -0.799  0.00  0.00    -0.264 N 
ATOM     23  H   UNL     1      -0.776  -2.394  -0.246  0.00  0.00    +0.157 HD
BRANCH  20  28
ATOM     24  C   UNL     1      -0.154   1.346  -0.801  0.00  0.00    +0.001 A 
ATOM     25  C   UNL     1       0.750   2.028  -1.598  0.00  0.00    +0.001 A 
ATOM     26  C   UNL     1       1.648   1.332  -2.386  0.00  0.00    +0.021 A 
ATOM     27  C   UNL     1       1.648  -0.049  -2.384  0.00  0.00    +0.053 A 
ATOM     28  C   UNL     1       0.738  -0.743  -1.582  0.00  0.00    +0.055 A 
ATOM     29  C   UNL     1      -0.165  -0.032  -0.788  0.00  0.00    +0.014 A 
ATOM     30 CL   UNL     1       2.776  -0.921  -3.375  0.00  0.00    -0.083 Cl
ENDBRANCH  20  28
ENDBRANCH  18  22
ENDBRANCH  16  18
ENDBRANCH   1  16
BRANCH   4  31
ATOM     31  O   UNL     1      -1.267 -10.427  -0.247  0.00  0.00    -0.506 OA
ATOM     32  H   UNL     1      -1.317 -10.855   0.618  0.00  0.00    +0.292 HD
ENDBRANCH   4  31
TORSDOF 6
