REMARK  Name = ZINC55174562
REMARK  4 active torsions:
REMARK  status: ('A' for Active; 'I' for Inactive)
REMARK    1  A    between atoms: C_1  and  C_2
REMARK    2  A    between atoms: C_3  and  C_8
REMARK    3  A    between atoms: C_12  and  O_20
REMARK    4  A    between atoms: C_15  and  C_17
REMARK                            x       y       z     vdW  Elec       q    Type
REMARK                         _______ _______ _______ _____ _____    ______ ____
ROOT
ATOM      1  C   UNL     1      -0.008  -0.258  -2.565  0.00  0.00    +0.256 C 
ATOM      2  O   UNL     1      -0.027   0.937  -2.802  0.00  0.00    -0.269 OA
ATOM      3  N   UNL     1      -0.001  -1.145  -3.580  0.00  0.00    -0.281 N 
ATOM      4  C   UNL     1       0.015  -2.612  -3.437  0.00  0.00    +0.140 C 
ATOM      5  C   UNL     1       0.629  -3.133  -4.761  0.00  0.00    +0.134 C 
ATOM      6  C   UNL     1       0.031  -2.140  -5.793  0.00  0.00    +0.067 C 
ATOM      7  C   UNL     1      -0.013  -0.810  -5.011  0.00  0.00    +0.192 C 
ENDROOT
BRANCH   1  10
ATOM      8  C   UNL     1      -0.018   1.503   0.010  0.00  0.00    +0.067 C 
ATOM      9  C   UNL     1       0.002  -0.004   0.002  0.00  0.00    +0.060 A 
ATOM     10  C   UNL     1       0.006  -0.729  -1.181  0.00  0.00    +0.098 A 
ATOM     11  S   UNL     1       0.033  -2.397  -0.545  0.00  0.00    -0.048 S 
ATOM     12  C   UNL     1       0.036  -2.022   1.096  0.00  0.00    +0.156 A 
ATOM     13  N   UNL     1       0.022  -0.700   1.111  0.00  0.00    -0.230 NA
ATOM     14  N   UNL     1       0.053  -2.886   2.169  0.00  0.00    -0.337 N 
ATOM     15  H   UNL     1       0.066  -3.845   2.019  0.00  0.00    +0.144 HD
ATOM     16  H   UNL     1       0.053  -2.537   3.074  0.00  0.00    +0.144 HD
ENDBRANCH   1  10
BRANCH   7  17
ATOM     17  C   UNL     1      -1.273  -0.056  -5.350  0.00  0.00    +0.376 C 
ATOM     18  O   UNL     1      -2.080   0.208  -4.475  0.00  0.00    -0.244 OA
ATOM     19  O   UNL     1      -1.486   0.291  -6.499  0.00  0.00    -0.244 OA
ENDBRANCH   7  17
BRANCH   5  20
ATOM     20  O   UNL     1       2.055  -3.046  -4.732  0.00  0.00    -0.390 OA
ATOM     21  H   UNL     1       2.467  -3.576  -4.037  0.00  0.00    +0.210 HD
ENDBRANCH   5  20
TORSDOF 3
