REMARK  Name = ZINC13979423
REMARK  8 active torsions:
REMARK  status: ('A' for Active; 'I' for Inactive)
REMARK    1  A    between atoms: C_3  and  C_6
REMARK    2  A    between atoms: C_7  and  C_8
REMARK    3  A    between atoms: N_10  and  C_11
REMARK    4  A    between atoms: C_11  and  N_13
REMARK    5  A    between atoms: N_13  and  N_14
REMARK    6  A    between atoms: C_15  and  C_17
REMARK    7  A    between atoms: C_20  and  N_23
REMARK    8  A    between atoms: C_24  and  C_26
REMARK                            x       y       z     vdW  Elec       q    Type
REMARK                         _______ _______ _______ _____ _____    ______ ____
ROOT
ATOM      1  N   UNL     1       4.756  -0.226   0.108  0.00  0.00    -0.231 N 
ATOM      2  C   UNL     1       5.916  -0.886  -0.080  0.00  0.00    +0.260 C 
ATOM      3  O   UNL     1       6.948  -0.265  -0.248  0.00  0.00    -0.269 OA
ATOM      4  H   UNL     1       3.933  -0.721   0.242  0.00  0.00    +0.173 HD
ENDROOT
BRANCH   2   5
ATOM      5  C   UNL     1       5.934  -2.362  -0.083  0.00  0.00    +0.038 A 
ATOM      6  C   UNL     1       4.750  -3.076   0.115  0.00  0.00    +0.015 A 
ATOM      7  C   UNL     1       4.769  -4.453   0.107  0.00  0.00    +0.024 A 
ATOM      8  C   UNL     1       5.967  -5.133  -0.088  0.00  0.00    +0.033 A 
ATOM      9  C   UNL     1       7.149  -4.424  -0.280  0.00  0.00    +0.024 A 
ATOM     10  C   UNL     1       7.136  -3.047  -0.278  0.00  0.00    +0.015 A 
BRANCH   8  11
ATOM     11  N   UNL     1       5.983  -6.527  -0.091  0.00  0.00    -0.285 N 
ATOM     12  C   UNL     1       7.055  -7.189   0.388  0.00  0.00    +0.220 C 
ATOM     13  O   UNL     1       7.963  -6.577   0.909  0.00  0.00    -0.275 OA
ATOM     14  H   UNL     1       5.224  -7.020  -0.438  0.00  0.00    +0.155 HD
BRANCH  12  15
ATOM     15  C   UNL     1       7.125  -8.690   0.277  0.00  0.00    +0.075 C 
ATOM     16  C   UNL     1       5.942  -9.312   1.022  0.00  0.00    +0.013 C 
ATOM     17  C   UNL     1       6.013 -10.837   0.909  0.00  0.00    +0.001 C 
ATOM     18  C   UNL     1       7.322 -11.333   1.525  0.00  0.00    +0.000 C 
ATOM     19  C   UNL     1       8.505 -10.711   0.780  0.00  0.00    +0.001 C 
ATOM     20  C   UNL     1       8.434  -9.187   0.893  0.00  0.00    +0.013 C 
ENDBRANCH  12  15
ENDBRANCH   8  11
ENDBRANCH   2   5
BRANCH   1  21
ATOM     21  N   UNL     1       4.740   1.175   0.110  0.00  0.00    -0.245 N 
ATOM     22  H   UNL     1       5.563   1.670  -0.023  0.00  0.00    +0.172 HD
BRANCH  21  23
ATOM     23  C   UNL     1       3.580   1.835   0.299  0.00  0.00    +0.153 C 
ATOM     24  S   UNL     1       3.559   3.547   0.302  0.00  0.00    -0.017 S 
BRANCH  23  27
ATOM     25  C   UNL     1       1.276   1.807   0.673  0.00  0.00    +0.242 C 
ATOM     26  O   UNL     1       1.261   3.024   0.675  0.00  0.00    -0.270 OA
ATOM     27  N   UNL     1       2.436   1.147   0.485  0.00  0.00    -0.263 N 
ATOM     28  H   UNL     1       2.447   0.177   0.483  0.00  0.00    +0.157 HD
BRANCH  25  30
ATOM     29  C   UNL     1      -1.093   1.750   1.052  0.00  0.00    +0.020 C 
ATOM     30  C   UNL     1       0.076   1.085   0.868  0.00  0.00    +0.069 C 
BRANCH  29  33
ATOM     31  C   UNL     1      -4.579   0.577   1.600  0.00  0.00    +0.008 A 
ATOM     32  C   UNL     1      -3.584   1.508   1.444  0.00  0.00    +0.015 A 
ATOM     33  C   UNL     1      -2.296   1.028   1.241  0.00  0.00    +0.012 A 
ATOM     34  S   UNL     1      -2.554  -0.738   1.274  0.00  0.00    -0.097 S 
ATOM     35  C   UNL     1      -4.265  -0.745   1.550  0.00  0.00    +0.046 A 
ENDBRANCH  29  33
ENDBRANCH  25  30
ENDBRANCH  23  27
ENDBRANCH  21  23
ENDBRANCH   1  21
TORSDOF 8
