REMARK  Name = ZINC04259866
REMARK  8 active torsions:
REMARK  status: ('A' for Active; 'I' for Inactive)
REMARK    1  A    between atoms: C_1  and  O_2
REMARK    2  A    between atoms: O_2  and  C_3
REMARK    3  A    between atoms: C_6  and  N_9
REMARK    4  A    between atoms: N_12  and  C_13
REMARK    5  A    between atoms: C_23  and  N_25
REMARK    6  A    between atoms: C_26  and  O_30
REMARK    7  A    between atoms: O_30  and  C_31
REMARK    8  A    between atoms: C_34  and  N_37
REMARK                            x       y       z     vdW  Elec       q    Type
REMARK                         _______ _______ _______ _____ _____    ______ ____
ROOT
ATOM      1  C   UNL     1       5.908  12.818  -0.739  0.00  0.00    +0.131 C 
ATOM      2  C   UNL     1       4.730  12.756  -1.735  0.00  0.00    +0.185 C 
ATOM      3  O   UNL     1       3.987  11.580  -1.354  0.00  0.00    -0.370 OA
ATOM      4  C   UNL     1       4.970  10.578  -1.013  0.00  0.00    +0.176 C 
ATOM      5  C   UNL     1       6.107  11.354  -0.303  0.00  0.00    +0.172 C 
ATOM      6  O   UNL     1       5.928  11.220   1.103  0.00  0.00    -0.370 OA
ATOM      7  C   UNL     1       4.737  10.477   1.395  0.00  0.00    +0.190 C 
ATOM      8  C   UNL     1       4.377   9.700   0.114  0.00  0.00    +0.171 C 
ENDROOT
BRANCH   1  12
ATOM      9  N   UNL     1       8.436  15.127  -2.081  0.00  0.00    -0.269 N 
ATOM     10  C   UNL     1       7.328  14.657  -1.474  0.00  0.00    +0.304 C 
ATOM     11  O   UNL     1       6.522  15.432  -0.995  0.00  0.00    -0.252 OA
ATOM     12  N   UNL     1       7.113  13.329  -1.398  0.00  0.00    -0.292 N 
ATOM     13  H   UNL     1       9.040  14.514  -2.528  0.00  0.00    +0.156 HD
ATOM     14  H   UNL     1       7.755  12.711  -1.780  0.00  0.00    +0.151 HD
BRANCH   9  18
ATOM     15  C   UNL     1       9.264  19.214  -2.038  0.00  0.00    +0.120 A 
ATOM     16  C   UNL     1       8.525  18.645  -1.010  0.00  0.00    +0.047 A 
ATOM     17  C   UNL     1       8.250  17.292  -1.024  0.00  0.00    +0.027 A 
ATOM     18  C   UNL     1       8.714  16.500  -2.066  0.00  0.00    +0.035 A 
ATOM     19  C   UNL     1       9.457  17.069  -3.091  0.00  0.00    +0.027 A 
ATOM     20  C   UNL     1       9.727  18.424  -3.079  0.00  0.00    +0.047 A 
BRANCH  15  22
ATOM     21  C   UNL     1      10.299  21.065  -3.113  0.00  0.00    +0.277 C 
ATOM     22  O   UNL     1       9.533  20.547  -2.023  0.00  0.00    -0.495 OA
ENDBRANCH  15  22
ENDBRANCH   9  18
ENDBRANCH   1  12
BRANCH   8  23
ATOM     23  N   UNL     1       5.002   8.375   0.119  0.00  0.00    -0.187 N 
ATOM     24  C   UNL     1       4.386   7.178  -0.002  0.00  0.00    +0.342 A 
ATOM     25  N   UNL     1       5.319   6.255   0.049  0.00  0.00    -0.071 NA
ATOM     26  N   UNL     1       6.476   6.793   0.200  0.00  0.00    -0.020 NA
ATOM     27  N   UNL     1       6.369   8.076   0.255  0.00  0.00    -0.041 NA
BRANCH  24  28
ATOM     28  O   UNL     1       3.057   6.969  -0.155  0.00  0.00    -0.423 OA
BRANCH  28  29
ATOM     29  C   UNL     1       2.610   5.685  -0.166  0.00  0.00    +0.132 A 
ATOM     30  C   UNL     1       3.516   4.635  -0.182  0.00  0.00    +0.048 A 
ATOM     31  C   UNL     1       3.063   3.331  -0.192  0.00  0.00    +0.031 A 
ATOM     32  C   UNL     1       1.699   3.071  -0.187  0.00  0.00    +0.067 A 
ATOM     33  C   UNL     1       0.792   4.122  -0.177  0.00  0.00    +0.031 A 
ATOM     34  C   UNL     1       1.246   5.425  -0.160  0.00  0.00    +0.048 A 
BRANCH  32  35
ATOM     35  N   UNL     1       1.238   1.746  -0.197  0.00  0.00    -0.220 N 
ATOM     36  C   UNL     1      -0.046   1.338  -0.194  0.00  0.00    +0.225 A 
ATOM     37  N   UNL     1      -0.055   0.029  -0.206  0.00  0.00    -0.222 NA
ATOM     38  C   UNL     1       1.195  -0.432  -0.217  0.00  0.00    +0.245 A 
ATOM     39  N   UNL     1       2.022   0.581  -0.212  0.00  0.00    -0.154 NA
ENDBRANCH  32  35
ENDBRANCH  28  29
ENDBRANCH  24  28
ENDBRANCH   8  23
TORSDOF 7
