REMARK  Name = ZINC03417734
REMARK  7 active torsions:
REMARK  status: ('A' for Active; 'I' for Inactive)
REMARK    1  A    between atoms: C_3  and  C_9
REMARK    2  A    between atoms: C_4  and  O_8
REMARK    3  A    between atoms: C_6  and  O_7
REMARK    4  A    between atoms: C_9  and  O_11
REMARK    5  A    between atoms: O_11  and  C_12
REMARK    6  A    between atoms: C_12  and  C_13
REMARK    7  A    between atoms: N_15  and  C_16
REMARK                            x       y       z     vdW  Elec       q    Type
REMARK                         _______ _______ _______ _____ _____    ______ ____
ROOT
ATOM      1  C   UNL     1       4.891   4.188  -0.005  0.00  0.00    +0.328 C 
ENDROOT
BRANCH   1   2
ATOM      2  C   UNL     1       4.672   5.679  -0.008  0.00  0.00    +0.255 C 
ATOM      3  O   UNL     1       3.545   6.126   0.002  0.00  0.00    -0.272 OA
ATOM      4  N   UNL     1       5.729   6.515  -0.020  0.00  0.00    -0.281 N 
ATOM      5  H   UNL     1       6.630   6.160   0.038  0.00  0.00    +0.155 HD
BRANCH   4   6
ATOM      6  C   UNL     1       5.527   7.897  -0.117  0.00  0.00    +0.053 A 
ATOM      7  C   UNL     1       4.423   8.483   0.488  0.00  0.00    +0.046 A 
ATOM      8  C   UNL     1       4.226   9.848   0.391  0.00  0.00    +0.061 A 
ATOM      9  C   UNL     1       5.129  10.631  -0.309  0.00  0.00    +0.061 A 
ATOM     10  C   UNL     1       6.230  10.050  -0.913  0.00  0.00    +0.043 A 
ATOM     11  C   UNL     1       6.434   8.686  -0.814  0.00  0.00    +0.064 A 
ATOM     12 CL   UNL     1       7.820   7.959  -1.565  0.00  0.00    -0.082 Cl
ATOM     13 CL   UNL     1       4.878  12.344  -0.430  0.00  0.00    -0.082 Cl
ATOM     14 CL   UNL     1       2.846  10.580   1.147  0.00  0.00    -0.082 Cl
ENDBRANCH   4   6
ENDBRANCH   1   2
BRANCH   1  15
ATOM     15  O   UNL     1       3.628   3.521   0.009  0.00  0.00    -0.452 OA
BRANCH  15  16
ATOM     16  C   UNL     1       3.647   2.173   0.012  0.00  0.00    +0.343 C 
ATOM     17  O   UNL     1       4.708   1.581   0.004  0.00  0.00    -0.245 OA
BRANCH  16  20
ATOM     18  C   UNL     1      -0.018   1.390   0.049  0.00  0.00    +0.046 A 
ATOM     19  C   UNL     1       1.161   2.098   0.036  0.00  0.00    +0.022 A 
ATOM     20  C   UNL     1       2.384   1.419   0.026  0.00  0.00    +0.100 A 
ATOM     21  C   UNL     1       2.400   0.015   0.030  0.00  0.00    +0.134 A 
ATOM     22  C   UNL     1       1.207  -0.686   0.043  0.00  0.00    +0.091 A 
ATOM     23  C   UNL     1       0.000  -0.002   0.052  0.00  0.00    +0.120 A 
BRANCH  23  24
ATOM     24  O   UNL     1      -1.168  -0.693   0.065  0.00  0.00    -0.507 OA
ATOM     25  H   UNL     1      -1.514  -0.895  -0.815  0.00  0.00    +0.292 HD
ENDBRANCH  23  24
BRANCH  21  26
ATOM     26  O   UNL     1       3.582  -0.651   0.020  0.00  0.00    -0.506 OA
ATOM     27  H   UNL     1       3.933  -0.842   0.901  0.00  0.00    +0.292 HD
ENDBRANCH  21  26
ENDBRANCH  16  20
ENDBRANCH  15  16
ENDBRANCH   1  15
TORSDOF 7
