REMARK  Name = ZINC43597294
REMARK  5 active torsions:
REMARK  status: ('A' for Active; 'I' for Inactive)
REMARK    1  A    between atoms: C_1  and  O_2
REMARK    2  A    between atoms: O_2  and  C_3
REMARK    3  A    between atoms: C_8  and  N_9
REMARK    4  A    between atoms: N_9  and  C_10
REMARK    5  A    between atoms: C_13  and  N_17
REMARK                            x       y       z     vdW  Elec       q    Type
REMARK                         _______ _______ _______ _____ _____    ______ ____
ROOT
ATOM      1  N   UNL     1       0.097  -2.777  -0.113  0.00  0.00    -0.311 N 
ATOM      2  H   UNL     1      -0.157  -2.358   0.724  0.00  0.00    +0.152 HD
ENDROOT
BRANCH   1   8
ATOM      3  C   UNL     1       0.643  -0.610  -1.042  0.00  0.00    +0.141 A 
ATOM      4  C   UNL     1       1.047   0.165  -2.116  0.00  0.00    +0.048 A 
ATOM      5  C   UNL     1       1.302  -0.426  -3.340  0.00  0.00    +0.019 A 
ATOM      6  C   UNL     1       1.153  -1.793  -3.496  0.00  0.00    +0.020 A 
ATOM      7  C   UNL     1       0.750  -2.574  -2.429  0.00  0.00    +0.042 A 
ATOM      8  C   UNL     1       0.499  -1.988  -1.197  0.00  0.00    +0.075 A 
ATOM      9 BR   UNL     1       1.502  -2.594  -5.173  0.00  0.00    -0.050 Br
BRANCH   3  11
ATOM     10  C   UNL     1       0.561   1.387   0.246  0.00  0.00    +0.277 C 
ATOM     11  O   UNL     1       0.392  -0.030   0.162  0.00  0.00    -0.493 OA
ENDBRANCH   3  11
ENDBRANCH   1   8
BRANCH   1  12
ATOM     12  C   UNL     1       0.060  -4.171  -0.238  0.00  0.00    +0.046 A 
ATOM     13  C   UNL     1       1.102  -4.840  -0.867  0.00  0.00    +0.026 A 
ATOM     14  C   UNL     1       1.066  -6.214  -0.990  0.00  0.00    +0.024 A 
ATOM     15  C   UNL     1      -0.012  -6.929  -0.484  0.00  0.00    +0.026 A 
ATOM     16  C   UNL     1      -1.054  -6.262   0.145  0.00  0.00    +0.039 A 
ATOM     17  C   UNL     1      -1.016  -4.886   0.274  0.00  0.00    +0.041 A 
ATOM     18 BR   UNL     1      -2.431  -3.978   1.138  0.00  0.00    -0.048 Br
BRANCH  15  19
ATOM     19  N   UNL     1      -0.048  -8.323  -0.610  0.00  0.00    -0.358 N 
ATOM     20  H   UNL     1       0.680  -8.789  -1.050  0.00  0.00    +0.142 HD
ATOM     21  H   UNL     1      -0.801  -8.822  -0.256  0.00  0.00    +0.142 HD
ENDBRANCH  15  19
ENDBRANCH   1  12
TORSDOF 4
