REMARK  Name = ZINC64890606
REMARK  7 active torsions:
REMARK  status: ('A' for Active; 'I' for Inactive)
REMARK    1  A    between atoms: C_1  and  C_2
REMARK    2  A    between atoms: C_2  and  N_3
REMARK    3  A    between atoms: C_7  and  C_16
REMARK    4  A    between atoms: C_19  and  C_22
REMARK    5  A    between atoms: C_22  and  C_24
REMARK    6  A    between atoms: C_22  and  N_25
REMARK    7  A    between atoms: C_26  and  C_28
REMARK                            x       y       z     vdW  Elec       q    Type
REMARK                         _______ _______ _______ _____ _____    ______ ____
ROOT
ATOM      1  C   UNL     1      -2.293  -1.395  -5.912  0.00  0.00    +0.168 C 
ATOM      2  N   UNL     1      -1.794  -1.816  -7.029  0.00  0.00    -0.067 NA
ATOM      3  O   UNL     1      -2.800  -1.945  -8.015  0.00  0.00    -0.367 OA
ATOM      4  C   UNL     1      -4.034  -1.551  -7.395  0.00  0.00    +0.312 C 
ATOM      5  N   UNL     1      -3.659  -1.204  -6.015  0.00  0.00    -0.288 N 
ATOM      6  H   UNL     1      -4.254  -0.897  -5.314  0.00  0.00    +0.151 HD
ENDROOT
BRANCH   1  11
ATOM      7  N   UNL     1       0.688  -0.476  -1.203  0.00  0.00    -0.303 N 
ATOM      8  C   UNL     1      -0.036  -0.706  -2.368  0.00  0.00    +0.068 A 
ATOM      9  C   UNL     1      -1.411  -0.483  -2.377  0.00  0.00    +0.028 A 
ATOM     10  C   UNL     1      -2.141  -0.706  -3.522  0.00  0.00    +0.013 A 
ATOM     11  C   UNL     1      -1.506  -1.156  -4.682  0.00  0.00    +0.020 A 
ATOM     12  C   UNL     1      -0.131  -1.380  -4.680  0.00  0.00    +0.039 A 
ATOM     13  C   UNL     1       0.605  -1.155  -3.525  0.00  0.00    +0.067 A 
ATOM     14  N   UNL     1       1.979  -1.382  -3.531  0.00  0.00    -0.316 N 
ATOM     15  H   UNL     1       2.415  -1.694  -4.340  0.00  0.00    +0.169 HD
ATOM     16  C   UNL     1       2.704  -1.168  -2.415  0.00  0.00    +0.314 A 
ATOM     17  O   UNL     1       3.903  -1.364  -2.415  0.00  0.00    -0.262 OA
ATOM     18  C   UNL     1       2.020  -0.683  -1.182  0.00  0.00    +0.316 A 
ATOM     19  O   UNL     1       2.656  -0.479  -0.167  0.00  0.00    -0.262 OA
BRANCH   7  21
ATOM     20  C   UNL     1      -0.019   1.526   0.010  0.00  0.00    +0.027 C 
ATOM     21  C   UNL     1       0.002  -0.004   0.002  0.00  0.00    +0.122 C 
ENDBRANCH   7  21
ENDBRANCH   1  11
BRANCH   4  22
ATOM     22  C   UNL     1      -5.029  -2.713  -7.398  0.00  0.00    +0.132 C 
ATOM     23  C   UNL     1      -4.476  -3.861  -6.551  0.00  0.00    +0.033 C 
BRANCH  22  24
ATOM     24  N   UNL     1      -5.234  -3.176  -8.773  0.00  0.00    -0.301 N 
ATOM     25  C   UNL     1      -6.378  -3.804  -9.109  0.00  0.00    +0.280 C 
ATOM     26  O   UNL     1      -7.241  -3.987  -8.271  0.00  0.00    -0.267 OA
ATOM     27  H   UNL     1      -4.546  -3.031  -9.441  0.00  0.00    +0.150 HD
BRANCH  25  28
ATOM     28  C   UNL     1      -6.583  -4.268 -10.485  0.00  0.00    +0.189 A 
ATOM     29  C   UNL     1      -7.691  -4.910 -10.959  0.00  0.00    +0.054 A 
ATOM     30  C   UNL     1      -7.459  -5.165 -12.319  0.00  0.00    +0.042 A 
ATOM     31  C   UNL     1      -6.235  -4.674 -12.613  0.00  0.00    +0.196 A 
ATOM     32  O   UNL     1      -5.712  -4.130 -11.506  0.00  0.00    -0.458 OA
ENDBRANCH  25  28
ENDBRANCH  22  24
ENDBRANCH   4  22
TORSDOF 5
