REMARK  Name = ZINC33978596
REMARK  5 active torsions:
REMARK  status: ('A' for Active; 'I' for Inactive)
REMARK    1  A    between atoms: C_1  and  O_17
REMARK    2  A    between atoms: C_3  and  O_16
REMARK    3  A    between atoms: C_8  and  C_10
REMARK    4  A    between atoms: C_10  and  C_12
REMARK    5  A    between atoms: C_10  and  O_15
REMARK                            x       y       z     vdW  Elec       q    Type
REMARK                         _______ _______ _______ _____ _____    ______ ____
ROOT
ATOM      1  C   UNL     1      -0.013   1.086   0.008  0.00  0.00    +0.198 C 
ATOM      2  C   UNL     1      -0.559   1.645  -1.330  0.00  0.00    +0.255 C 
ATOM      3  C   UNL     1       0.371   2.800  -1.651  0.00  0.00    +0.339 C 
ATOM      4  O   UNL     1       0.332   3.476  -2.651  0.00  0.00    -0.248 OA
ATOM      5  O   UNL     1       1.248   2.949  -0.639  0.00  0.00    -0.454 OA
ATOM      6  C   UNL     1       1.427   1.666  -0.003  0.00  0.00    +0.247 C 
ENDROOT
BRANCH   2   7
ATOM      7  O   UNL     1      -1.901   2.109  -1.169  0.00  0.00    -0.378 OA
ATOM      8  H   UNL     1      -2.292   2.470  -1.976  0.00  0.00    +0.211 HD
ENDBRANCH   2   7
BRANCH   1   9
ATOM      9  O   UNL     1      -0.761   1.582   1.120  0.00  0.00    -0.385 OA
ATOM     10  H   UNL     1      -1.682   1.290   1.136  0.00  0.00    +0.210 HD
ENDBRANCH   1   9
BRANCH   6  11
ATOM     11  C   UNL     1       1.954   1.837   1.424  0.00  0.00    +0.271 C 
BRANCH  11  12
ATOM     12  C   UNL     1       3.351   2.401   1.379  0.00  0.00    +0.388 C 
ATOM     13  O   UNL     1       3.542   3.522   0.941  0.00  0.00    -0.243 OA
ATOM     14  O   UNL     1       4.290   1.735   1.782  0.00  0.00    -0.243 OA
ENDBRANCH  11  12
BRANCH  11  15
ATOM     15  O   UNL     1       1.973   0.567   2.079  0.00  0.00    -0.377 OA
ATOM     16  H   UNL     1       2.533  -0.091   1.646  0.00  0.00    +0.211 HD
ENDBRANCH  11  15
ENDBRANCH   6  11
TORSDOF 5
