REMARK  Name = ZINC22645639
REMARK  11 active torsions:
REMARK  status: ('A' for Active; 'I' for Inactive)
REMARK    1  A    between atoms: C_1  and  C_2
REMARK    2  A    between atoms: C_7  and  N_12
REMARK    3  A    between atoms: C_9  and  C_11
REMARK    4  A    between atoms: N_12  and  C_13
REMARK    5  A    between atoms: C_13  and  N_15
REMARK    6  A    between atoms: N_15  and  N_16
REMARK    7  A    between atoms: C_17  and  C_19
REMARK    8  A    between atoms: C_19  and  C_20
REMARK    9  A    between atoms: C_20  and  C_21
REMARK   10  A    between atoms: C_21  and  N_22
REMARK   11  A    between atoms: C_23  and  C_25
REMARK                            x       y       z     vdW  Elec       q    Type
REMARK                         _______ _______ _______ _____ _____    ______ ____
ROOT
ATOM      1  N   UNL     1       0.002  -0.004   0.002  0.00  0.00    -0.235 N 
ATOM      2  C   UNL     1      -0.016   1.344   0.009  0.00  0.00    +0.229 C 
ATOM      3  O   UNL     1       1.026   1.964   0.003  0.00  0.00    -0.274 OA
ATOM      4  H   UNL     1      -0.943  -0.567   0.008  0.00  0.00    +0.173 HD
ENDROOT
BRANCH   1   5
ATOM      5  N   UNL     1       1.225  -0.688  -0.013  0.00  0.00    -0.246 N 
ATOM      6  H   UNL     1       2.170  -0.125  -0.019  0.00  0.00    +0.172 HD
BRANCH   5   7
ATOM      7  C   UNL     1       1.243  -2.036  -0.021  0.00  0.00    +0.147 C 
ATOM      8  S   UNL     1       2.737  -2.871  -0.040  0.00  0.00    -0.017 S 
BRANCH   7   9
ATOM      9  N   UNL     1       0.085  -2.725  -0.013  0.00  0.00    -0.322 N 
ATOM     10  H   UNL     1      -0.875  -2.188  -0.001  0.00  0.00    +0.148 HD
BRANCH   9  16
ATOM     11  C   UNL     1      -2.486  -6.769  -1.230  0.00  0.00    +0.008 C 
ATOM     12  C   UNL     1      -1.180  -6.244  -0.630  0.00  0.00    -0.009 C 
ATOM     13  C   UNL     1      -1.034  -6.760   0.803  0.00  0.00    +0.003 C 
ATOM     14  C   UNL     1       0.272  -6.236   1.403  0.00  0.00    +0.002 C 
ATOM     15  C   UNL     1       0.251  -4.706   1.411  0.00  0.00    +0.022 C 
ATOM     16  C   UNL     1       0.105  -4.190  -0.021  0.00  0.00    +0.075 C 
ATOM     17  C   UNL     1      -1.201  -4.715  -0.622  0.00  0.00    +0.009 C 
ATOM     18  C   UNL     1      -2.382  -4.225   0.220  0.00  0.00    +0.009 C 
ENDBRANCH   9  16
ENDBRANCH   7   9
ENDBRANCH   5   7
ENDBRANCH   1   5
BRANCH   2  19
ATOM     19  C   UNL     1      -1.331   2.079   0.020  0.00  0.00    +0.099 C 
BRANCH  19  20
ATOM     20  C   UNL     1      -1.072   3.587   0.027  0.00  0.00    +0.028 C 
BRANCH  20  21
ATOM     21  C   UNL     1      -2.408   4.334   0.037  0.00  0.00    +0.105 C 
BRANCH  21  22
ATOM     22  N   UNL     1      -2.159   5.778   0.044  0.00  0.00    -0.311 N 
ATOM     23  C   UNL     1      -3.196   6.640   0.053  0.00  0.00    +0.245 C 
ATOM     24  O   UNL     1      -4.337   6.219   0.056  0.00  0.00    -0.270 OA
ATOM     25  H   UNL     1      -1.127   6.159   0.041  0.00  0.00    +0.149 HD
BRANCH  23  26
ATOM     26  C   UNL     1      -2.946   8.090   0.060  0.00  0.00    +0.044 A 
ATOM     27  C   UNL     1      -4.030   9.040   0.065  0.00  0.00    +0.020 A 
ATOM     28  C   UNL     1      -3.701  10.347   0.075  0.00  0.00    +0.046 A 
ATOM     29  S   UNL     1      -1.920  10.314   0.066  0.00  0.00    -0.104 S 
ATOM     30  C   UNL     1      -1.665   8.601   0.056  0.00  0.00    +0.058 A 
ENDBRANCH  23  26
ENDBRANCH  21  22
ENDBRANCH  20  21
ENDBRANCH  19  20
ENDBRANCH   2  19
TORSDOF 9
