REMARK  Name = ZINC09501066
REMARK  12 active torsions:
REMARK  status: ('A' for Active; 'I' for Inactive)
REMARK    1  A    between atoms: C_1  and  C_2
REMARK    2  A    between atoms: C_2  and  C_3
REMARK    3  A    between atoms: C_3  and  C_4
REMARK    4  A    between atoms: C_4  and  C_5
REMARK    5  A    between atoms: C_5  and  C_6
REMARK    6  A    between atoms: C_6  and  C_8
REMARK    7  A    between atoms: C_6  and  C_9
REMARK    8  A    between atoms: C_9  and  N_10
REMARK    9  A    between atoms: C_11  and  C_25
REMARK   10  A    between atoms: C_14  and  S_15
REMARK   11  A    between atoms: S_15  and  C_16
REMARK   12  A    between atoms: C_16  and  C_17
REMARK                            x       y       z     vdW  Elec       q    Type
REMARK                         _______ _______ _______ _____ _____    ______ ____
ROOT
ATOM      1  N   UNL     1      -0.323   1.059   5.185  0.00  0.00    -0.302 N 
ATOM      2  C   UNL     1       0.803   1.635   5.727  0.00  0.00    +0.165 A 
ATOM      3  N   UNL     1       1.330   0.754   6.545  0.00  0.00    -0.128 NA
ATOM      4  N   UNL     1       0.622  -0.318   6.552  0.00  0.00    -0.122 NA
ATOM      5  C   UNL     1      -0.405  -0.185   5.742  0.00  0.00    +0.192 A 
ENDROOT
BRANCH   2   6
ATOM      6  C   UNL     1       1.320   2.990   5.443  0.00  0.00    +0.019 A 
ATOM      7  C   UNL     1       1.193   3.535   4.165  0.00  0.00    +0.013 A 
ATOM      8  C   UNL     1       1.674   4.802   3.907  0.00  0.00    +0.021 A 
ATOM      9  C   UNL     1       2.290   5.529   4.911  0.00  0.00    +0.041 A 
ATOM     10  C   UNL     1       2.424   4.992   6.180  0.00  0.00    +0.021 A 
ATOM     11  C   UNL     1       1.942   3.728   6.452  0.00  0.00    +0.013 A 
ATOM     12 CL   UNL     1       2.898   7.121   4.577  0.00  0.00    -0.084 Cl
ENDBRANCH   2   6
BRANCH   1  13
ATOM     13  C   UNL     1      -1.245   1.658   4.216  0.00  0.00    +0.129 C 
BRANCH  13  14
ATOM     14  C   UNL     1      -2.266   2.526   4.954  0.00  0.00    +0.006 C 
ATOM     15  C   UNL     1      -3.126   1.643   5.860  0.00  0.00    +0.009 C 
BRANCH  14  16
ATOM     16  C   UNL     1      -3.161   3.237   3.936  0.00  0.00    +0.005 C 
BRANCH  16  17
ATOM     17  C   UNL     1      -4.099   4.199   4.667  0.00  0.00    +0.000 C 
BRANCH  17  18
ATOM     18  C   UNL     1      -4.994   4.910   3.649  0.00  0.00    -0.000 C 
BRANCH  18  20
ATOM     19  C   UNL     1      -6.827   6.583   3.362  0.00  0.00    +0.004 C 
ATOM     20  C   UNL     1      -5.932   5.872   4.380  0.00  0.00    -0.003 C 
ENDBRANCH  18  20
ENDBRANCH  17  18
ENDBRANCH  16  17
ENDBRANCH  14  16
ENDBRANCH  13  14
ENDBRANCH   1  13
BRANCH   5  21
ATOM     21  S   UNL     1      -1.653  -1.390   5.429  0.00  0.00    -0.078 S 
BRANCH  21  22
ATOM     22  C   UNL     1      -1.078  -2.724   6.509  0.00  0.00    +0.153 C 
BRANCH  22  23
ATOM     23  C   UNL     1      -2.020  -3.896   6.404  0.00  0.00    +0.146 A 
ATOM     24  N   UNL     1      -3.055  -3.986   7.221  0.00  0.00    -0.199 NA
ATOM     25  C   UNL     1      -3.891  -5.017   7.128  0.00  0.00    +0.217 A 
ATOM     26  N   UNL     1      -3.679  -5.962   6.219  0.00  0.00    -0.181 NA
ATOM     27  C   UNL     1      -2.635  -5.872   5.403  0.00  0.00    +0.217 A 
ATOM     28  N   UNL     1      -1.805  -4.835   5.498  0.00  0.00    -0.199 NA
ATOM     29  N   UNL     1      -2.409  -6.851   4.457  0.00  0.00    -0.327 N 
ATOM     30  N   UNL     1      -4.975  -5.106   7.978  0.00  0.00    -0.327 N 
ATOM     31  H   UNL     1      -1.647  -6.784   3.862  0.00  0.00    +0.145 HD
ATOM     32  H   UNL     1      -3.014  -7.606   4.388  0.00  0.00    +0.145 HD
ATOM     33  H   UNL     1      -5.582  -5.860   7.912  0.00  0.00    +0.145 HD
ATOM     34  H   UNL     1      -5.129  -4.416   8.641  0.00  0.00    +0.145 HD
ENDBRANCH  22  23
ENDBRANCH  21  22
ENDBRANCH   5  21
TORSDOF 10
