REMARK  Name = ZINC36597706
REMARK  14 active torsions:
REMARK  status: ('A' for Active; 'I' for Inactive)
REMARK    1  A    between atoms: C_1  and  C_2
REMARK    2  A    between atoms: C_5  and  C_7
REMARK    3  A    between atoms: C_7  and  N_8
REMARK    4  A    between atoms: N_8  and  C_9
REMARK    5  A    between atoms: C_9  and  C_11
REMARK    6  A    between atoms: C_9  and  C_18
REMARK    7  A    between atoms: C_16  and  O_17
REMARK    8  A    between atoms: N_20  and  C_21
REMARK    9  A    between atoms: C_21  and  C_22
REMARK   10  A    between atoms: C_21  and  C_23
REMARK   11  A    between atoms: C_21  and  C_24
REMARK   12  A    between atoms: C_25  and  C_27
REMARK   13  A    between atoms: C_31  and  O_34
REMARK   14  A    between atoms: C_32  and  O_33
REMARK                            x       y       z     vdW  Elec       q    Type
REMARK                         _______ _______ _______ _____ _____    ______ ____
ROOT
ATOM      1  N   UNL     1       2.706  -2.547  -1.493  0.00  0.00    -0.274 N 
ATOM      2  C   UNL     1       1.381  -2.313  -1.418  0.00  0.00    +0.252 C 
ATOM      3  O   UNL     1       0.831  -2.274  -0.334  0.00  0.00    -0.270 OA
ENDROOT
BRANCH   2   4
ATOM      4  C   UNL     1       0.597  -2.105  -2.650  0.00  0.00    +0.082 A 
ATOM      5  C   UNL     1       1.065  -2.597  -3.872  0.00  0.00    +0.017 A 
ATOM      6  C   UNL     1       0.331  -2.401  -5.021  0.00  0.00    +0.005 A 
ATOM      7  C   UNL     1      -0.873  -1.717  -4.973  0.00  0.00    +0.049 A 
ATOM      8  C   UNL     1      -1.350  -1.223  -3.771  0.00  0.00    +0.159 A 
ATOM      9  C   UNL     1      -0.622  -1.419  -2.601  0.00  0.00    +0.171 A 
BRANCH   9  10
ATOM     10  O   UNL     1      -1.089  -0.941  -1.419  0.00  0.00    -0.503 OA
ATOM     11  H   UNL     1      -0.801  -0.041  -1.218  0.00  0.00    +0.292 HD
ENDBRANCH   9  10
BRANCH   8  12
ATOM     12  O   UNL     1      -2.533  -0.553  -3.732  0.00  0.00    -0.503 OA
ATOM     13  H   UNL     1      -3.301  -1.119  -3.578  0.00  0.00    +0.292 HD
ENDBRANCH   8  12
ENDBRANCH   2   4
BRANCH   1  14
ATOM     14  C   UNL     1       3.472  -2.822  -0.275  0.00  0.00    +0.183 C 
BRANCH  14  19
ATOM     15  C   UNL     1       2.312  -7.607   0.819  0.00  0.00    +0.086 C 
ATOM     16  C   UNL     1       3.093  -6.393   0.389  0.00  0.00    +0.102 A 
ATOM     17  C   UNL     1       4.377  -6.385  -0.012  0.00  0.00    +0.045 A 
ATOM     18  C   UNL     1       4.702  -5.044  -0.319  0.00  0.00    +0.046 A 
ATOM     19  C   UNL     1       3.598  -4.312  -0.087  0.00  0.00    +0.122 A 
ATOM     20  O   UNL     1       2.624  -5.135   0.337  0.00  0.00    -0.463 OA
ENDBRANCH  14  19
ENDBRANCH   1  14
BRANCH   1  21
ATOM     21  C   UNL     1       3.381  -2.525  -2.793  0.00  0.00    +0.196 C 
BRANCH  21  22
ATOM     22  C   UNL     1       2.859  -1.371  -3.611  0.00  0.00    +0.023 A 
ATOM     23  C   UNL     1       2.068  -0.406  -3.018  0.00  0.00    +0.009 A 
ATOM     24  C   UNL     1       1.589   0.653  -3.767  0.00  0.00    +0.001 A 
ATOM     25  C   UNL     1       1.901   0.748  -5.111  0.00  0.00    +0.004 A 
ATOM     26  C   UNL     1       2.691  -0.214  -5.708  0.00  0.00    +0.046 A 
ATOM     27  C   UNL     1       3.178  -1.275  -4.957  0.00  0.00    +0.122 A 
BRANCH  27  28
ATOM     28  O   UNL     1       3.960  -2.220  -5.541  0.00  0.00    -0.506 OA
ATOM     29  H   UNL     1       3.467  -2.964  -5.914  0.00  0.00    +0.292 HD
ENDBRANCH  27  28
ENDBRANCH  21  22
BRANCH  21  30
ATOM     30  C   UNL     1       4.865  -2.364  -2.586  0.00  0.00    +0.239 C 
ATOM     31  O   UNL     1       5.413  -2.930  -1.665  0.00  0.00    -0.273 OA
ATOM     32  N   UNL     1       5.582  -1.591  -3.426  0.00  0.00    -0.309 N 
ATOM     33  H   UNL     1       5.134  -1.085  -4.122  0.00  0.00    +0.149 HD
BRANCH  32  34
ATOM     34  C   UNL     1       7.039  -1.515  -3.287  0.00  0.00    +0.026 C 
ATOM     35  C   UNL     1       7.646  -2.900  -3.520  0.00  0.00    +0.031 C 
ATOM     36  C   UNL     1       7.598  -0.533  -4.318  0.00  0.00    +0.031 C 
ATOM     37  C   UNL     1       7.393  -1.034  -1.879  0.00  0.00    +0.031 C 
ENDBRANCH  32  34
ENDBRANCH  21  30
ENDBRANCH   1  21
TORSDOF 10
