REMARK  Name = ZINC09442449
REMARK  10 active torsions:
REMARK  status: ('A' for Active; 'I' for Inactive)
REMARK    1  A    between atoms: C_1  and  C_2
REMARK    2  A    between atoms: C_2  and  C_3
REMARK    3  A    between atoms: C_2  and  C_4
REMARK    4  A    between atoms: C_2  and  C_5
REMARK    5  A    between atoms: N_8  and  N_33
REMARK    6  A    between atoms: N_12  and  N_13
REMARK    7  A    between atoms: C_14  and  C_16
REMARK    8  A    between atoms: C_19  and  C_22
REMARK    9  A    between atoms: C_22  and  S_23
REMARK   10  A    between atoms: S_23  and  C_24
REMARK                            x       y       z     vdW  Elec       q    Type
REMARK                         _______ _______ _______ _____ _____    ______ ____
ROOT
ATOM      1  N   UNL     1       3.548  -0.681  -0.469  0.00  0.00    -0.230 N 
ATOM      2  C   UNL     1       4.706  -0.001  -0.584  0.00  0.00    +0.260 C 
ATOM      3  O   UNL     1       4.711   1.211  -0.487  0.00  0.00    -0.269 OA
ATOM      4  H   UNL     1       3.544  -1.648  -0.546  0.00  0.00    +0.173 HD
ENDROOT
BRANCH   1  12
ATOM      5  C   UNL     1      -1.063  -2.122   0.096  0.00  0.00    +0.135 A 
ATOM      6  C   UNL     1      -1.146  -0.712   0.114  0.00  0.00    +0.294 A 
ATOM      7  O   UNL     1      -2.222  -0.148   0.223  0.00  0.00    -0.264 OA
ATOM      8  N   UNL     1       0.002  -0.004   0.005  0.00  0.00    -0.198 N 
ATOM      9  C   UNL     1       1.176  -0.683  -0.120  0.00  0.00    +0.252 A 
ATOM     10  N   UNL     1       1.188  -2.005  -0.125  0.00  0.00    -0.111 NA
ATOM     11  N   UNL     1       0.110  -2.696  -0.023  0.00  0.00    -0.145 NA
ATOM     12  N   UNL     1       2.351   0.008  -0.238  0.00  0.00    -0.231 N 
ATOM     13  H   UNL     1       2.355   0.975  -0.160  0.00  0.00    +0.173 HD
BRANCH   5  15
ATOM     14  C   UNL     1      -1.938  -4.441   0.167  0.00  0.00    +0.017 C 
ATOM     15  C   UNL     1      -2.312  -2.958   0.213  0.00  0.00    +0.012 C 
ATOM     16  C   UNL     1      -3.010  -2.649   1.539  0.00  0.00    +0.017 C 
ATOM     17  C   UNL     1      -3.254  -2.633  -0.947  0.00  0.00    +0.017 C 
ENDBRANCH   5  15
BRANCH   8  18
ATOM     18  N   UNL     1      -0.017   1.362   0.017  0.00  0.00    -0.293 N 
ATOM     19  H   UNL     1       0.920   1.736   0.013  0.00  0.00    +0.163 HD
ATOM     20  H   UNL     1      -0.553   1.722  -0.758  0.00  0.00    +0.163 HD
ENDBRANCH   8  18
ENDBRANCH   1  12
BRANCH   2  21
ATOM     21  C   UNL     1       5.970  -0.728  -0.828  0.00  0.00    +0.038 A 
ATOM     22  C   UNL     1       5.968  -2.120  -0.934  0.00  0.00    +0.013 A 
ATOM     23  C   UNL     1       7.150  -2.792  -1.168  0.00  0.00    +0.005 A 
ATOM     24  C   UNL     1       8.337  -2.090  -1.286  0.00  0.00    -0.037 A 
ATOM     25  C   UNL     1       8.346  -0.711  -1.176  0.00  0.00    +0.005 A 
ATOM     26  C   UNL     1       7.170  -0.026  -0.948  0.00  0.00    +0.013 A 
BRANCH  24  27
ATOM     27  C   UNL     1       9.625  -2.832  -1.535  0.00  0.00    +0.111 C 
BRANCH  27  28
ATOM     28  S   UNL     1      10.388  -3.264   0.048  0.00  0.00    -0.094 S 
BRANCH  28  29
ATOM     29  C   UNL     1      11.832  -4.096  -0.525  0.00  0.00    +0.136 A 
ATOM     30  N   UNL     1      12.798  -4.649   0.174  0.00  0.00    -0.233 NA
ATOM     31  C   UNL     1      13.855  -5.259  -0.405  0.00  0.00    +0.079 A 
ATOM     32  C   UNL     1      14.953  -5.888   0.226  0.00  0.00    +0.029 A 
ATOM     33  C   UNL     1      15.950  -6.466  -0.516  0.00  0.00    +0.002 A 
ATOM     34  C   UNL     1      15.921  -6.455  -1.903  0.00  0.00    +0.001 A 
ATOM     35  C   UNL     1      14.862  -5.848  -2.553  0.00  0.00    +0.017 A 
ATOM     36  C   UNL     1      13.858  -5.268  -1.818  0.00  0.00    +0.040 A 
ATOM     37  S   UNL     1      12.351  -4.410  -2.207  0.00  0.00    -0.061 S 
ENDBRANCH  28  29
ENDBRANCH  27  28
ENDBRANCH  24  27
ENDBRANCH   2  21
TORSDOF 7
