REMARK  Name = ZINC66977014
REMARK  6 active torsions:
REMARK  status: ('A' for Active; 'I' for Inactive)
REMARK    1  A    between atoms: C_5  and  C_7
REMARK    2  A    between atoms: C_7  and  C_8
REMARK    3  A    between atoms: N_10  and  N_11
REMARK    4  A    between atoms: N_14  and  C_15
REMARK    5  A    between atoms: C_15  and  C_17
REMARK    6  A    between atoms: C_15  and  C_22
REMARK                            x       y       z     vdW  Elec       q    Type
REMARK                         _______ _______ _______ _____ _____    ______ ____
ROOT
ATOM      1  N   UNL     1       1.548  -4.494   2.938  0.00  0.00    -0.218 N 
ATOM      2  C   UNL     1       1.590  -5.820   3.176  0.00  0.00    +0.316 C 
ATOM      3  O   UNL     1       1.706  -6.230   4.314  0.00  0.00    -0.251 OA
ATOM      4  N   UNL     1       1.502  -6.691   2.151  0.00  0.00    -0.291 N 
ATOM      5  H   UNL     1       1.611  -3.867   3.676  0.00  0.00    +0.174 HD
ATOM      6  H   UNL     1       1.409  -6.364   1.243  0.00  0.00    +0.151 HD
ENDROOT
BRANCH   1   9
ATOM      7  C   UNL     1       1.372  -2.695   1.389  0.00  0.00    +0.234 C 
ATOM      8  O   UNL     1       1.451  -1.911   2.311  0.00  0.00    -0.274 OA
ATOM      9  N   UNL     1       1.414  -4.021   1.627  0.00  0.00    -0.233 N 
ATOM     10  H   UNL     1       1.351  -4.648   0.889  0.00  0.00    +0.173 HD
BRANCH   7  11
ATOM     11  C   UNL     1       1.228  -2.186  -0.022  0.00  0.00    +0.135 C 
BRANCH  11  16
ATOM     12  C   UNL     1      -0.017   1.378   0.010  0.00  0.00    +0.000 A 
ATOM     13  C   UNL     1       1.171   2.087   0.002  0.00  0.00    +0.003 A 
ATOM     14  C   UNL     1       2.377   1.414  -0.013  0.00  0.00    +0.038 A 
ATOM     15  C   UNL     1       2.397   0.029  -0.021  0.00  0.00    +0.127 A 
ATOM     16  C   UNL     1       1.208  -0.679  -0.013  0.00  0.00    -0.003 A 
ATOM     17  C   UNL     1       0.002  -0.004   0.002  0.00  0.00    +0.007 A 
ATOM     18  F   UNL     1       3.577  -0.630  -0.036  0.00  0.00    -0.205 F 
ENDBRANCH  11  16
ENDBRANCH   7  11
ENDBRANCH   1   9
BRANCH   4  19
ATOM     19  C   UNL     1       1.547  -8.132   2.409  0.00  0.00    +0.114 C 
BRANCH  19  20
ATOM     20  C   UNL     1       2.983  -8.585   2.482  0.00  0.00    +0.010 A 
ATOM     21  C   UNL     1       3.553  -9.482   3.323  0.00  0.00    +0.013 A 
ATOM     22  C   UNL     1       4.905  -9.745   3.205  0.00  0.00    +0.008 A 
ATOM     23  C   UNL     1       5.621  -9.098   2.253  0.00  0.00    +0.045 A 
ATOM     24  S   UNL     1       4.372  -8.084   1.478  0.00  0.00    -0.100 S 
ENDBRANCH  19  20
BRANCH  19  25
ATOM     25  C   UNL     1       0.835  -8.876   1.277  0.00  0.00    +0.014 C 
ATOM     26  C   UNL     1       1.484  -8.524  -0.077  0.00  0.00    +0.006 C 
ATOM     27  C   UNL     1       0.293  -8.461  -1.065  0.00  0.00    +0.000 C 
ATOM     28  C   UNL     1      -0.825  -7.812  -0.212  0.00  0.00    +0.000 C 
ATOM     29  C   UNL     1      -0.633  -8.423   1.192  0.00  0.00    +0.006 C 
ENDBRANCH  19  25
ENDBRANCH   4  19
TORSDOF 6
