REMARK  Name = ZINC63768063
REMARK  5 active torsions:
REMARK  status: ('A' for Active; 'I' for Inactive)
REMARK    1  A    between atoms: C_1  and  C_2
REMARK    2  A    between atoms: C_5  and  C_25
REMARK    3  A    between atoms: C_8  and  C_10
REMARK    4  A    between atoms: C_10  and  N_11
REMARK    5  A    between atoms: C_12  and  C_14
REMARK                            x       y       z     vdW  Elec       q    Type
REMARK                         _______ _______ _______ _____ _____    ______ ____
ROOT
ATOM      1  N   UNL     1       3.053   0.971   3.667  0.00  0.00    -0.303 N 
ATOM      2  C   UNL     1       3.930   0.743   4.665  0.00  0.00    +0.250 C 
ATOM      3  O   UNL     1       4.261  -0.396   4.935  0.00  0.00    -0.270 OA
ATOM      4  H   UNL     1       2.843   1.880   3.404  0.00  0.00    +0.150 HD
ENDROOT
BRANCH   2   5
ATOM      5  C   UNL     1       4.486   1.871   5.428  0.00  0.00    +0.100 A 
ATOM      6  C   UNL     1       5.291   1.647   6.525  0.00  0.00    +0.100 A 
ATOM      7  N   UNL     1       5.815   2.649   7.244  0.00  0.00    -0.360 N 
ATOM      8  C   UNL     1       5.592   3.976   6.946  0.00  0.00    +0.050 A 
ATOM      9  C   UNL     1       6.161   4.981   7.725  0.00  0.00    +0.026 A 
ATOM     10  C   UNL     1       5.931   6.304   7.418  0.00  0.00    +0.002 A 
ATOM     11  C   UNL     1       5.136   6.652   6.335  0.00  0.00    +0.001 A 
ATOM     12  C   UNL     1       4.563   5.675   5.551  0.00  0.00    +0.014 A 
ATOM     13  C   UNL     1       4.788   4.332   5.850  0.00  0.00    +0.046 A 
ATOM     14  C   UNL     1       4.197   3.258   5.030  0.00  0.00    +0.201 A 
ATOM     15  O   UNL     1       3.495   3.509   4.066  0.00  0.00    -0.286 OA
ATOM     16  H   UNL     1       6.374   2.432   8.006  0.00  0.00    +0.165 HD
ENDBRANCH   2   5
BRANCH   1  17
ATOM     17  C   UNL     1       2.417  -0.156   2.980  0.00  0.00    +0.200 C 
BRANCH  17  25
ATOM     18  C   UNL     1      -0.074   1.522   0.057  0.00  0.00    +0.028 C 
ATOM     19  C   UNL     1      -0.040  -0.007   0.038  0.00  0.00    +0.073 C 
ATOM     20  C   UNL     1      -1.461  -0.554   0.205  0.00  0.00    +0.023 C 
ATOM     21  C   UNL     1      -1.406  -2.079   0.325  0.00  0.00    +0.016 C 
ATOM     22  C   UNL     1      -0.591  -2.466   1.562  0.00  0.00    +0.092 C 
ATOM     23  C   UNL     1       0.840  -1.940   1.410  0.00  0.00    +0.120 C 
ATOM     24  N   UNL     1       0.788  -0.495   1.149  0.00  0.00    -0.297 N 
ATOM     25  C   UNL     1       1.487   0.366   1.915  0.00  0.00    +0.233 C 
ATOM     26  O   UNL     1       1.369   1.561   1.746  0.00  0.00    -0.274 OA
BRANCH  22  27
ATOM     27  C   UNL     1      -0.564  -3.967   1.697  0.00  0.00    +0.215 C 
ATOM     28  O   UNL     1      -1.140  -4.659   0.885  0.00  0.00    -0.276 OA
ATOM     29  N   UNL     1       0.100  -4.539   2.720  0.00  0.00    -0.329 N 
ATOM     30  H   UNL     1       0.561  -3.985   3.370  0.00  0.00    +0.145 HD
ATOM     31  H   UNL     1       0.118  -5.505   2.808  0.00  0.00    +0.145 HD
ENDBRANCH  22  27
ENDBRANCH  17  25
ENDBRANCH   1  17
TORSDOF 4
