REMARK  Name = ZINC45486512
REMARK  12 active torsions:
REMARK  status: ('A' for Active; 'I' for Inactive)
REMARK    1  A    between atoms: C_1  and  C_2
REMARK    2  A    between atoms: C_7  and  C_9
REMARK    3  A    between atoms: C_7  and  C_10
REMARK    4  A    between atoms: N_13  and  C_17
REMARK    5  A    between atoms: C_17  and  C_18
REMARK    6  A    between atoms: C_18  and  O_20
REMARK    7  A    between atoms: O_20  and  C_21
REMARK    8  A    between atoms: C_21  and  C_23
REMARK    9  A    between atoms: C_21  and  C_24
REMARK   10  A    between atoms: N_29  and  C_30
REMARK   11  A    between atoms: C_30  and  C_31
REMARK   12  A    between atoms: C_30  and  C_32
REMARK                            x       y       z     vdW  Elec       q    Type
REMARK                         _______ _______ _______ _____ _____    ______ ____
ROOT
ATOM      1  C   UNL     1       0.458  -3.241  -4.606  0.00  0.00    +0.238 C 
ENDROOT
BRANCH   1  13
ATOM      2  C   UNL     1      -0.061   1.649   0.498  0.00  0.00    +0.007 C 
ATOM      3  C   UNL     1      -0.046   0.132   0.299  0.00  0.00    -0.011 C 
ATOM      4  C   UNL     1       0.612  -0.200  -1.042  0.00  0.00    +0.038 C 
ATOM      5  C   UNL     1       0.646  -1.713  -1.232  0.00  0.00    +0.113 C 
ATOM      6  C   UNL     1       1.417  -2.381  -0.099  0.00  0.00    +0.041 C 
ATOM      7  C   UNL     1       0.756  -2.041   1.240  0.00  0.00    -0.032 C 
ATOM      8  C   UNL     1       0.748  -0.523   1.431  0.00  0.00    +0.009 C 
ATOM      9  C   UNL     1      -0.682  -2.564   1.246  0.00  0.00    +0.011 C 
ATOM     10  C   UNL     1       1.542  -2.695   2.378  0.00  0.00    +0.011 C 
ATOM     11  C   UNL     1       1.261  -2.063  -2.567  0.00  0.00    +0.247 C 
ATOM     12  O   UNL     1       2.385  -1.813  -2.946  0.00  0.00    -0.273 OA
ATOM     13  N   UNL     1       0.296  -2.715  -3.249  0.00  0.00    -0.213 N 
ATOM     14  C   UNL     1      -0.829  -2.819  -2.531  0.00  0.00    +0.310 C 
ATOM     15  O   UNL     1      -1.838  -3.366  -2.931  0.00  0.00    -0.252 OA
ATOM     16  N   UNL     1      -0.717  -2.252  -1.315  0.00  0.00    -0.285 N 
ATOM     17  H   UNL     1      -1.402  -2.208  -0.629  0.00  0.00    +0.151 HD
ENDBRANCH   1  13
BRANCH   1  18
ATOM     18  C   UNL     1       0.970  -4.657  -4.537  0.00  0.00    +0.326 C 
ATOM     19  O   UNL     1       1.178  -5.173  -3.465  0.00  0.00    -0.249 OA
BRANCH  18  20
ATOM     20  O   UNL     1       1.196  -5.345  -5.668  0.00  0.00    -0.451 OA
BRANCH  20  21
ATOM     21  C   UNL     1       1.681  -6.682  -5.528  0.00  0.00    +0.259 C 
ATOM     22  C   UNL     1       0.497  -7.648  -5.451  0.00  0.00    +0.062 C 
BRANCH  21  23
ATOM     23  C   UNL     1       2.538  -7.032  -6.717  0.00  0.00    +0.261 C 
ATOM     24  O   UNL     1       2.716  -6.217  -7.597  0.00  0.00    -0.271 OA
ATOM     25  N   UNL     1       3.107  -8.251  -6.802  0.00  0.00    -0.237 N 
ATOM     26  C   UNL     1       3.874  -8.563  -7.865  0.00  0.00    +0.306 C 
ATOM     27  O   UNL     1       4.053  -7.747  -8.748  0.00  0.00    -0.252 OA
ATOM     28  N   UNL     1       4.443  -9.782  -7.951  0.00  0.00    -0.297 N 
ATOM     29  H   UNL     1       2.965  -8.902  -6.098  0.00  0.00    +0.159 HD
ATOM     30  H   UNL     1       4.300 -10.434  -7.247  0.00  0.00    +0.151 HD
BRANCH  28  31
ATOM     31  C   UNL     1       5.276 -10.123  -9.106  0.00  0.00    +0.068 C 
ATOM     32  C   UNL     1       6.266 -11.222  -8.715  0.00  0.00    +0.027 C 
ATOM     33  C   UNL     1       4.387 -10.619 -10.248  0.00  0.00    +0.027 C 
ENDBRANCH  28  31
ENDBRANCH  21  23
ENDBRANCH  20  21
ENDBRANCH  18  20
ENDBRANCH   1  18
TORSDOF 6
