REMARK  Name = ZINC06088010
REMARK  3 active torsions:
REMARK  status: ('A' for Active; 'I' for Inactive)
REMARK    1  A    between atoms: C_2  and  C_12
REMARK    2  A    between atoms: N_14  and  C_15
REMARK    3  A    between atoms: C_15  and  C_16
REMARK                            x       y       z     vdW  Elec       q    Type
REMARK                         _______ _______ _______ _____ _____    ______ ____
ROOT
ATOM      1  C   UNL     1      -0.016   1.341   0.009  0.00  0.00    +0.227 C 
ATOM      2  C   UNL     1       1.260   1.782  -0.000  0.00  0.00    +0.153 C 
ATOM      3  N   UNL     1       2.082   0.654  -0.014  0.00  0.00    -0.171 NA
ATOM      4  C   UNL     1       1.274  -0.426  -0.012  0.00  0.00    +0.239 C 
ATOM      5  C   UNL     1       1.696  -1.769  -0.023  0.00  0.00    +0.164 C 
ATOM      6  C   UNL     1       3.023  -2.238  -0.032  0.00  0.00    +0.149 C 
ATOM      7  N   UNL     1       2.955  -3.563  -0.040  0.00  0.00    -0.219 NA
ATOM      8  C   UNL     1       1.679  -3.932  -0.036  0.00  0.00    +0.224 C 
ATOM      9  N   UNL     1       0.904  -2.874  -0.021  0.00  0.00    -0.227 NA
ATOM     10  N   UNL     1       4.180  -1.463  -0.033  0.00  0.00    -0.341 N 
ATOM     11  O   UNL     1       0.002  -0.004   0.002  0.00  0.00    -0.443 OA
ATOM     12  H   UNL     1       4.115  -0.495  -0.027  0.00  0.00    +0.144 HD
ATOM     13  H   UNL     1       5.050  -1.891  -0.040  0.00  0.00    +0.144 HD
ENDROOT
BRANCH   2  14
ATOM     14  C   UNL     1       1.700   3.183   0.002  0.00  0.00    +0.263 C 
ATOM     15  O   UNL     1       0.877   4.079   0.014  0.00  0.00    -0.269 OA
ATOM     16  N   UNL     1       3.015   3.477  -0.009  0.00  0.00    -0.302 N 
ATOM     17  H   UNL     1       3.671   2.762  -0.018  0.00  0.00    +0.149 HD
BRANCH  16  18
ATOM     18  C   UNL     1       3.454   4.874  -0.006  0.00  0.00    +0.217 C 
BRANCH  18  19
ATOM     19  C   UNL     1       4.983   4.929  -0.020  0.00  0.00    +0.405 C 
ATOM     20  F   UNL     1       5.462   4.292  -1.170  0.00  0.00    -0.169 F 
ATOM     21  F   UNL     1       5.402   6.263  -0.018  0.00  0.00    -0.169 F 
ATOM     22  F   UNL     1       5.483   4.281   1.114  0.00  0.00    -0.169 F 
ENDBRANCH  18  19
ENDBRANCH  16  18
ENDBRANCH   2  14
TORSDOF 3
