REMARK  Name = ZINC01250849
REMARK  7 active torsions:
REMARK  status: ('A' for Active; 'I' for Inactive)
REMARK    1  A    between atoms: C_1  and  C_2
REMARK    2  A    between atoms: C_2  and  C_3
REMARK    3  A    between atoms: C_2  and  C_4
REMARK    4  A    between atoms: N_14  and  C_19
REMARK    5  A    between atoms: N_17  and  N_18
REMARK    6  A    between atoms: C_19  and  C_20
REMARK    7  A    between atoms: C_20  and  C_21
REMARK                            x       y       z     vdW  Elec       q    Type
REMARK                         _______ _______ _______ _____ _____    ______ ____
ROOT
ATOM      1  C   UNL     1       0.951   7.177   4.670  0.00  0.00    +0.126 C 
ATOM      2  C   UNL     1       1.398   6.013   3.781  0.00  0.00    +0.068 C 
ATOM      3  C   UNL     1       1.379   6.490   2.330  0.00  0.00    -0.018 A 
ATOM      4  C   UNL     1       1.359   7.814   2.065  0.00  0.00    +0.021 A 
ATOM      5  S   UNL     1       1.339   7.928   0.299  0.00  0.00    -0.071 S 
ATOM      6  C   UNL     1       1.359   6.193  -0.080  0.00  0.00    +0.118 A 
ATOM      7  C   UNL     1       1.380   5.582   1.186  0.00  0.00    +0.076 A 
ATOM      8  C   UNL     1       1.399   4.151   1.184  0.00  0.00    +0.264 A 
ATOM      9  O   UNL     1       1.417   3.532   2.234  0.00  0.00    -0.267 OA
ATOM     10  N   UNL     1       1.397   3.497   0.007  0.00  0.00    -0.279 N 
ATOM     11  C   UNL     1       1.382   4.172  -1.177  0.00  0.00    +0.213 A 
ATOM     12  N   UNL     1       1.358   5.488  -1.205  0.00  0.00    -0.207 NA
ATOM     13  N   UNL     1       1.387   3.470  -2.357  0.00  0.00    -0.253 N 
ATOM     14  C   UNL     1       1.355   8.920   3.074  0.00  0.00    +0.203 C 
ATOM     15  O   UNL     1       1.697   8.355   4.350  0.00  0.00    -0.371 OA
ATOM     16  H   UNL     1       1.400   2.500  -2.344  0.00  0.00    +0.169 HD
ENDROOT
BRANCH   1  18
ATOM     17  C   UNL     1       0.722   7.967   7.029  0.00  0.00    +0.010 C 
ATOM     18  C   UNL     1       1.183   6.812   6.137  0.00  0.00    +0.012 C 
ATOM     19  C   UNL     1       0.387   5.553   6.482  0.00  0.00    +0.010 C 
ENDBRANCH   1  18
BRANCH  13  20
ATOM     20  N   UNL     1       1.372   4.136  -3.549  0.00  0.00    -0.254 NA
ATOM     21  H   UNL     1       1.377   3.491  -4.324  0.00  0.00    +0.140 HD
ATOM     22  H   UNL     1       0.582   4.761  -3.604  0.00  0.00    +0.140 HD
ENDBRANCH  13  20
BRANCH  10  23
ATOM     23  C   UNL     1       1.417   2.032  -0.001  0.00  0.00    +0.133 C 
BRANCH  23  24
ATOM     24  C   UNL     1      -0.018   1.503   0.010  0.00  0.00    +0.057 C 
BRANCH  24  25
ATOM     25  C   UNL     1       0.002  -0.004   0.002  0.00  0.00    -0.046 A 
ATOM     26  C   UNL     1      -0.006  -0.689  -1.199  0.00  0.00    +0.004 A 
ATOM     27  C   UNL     1       0.018  -2.071  -1.206  0.00  0.00    +0.000 A 
ATOM     28  C   UNL     1       0.039  -2.768  -0.013  0.00  0.00    +0.000 A 
ATOM     29  C   UNL     1       0.042  -2.084   1.188  0.00  0.00    +0.000 A 
ATOM     30  C   UNL     1       0.023  -0.702   1.195  0.00  0.00    +0.004 A 
ENDBRANCH  24  25
ENDBRANCH  23  24
ENDBRANCH  10  23
TORSDOF 5
