REMARK  Name = ZINC15276102
REMARK  12 active torsions:
REMARK  status: ('A' for Active; 'I' for Inactive)
REMARK    1  A    between atoms: C_1  and  C_2
REMARK    2  A    between atoms: C_2  and  C_3
REMARK    3  A    between atoms: C_2  and  C_4
REMARK    4  A    between atoms: C_4  and  C_5
REMARK    5  A    between atoms: C_5  and  C_35
REMARK    6  A    between atoms: C_10  and  C_13
REMARK    7  A    between atoms: C_17  and  O_20
REMARK    8  A    between atoms: C_18  and  O_19
REMARK    9  A    between atoms: O_20  and  C_21
REMARK   10  A    between atoms: N_24  and  C_27
REMARK   11  A    between atoms: C_32  and  O_33
REMARK   12  A    between atoms: O_33  and  C_34
REMARK                            x       y       z     vdW  Elec       q    Type
REMARK                         _______ _______ _______ _____ _____    ______ ____
ROOT
ATOM      1  C   UNL     1      -2.018  -1.598   0.969  0.00  0.00    +0.048 C 
ATOM      2  C   UNL     1      -3.526  -1.898   0.833  0.00  0.00    +0.086 C 
ATOM      3  C   UNL     1      -3.673  -2.574  -0.556  0.00  0.00    +0.077 C 
ATOM      4  C   UNL     1      -2.244  -2.604  -1.136  0.00  0.00    -0.023 C 
ATOM      5  N   UNL     1      -1.357  -2.571   0.063  0.00  0.00    +0.396 N 
ATOM      6  C   UNL     1      -4.117  -3.979  -0.216  0.00  0.00    +0.229 C 
ATOM      7  O   UNL     1      -4.350  -4.855  -1.021  0.00  0.00    -0.275 OA
ATOM      8  N   UNL     1      -4.212  -4.105   1.113  0.00  0.00    -0.206 N 
ATOM      9  C   UNL     1      -3.906  -2.987   1.811  0.00  0.00    +0.229 C 
ATOM     10  O   UNL     1      -3.929  -2.869   3.017  0.00  0.00    -0.275 OA
ATOM     11  H   UNL     1      -0.437  -2.246  -0.193  0.00  0.00    -0.083 HD
ATOM     12  H   UNL     1      -1.303  -3.479   0.500  0.00  0.00    -0.083 HD
ENDROOT
BRANCH   4  13
ATOM     13  C   UNL     1      -2.016  -3.879  -1.906  0.00  0.00    -0.015 A 
ATOM     14  C   UNL     1      -1.386  -4.950  -1.300  0.00  0.00    +0.006 A 
ATOM     15  C   UNL     1      -1.176  -6.121  -2.003  0.00  0.00    +0.004 A 
ATOM     16  C   UNL     1      -1.594  -6.226  -3.317  0.00  0.00    +0.049 A 
ATOM     17  C   UNL     1      -2.226  -5.157  -3.931  0.00  0.00    +0.161 A 
ATOM     18  C   UNL     1      -2.443  -3.980  -3.220  0.00  0.00    +0.160 A 
BRANCH  18  19
ATOM     19  O   UNL     1      -3.068  -2.929  -3.816  0.00  0.00    -0.503 OA
ATOM     20  H   UNL     1      -2.468  -2.319  -4.266  0.00  0.00    +0.292 HD
ENDBRANCH  18  19
BRANCH  17  21
ATOM     21  O   UNL     1      -2.638  -5.259  -5.223  0.00  0.00    -0.491 OA
ATOM     22  C   UNL     1      -2.386  -6.498  -5.888  0.00  0.00    +0.277 C 
ENDBRANCH  17  21
ENDBRANCH   4  13
BRANCH   8  23
ATOM     23  C   UNL     1      -4.604  -5.300   1.736  0.00  0.00    +0.085 A 
ATOM     24  C   UNL     1      -3.651  -6.240   2.099  0.00  0.00    +0.027 A 
ATOM     25  C   UNL     1      -4.040  -7.416   2.712  0.00  0.00    +0.002 A 
ATOM     26  C   UNL     1      -5.378  -7.658   2.966  0.00  0.00    +0.004 A 
ATOM     27  C   UNL     1      -6.333  -6.726   2.607  0.00  0.00    +0.047 A 
ATOM     28  C   UNL     1      -5.951  -5.542   1.997  0.00  0.00    +0.142 A 
BRANCH  28  29
ATOM     29  O   UNL     1      -6.888  -4.621   1.648  0.00  0.00    -0.493 OA
ATOM     30  C   UNL     1      -8.250  -4.937   1.947  0.00  0.00    +0.277 C 
ENDBRANCH  28  29
ENDBRANCH   8  23
BRANCH   1  31
ATOM     31  C   UNL     1      -1.564  -1.811   2.390  0.00  0.00    +0.346 C 
ATOM     32  O   UNL     1      -1.930  -1.048   3.268  0.00  0.00    -0.248 OA
ATOM     33  O   UNL     1      -0.831  -2.746   2.662  0.00  0.00    -0.248 OA
ENDBRANCH   1  31
BRANCH   1  34
ATOM     34  C   UNL     1      -1.718  -0.165   0.523  0.00  0.00    +0.002 C 
BRANCH  34  36
ATOM     35  C   UNL     1       0.097   1.401  -0.182  0.00  0.00    +0.007 C 
ATOM     36  C   UNL     1      -0.203   0.036   0.442  0.00  0.00    -0.018 C 
ATOM     37  C   UNL     1       0.396  -0.025   1.848  0.00  0.00    +0.007 C 
ENDBRANCH  34  36
ENDBRANCH   1  34
TORSDOF 8
