REMARK  Name = ZINC66819553
REMARK  6 active torsions:
REMARK  status: ('A' for Active; 'I' for Inactive)
REMARK    1  A    between atoms: C_1  and  C_2
REMARK    2  A    between atoms: C_5  and  N_8
REMARK    3  A    between atoms: C_10  and  C_15
REMARK    4  A    between atoms: N_17  and  N_18
REMARK    5  A    between atoms: C_19  and  C_21
REMARK    6  A    between atoms: N_23  and  C_24
REMARK                            x       y       z     vdW  Elec       q    Type
REMARK                         _______ _______ _______ _____ _____    ______ ____
ROOT
ATOM      1  C   UNL     1       6.473  -2.276   0.351  0.00  0.00    +0.234 C 
ATOM      2  O   UNL     1       6.462  -3.119   1.224  0.00  0.00    -0.274 OA
ATOM      3  N   UNL     1       7.607  -1.601   0.082  0.00  0.00    -0.234 N 
ATOM      4  H   UNL     1       7.616  -0.927  -0.616  0.00  0.00    +0.173 HD
ENDROOT
BRANCH   1   7
ATOM      5  N   UNL     1       2.853  -2.027  -0.036  0.00  0.00    -0.298 N 
ATOM      6  C   UNL     1       4.049  -2.874   0.048  0.00  0.00    +0.121 C 
ATOM      7  C   UNL     1       5.218  -1.985  -0.431  0.00  0.00    +0.102 C 
ATOM      8  C   UNL     1       4.686  -0.568  -0.117  0.00  0.00    +0.110 C 
ATOM      9  C   UNL     1       3.181  -0.727  -0.129  0.00  0.00    +0.217 C 
ATOM     10  O   UNL     1       2.387   0.186  -0.210  0.00  0.00    -0.276 OA
BRANCH   5  15
ATOM     11  C   UNL     1       1.484  -2.460   4.301  0.00  0.00    +0.007 C 
ATOM     12  C   UNL     1       1.004  -2.662   2.862  0.00  0.00    -0.014 C 
ATOM     13  C   UNL     1       1.049  -1.325   2.118  0.00  0.00    +0.005 C 
ATOM     14  C   UNL     1       0.569  -1.527   0.680  0.00  0.00    +0.023 C 
ATOM     15  C   UNL     1       1.479  -2.534  -0.026  0.00  0.00    +0.076 C 
ATOM     16  C   UNL     1       1.434  -3.870   0.719  0.00  0.00    +0.023 C 
ATOM     17  C   UNL     1       1.914  -3.669   2.157  0.00  0.00    +0.005 C 
ENDBRANCH   5  15
ENDBRANCH   1   7
BRANCH   3  18
ATOM     18  N   UNL     1       8.774  -1.872   0.809  0.00  0.00    -0.227 N 
ATOM     19  C   UNL     1       9.908  -1.196   0.539  0.00  0.00    +0.315 C 
ATOM     20  O   UNL     1       9.920  -0.353  -0.334  0.00  0.00    -0.264 OA
ATOM     21  H   UNL     1       8.765  -2.545   1.506  0.00  0.00    +0.173 HD
BRANCH  19  22
ATOM     22  C   UNL     1      11.153  -1.485   1.315  0.00  0.00    +0.301 C 
ATOM     23  O   UNL     1      11.141  -2.328   2.188  0.00  0.00    -0.265 OA
ATOM     24  N   UNL     1      12.287  -0.809   1.045  0.00  0.00    -0.305 N 
ATOM     25  H   UNL     1      12.296  -0.136   0.347  0.00  0.00    +0.149 HD
BRANCH  24  26
ATOM     26  C   UNL     1      13.507  -1.093   1.806  0.00  0.00    +0.073 C 
ATOM     27  C   UNL     1      14.338   0.102   2.278  0.00  0.00    +0.024 C 
ATOM     28  C   UNL     1      14.846  -0.780   1.135  0.00  0.00    +0.024 C 
ENDBRANCH  24  26
ENDBRANCH  19  22
ENDBRANCH   3  18
TORSDOF 5
