REMARK  Name = ZINC33809948
REMARK  4 active torsions:
REMARK  status: ('A' for Active; 'I' for Inactive)
REMARK    1  A    between atoms: C_2  and  C_3
REMARK    2  A    between atoms: C_3  and  S_4
REMARK    3  A    between atoms: S_4  and  C_5
REMARK    4  A    between atoms: C_12  and  C_22
REMARK                            x       y       z     vdW  Elec       q    Type
REMARK                         _______ _______ _______ _____ _____    ______ ____
ROOT
ATOM      1  C   UNL     1       4.643   2.943   3.466  0.00  0.00    +0.171 A 
ATOM      2  N   UNL     1       5.010   2.409   2.267  0.00  0.00    -0.208 NA
ATOM      3  C   UNL     1       4.310   2.723   1.132  0.00  0.00    +0.135 A 
ATOM      4  C   UNL     1       3.249   3.571   1.217  0.00  0.00    +0.069 A 
ATOM      5  C   UNL     1       2.905   4.106   2.477  0.00  0.00    +0.258 A 
ATOM      6  O   UNL     1       1.960   4.875   2.580  0.00  0.00    -0.267 OA
ATOM      7  N   UNL     1       3.620   3.767   3.560  0.00  0.00    -0.302 N 
ATOM      8  C   UNL     1       2.453   3.935  -0.001  0.00  0.00    +0.095 C 
ATOM      9  C   UNL     1       3.209   3.615  -1.266  0.00  0.00    +0.024 C 
ATOM     10  C   UNL     1       4.260   2.769  -1.252  0.00  0.00    +0.017 C 
ATOM     11  N   UNL     1       4.675   2.191  -0.082  0.00  0.00    -0.302 N 
ATOM     12  C   UNL     1       5.004   2.431  -2.521  0.00  0.00    +0.051 C 
ATOM     13  C   UNL     1       4.958   3.625  -3.476  0.00  0.00    +0.014 C 
ATOM     14  C   UNL     1       3.491   3.963  -3.762  0.00  0.00    +0.080 C 
ATOM     15  C   UNL     1       2.786   4.225  -2.460  0.00  0.00    +0.162 C 
ATOM     16  O   UNL     1       1.833   4.978  -2.440  0.00  0.00    -0.292 OA
ATOM     17  H   UNL     1       5.307   1.292  -0.121  0.00  0.00    +0.153 HD
ATOM     18  H   UNL     1       3.341   4.187   4.537  0.00  0.00    +0.171 HD
ENDROOT
BRANCH   8  19
ATOM     19  C   UNL     1       1.158   3.165   0.007  0.00  0.00    -0.000 A 
ATOM     20  C   UNL     1       1.175   1.783   0.000  0.00  0.00    +0.007 A 
ATOM     21  C   UNL     1      -0.013   1.076   0.008  0.00  0.00    +0.000 A 
ATOM     22  C   UNL     1      -1.220   1.750   0.017  0.00  0.00    +0.003 A 
ATOM     23  C   UNL     1      -1.240   3.132   0.030  0.00  0.00    +0.038 A 
ATOM     24  C   UNL     1      -0.050   3.841   0.022  0.00  0.00    +0.127 A 
ATOM     25  F   UNL     1      -0.068   5.192   0.030  0.00  0.00    -0.205 F 
ENDBRANCH   8  19
BRANCH   1  26
ATOM     26  S   UNL     1       5.554   2.525   4.915  0.00  0.00    -0.084 S 
BRANCH  26  27
ATOM     27  C   UNL     1       4.646   3.491   6.147  0.00  0.00    +0.104 C 
BRANCH  27  29
ATOM     28  C   UNL     1       5.838   4.286   8.124  0.00  0.00    +0.005 C 
ATOM     29  C   UNL     1       5.266   3.283   7.505  0.00  0.00    -0.023 C 
ENDBRANCH  27  29
ENDBRANCH  26  27
ENDBRANCH   1  26
TORSDOF 4
