REMARK  Name = ZINC09994897
REMARK  9 active torsions:
REMARK  status: ('A' for Active; 'I' for Inactive)
REMARK    1  A    between atoms: C_1  and  C_2
REMARK    2  A    between atoms: C_2  and  O_3
REMARK    3  A    between atoms: O_3  and  C_4
REMARK    4  A    between atoms: C_4  and  C_6
REMARK    5  A    between atoms: C_10  and  N_11
REMARK    6  A    between atoms: C_12  and  C_14
REMARK    7  A    between atoms: C_16  and  S_22
REMARK    8  A    between atoms: S_22  and  N_25
REMARK    9  A    between atoms: C_27  and  C_31
REMARK                            x       y       z     vdW  Elec       q    Type
REMARK                         _______ _______ _______ _____ _____    ______ ____
ROOT
ATOM      1  N   UNL     1       4.611   0.894   4.417  0.00  0.00    -0.275 N 
ATOM      2  C   UNL     1       5.894   1.103   4.064  0.00  0.00    +0.250 C 
ATOM      3  O   UNL     1       6.169   1.399   2.917  0.00  0.00    -0.270 OA
ATOM      4  H   UNL     1       4.392   0.657   5.332  0.00  0.00    +0.156 HD
ENDROOT
BRANCH   1   9
ATOM      5  C   UNL     1       2.236   0.844   3.643  0.00  0.00    +0.091 A 
ATOM      6  C   UNL     1       1.387   1.034   2.479  0.00  0.00    -0.021 A 
ATOM      7  C   UNL     1       2.035   1.365   1.342  0.00  0.00    -0.004 A 
ATOM      8  S   UNL     1       3.745   1.426   1.796  0.00  0.00    -0.077 S 
ATOM      9  C   UNL     1       3.604   1.018   3.474  0.00  0.00    +0.087 A 
ATOM     10  C   UNL     1       1.427   1.620  -0.003  0.00  0.00    +0.046 C 
ATOM     11  C   UNL     1      -0.013   1.086   0.008  0.00  0.00    -0.009 C 
ATOM     12  C   UNL     1      -0.714   1.583   1.276  0.00  0.00    +0.008 C 
ATOM     13  C   UNL     1      -0.129   0.881   2.503  0.00  0.00    +0.037 C 
ATOM     14  C   UNL     1      -0.758   1.595  -1.227  0.00  0.00    +0.008 C 
BRANCH   5  15
ATOM     15  C   UNL     1       1.672   0.483   4.945  0.00  0.00    +0.342 C 
ATOM     16  O   UNL     1       1.338   1.354   5.726  0.00  0.00    -0.245 OA
BRANCH  15  17
ATOM     17  O   UNL     1       1.522  -0.815   5.279  0.00  0.00    -0.461 OA
BRANCH  17  19
ATOM     18  C   UNL     1       0.864  -2.613   6.784  0.00  0.00    +0.048 C 
ATOM     19  C   UNL     1       0.956  -1.099   6.585  0.00  0.00    +0.229 C 
ENDBRANCH  17  19
ENDBRANCH  15  17
ENDBRANCH   5  15
ENDBRANCH   1   9
BRANCH   2  20
ATOM     20  C   UNL     1       6.968   0.971   5.069  0.00  0.00    +0.057 A 
ATOM     21  C   UNL     1       6.656   0.630   6.388  0.00  0.00    +0.044 A 
ATOM     22  C   UNL     1       7.662   0.508   7.322  0.00  0.00    +0.124 A 
ATOM     23  C   UNL     1       8.981   0.723   6.957  0.00  0.00    +0.069 A 
ATOM     24  C   UNL     1       9.298   1.061   5.652  0.00  0.00    +0.042 A 
ATOM     25  C   UNL     1       8.300   1.181   4.705  0.00  0.00    +0.055 A 
ATOM     26 CL   UNL     1       8.700   1.597   3.068  0.00  0.00    -0.083 Cl
ATOM     27 CL   UNL     1      10.242   0.567   8.140  0.00  0.00    -0.081 Cl
BRANCH  22  28
ATOM     28  S   UNL     1       7.269   0.079   8.985  0.00  0.00    +0.057 S 
ATOM     29  O   UNL     1       7.951   1.008   9.816  0.00  0.00    -0.153 OA
ATOM     30  O   UNL     1       5.860  -0.098   9.037  0.00  0.00    -0.153 OA
BRANCH  28  31
ATOM     31  N   UNL     1       7.944  -1.404   9.280  0.00  0.00    -0.203 NA
ATOM     32  H   UNL     1       8.444  -1.857   8.583  0.00  0.00    +0.144 HD
ATOM     33  H   UNL     1       7.840  -1.820  10.151  0.00  0.00    +0.144 HD
ENDBRANCH  28  31
ENDBRANCH  22  28
ENDBRANCH   2  20
TORSDOF 7
