REMARK  Name = ZINC04236607
REMARK  12 active torsions:
REMARK  status: ('A' for Active; 'I' for Inactive)
REMARK    1  A    between atoms: C_1  and  C_2
REMARK    2  A    between atoms: C_5  and  O_30
REMARK    3  A    between atoms: C_7  and  C_27
REMARK    4  A    between atoms: C_7  and  C_28
REMARK    5  A    between atoms: C_12  and  O_26
REMARK    6  A    between atoms: C_14  and  C_16
REMARK    7  A    between atoms: C_16  and  C_17
REMARK    8  A    between atoms: N_19  and  C_20
REMARK    9  A    between atoms: C_20  and  C_21
REMARK   10  A    between atoms: C_28  and  O_29
REMARK   11  A    between atoms: O_30  and  C_31
REMARK   12  A    between atoms: N_33  and  C_34
REMARK                            x       y       z     vdW  Elec       q    Type
REMARK                         _______ _______ _______ _____ _____    ______ ____
ROOT
ATOM      1  C   UNL     1       2.259   1.353  -0.531  0.00  0.00    +0.012 C 
ATOM      2  C   UNL     1       1.056   1.659   0.363  0.00  0.00    -0.023 C 
ATOM      3  C   UNL     1       0.549   3.073   0.069  0.00  0.00    +0.011 C 
ATOM      4  C   UNL     1       0.131   3.169  -1.400  0.00  0.00    +0.046 C 
ATOM      5  C   UNL     1      -0.984   2.159  -1.679  0.00  0.00    +0.186 C 
ATOM      6  C   UNL     1      -0.476   0.746  -1.385  0.00  0.00    +0.031 C 
ATOM      7  C   UNL     1      -0.058   0.649   0.083  0.00  0.00    +0.007 C 
ATOM      8  C   UNL     1      -1.261   0.956   0.978  0.00  0.00    +0.007 C 
ATOM      9  C   UNL     1      -0.842   0.860   2.446  0.00  0.00    +0.032 C 
ATOM     10  C   UNL     1       0.272   1.870   2.726  0.00  0.00    +0.119 C 
ATOM     11  C   UNL     1       1.475   1.563   1.832  0.00  0.00    +0.032 C 
ATOM     12  C   UNL     1      -1.591  -0.265  -1.665  0.00  0.00    +0.017 C 
ENDROOT
BRANCH  10  13
ATOM     13  O   UNL     1       0.663   1.780   4.097  0.00  0.00    -0.391 OA
ATOM     14  H   UNL     1      -0.051   1.963   4.723  0.00  0.00    +0.210 HD
ENDBRANCH  10  13
BRANCH  11  15
ATOM     15  C   UNL     1       1.982   0.150   2.126  0.00  0.00    +0.102 C 
BRANCH  15  16
ATOM     16  C   UNL     1       2.619   0.119   3.491  0.00  0.00    +0.214 C 
ATOM     17  O   UNL     1       2.823   1.154   4.089  0.00  0.00    -0.276 OA
ATOM     18  N   UNL     1       2.963  -1.059   4.048  0.00  0.00    -0.311 N 
ATOM     19  H   UNL     1       2.800  -1.887   3.570  0.00  0.00    +0.149 HD
BRANCH  18  20
ATOM     20  C   UNL     1       3.582  -1.089   5.375  0.00  0.00    +0.146 C 
BRANCH  20  21
ATOM     21  C   UNL     1       3.866  -2.517   5.765  0.00  0.00    +0.007 A 
ATOM     22  C   UNL     1       4.979  -3.258   5.542  0.00  0.00    +0.013 A 
ATOM     23  C   UNL     1       5.018  -4.563   5.996  0.00  0.00    +0.008 A 
ATOM     24  C   UNL     1       3.942  -5.064   6.650  0.00  0.00    +0.045 A 
ATOM     25  S   UNL     1       2.826  -3.670   6.646  0.00  0.00    -0.100 S 
ENDBRANCH  20  21
ENDBRANCH  18  20
ENDBRANCH  15  16
ENDBRANCH  11  15
BRANCH   6  26
ATOM     26  C   UNL     1       0.726   0.439  -2.280  0.00  0.00    +0.166 C 
BRANCH  26  27
ATOM     27  O   UNL     1       0.296   0.335  -3.638  0.00  0.00    -0.394 OA
ATOM     28  H   UNL     1       1.008   0.141  -4.263  0.00  0.00    +0.209 HD
ENDBRANCH  26  27
ENDBRANCH   6  26
BRANCH   5  29
ATOM     29  O   UNL     1      -1.381   2.250  -3.073  0.00  0.00    -0.446 OA
BRANCH  29  30
ATOM     30  C   UNL     1      -2.369   3.114  -3.372  0.00  0.00    +0.401 C 
ATOM     31  O   UNL     1      -2.886   3.774  -2.492  0.00  0.00    -0.226 OA
ATOM     32  N   UNL     1      -2.786   3.248  -4.646  0.00  0.00    -0.278 N 
ATOM     33  H   UNL     1      -2.373   2.721  -5.349  0.00  0.00    +0.152 HD
BRANCH  32  34
ATOM     34  C   UNL     1      -3.861   4.188  -4.971  0.00  0.00    +0.076 C 
ATOM     35  C   UNL     1      -5.215   3.509  -4.754  0.00  0.00    +0.022 C 
ATOM     36  C   UNL     1      -6.338   4.491  -5.093  0.00  0.00    +0.002 C 
ATOM     37  C   UNL     1      -6.213   4.924  -6.556  0.00  0.00    +0.000 C 
ATOM     38  C   UNL     1      -4.859   5.603  -6.773  0.00  0.00    +0.002 C 
ATOM     39  C   UNL     1      -3.736   4.621  -6.433  0.00  0.00    +0.022 C 
ENDBRANCH  32  34
ENDBRANCH  29  30
ENDBRANCH   5  29
TORSDOF 10
