REMARK  Name = ZINC40144239
REMARK  6 active torsions:
REMARK  status: ('A' for Active; 'I' for Inactive)
REMARK    1  A    between atoms: C_5  and  C_7
REMARK    2  A    between atoms: C_7  and  C_9
REMARK    3  A    between atoms: C_7  and  N_22
REMARK    4  A    between atoms: C_9  and  C_11
REMARK    5  A    between atoms: C_9  and  C_13
REMARK    6  A    between atoms: C_23  and  N_24
REMARK                            x       y       z     vdW  Elec       q    Type
REMARK                         _______ _______ _______ _____ _____    ______ ____
ROOT
ATOM      1  C   UNL     1       1.229  -2.186  -0.022  0.00  0.00    +0.162 C 
ENDROOT
BRANCH   1   6
ATOM      2  C   UNL     1       0.204   1.399  -0.618  0.00  0.00    +0.000 A 
ATOM      3  C   UNL     1       1.432   2.032  -0.671  0.00  0.00    +0.001 A 
ATOM      4  C   UNL     1       2.594   1.301  -0.515  0.00  0.00    +0.020 A 
ATOM      5  C   UNL     1       2.529  -0.065  -0.305  0.00  0.00    +0.046 A 
ATOM      6  C   UNL     1       1.300  -0.698  -0.251  0.00  0.00    -0.003 A 
ATOM      7  C   UNL     1       0.138   0.034  -0.407  0.00  0.00    +0.007 A 
ATOM      8 CL   UNL     1       3.989  -0.984  -0.109  0.00  0.00    -0.083 Cl
ENDBRANCH   1   6
BRANCH   1   9
ATOM      9  N   UNL     1      -0.067  -2.689  -0.484  0.00  0.00    -0.261 N 
ATOM     10  C   UNL     1      -0.270  -3.559  -1.525  0.00  0.00    +0.117 A 
ATOM     11  C   UNL     1      -1.613  -3.779  -1.635  0.00  0.00    +0.114 A 
ATOM     12  C   UNL     1      -2.259  -3.030  -0.641  0.00  0.00    +0.266 A 
ATOM     13  O   UNL     1      -3.462  -2.986  -0.444  0.00  0.00    -0.266 OA
ATOM     14  N   UNL     1      -1.317  -2.371   0.063  0.00  0.00    -0.261 N 
ATOM     15  H   UNL     1      -1.477  -1.779   0.815  0.00  0.00    +0.190 HD
BRANCH  10  16
ATOM     16  N   UNL     1       0.705  -4.111  -2.315  0.00  0.00    -0.343 N 
ATOM     17  H   UNL     1       1.637  -3.893  -2.159  0.00  0.00    +0.144 HD
ATOM     18  H   UNL     1       0.462  -4.719  -3.031  0.00  0.00    +0.144 HD
ENDBRANCH  10  16
ENDBRANCH   1   9
BRANCH   1  19
ATOM     19  C   UNL     1       1.387  -2.481   1.471  0.00  0.00    +0.176 C 
BRANCH  19  20
ATOM     20  C   UNL     1       1.438  -3.971   1.686  0.00  0.00    +0.099 A 
ATOM     21  N   UNL     1       0.532  -4.853   1.380  0.00  0.00    -0.243 NA
ATOM     22  C   UNL     1       0.698  -6.169   1.625  0.00  0.00    +0.079 A 
ATOM     23  C   UNL     1      -0.165  -7.254   1.364  0.00  0.00    +0.029 A 
ATOM     24  C   UNL     1       0.199  -8.523   1.696  0.00  0.00    +0.002 A 
ATOM     25  C   UNL     1       1.420  -8.796   2.297  0.00  0.00    +0.001 A 
ATOM     26  C   UNL     1       2.293  -7.759   2.567  0.00  0.00    +0.017 A 
ATOM     27  C   UNL     1       1.935  -6.474   2.236  0.00  0.00    +0.039 A 
ATOM     28  S   UNL     1       2.684  -4.872   2.371  0.00  0.00    -0.071 S 
ENDBRANCH  19  20
BRANCH  19  29
ATOM     29  C   UNL     1       0.243  -1.918   2.207  0.00  0.00    +0.075 C 
ATOM     30  N   UNL     1      -0.640  -1.484   2.774  0.00  0.00    -0.196 NA
ENDBRANCH  19  29
ENDBRANCH   1  19
TORSDOF 6
