REMARK  Name = ZINC54621226
REMARK  7 active torsions:
REMARK  status: ('A' for Active; 'I' for Inactive)
REMARK    1  A    between atoms: C_6  and  C_12
REMARK    2  A    between atoms: C_7  and  O_11
REMARK    3  A    between atoms: C_12  and  C_14
REMARK    4  A    between atoms: C_12  and  N_21
REMARK    5  A    between atoms: N_21  and  C_22
REMARK    6  A    between atoms: C_25  and  S_28
REMARK    7  A    between atoms: S_28  and  N_31
REMARK                            x       y       z     vdW  Elec       q    Type
REMARK                         _______ _______ _______ _____ _____    ______ ____
ROOT
ATOM      1  C   UNL     1       5.995  -0.906  -0.060  0.00  0.00    +0.135 C 
ENDROOT
BRANCH   1   7
ATOM      2  C   UNL     1       0.085   1.595   0.425  0.00  0.00    +0.020 A 
ATOM      3  C   UNL     1       1.287   2.244   0.456  0.00  0.00    +0.011 A 
ATOM      4  C   UNL     1       2.460   1.477   0.329  0.00  0.00    +0.004 A 
ATOM      5  C   UNL     1       3.731   2.074   0.353  0.00  0.00    +0.010 A 
ATOM      6  C   UNL     1       4.843   1.300   0.228  0.00  0.00    +0.010 A 
ATOM      7  C   UNL     1       4.742  -0.081   0.076  0.00  0.00    +0.021 A 
ATOM      8  C   UNL     1       3.524  -0.698   0.049  0.00  0.00    +0.148 A 
ATOM      9  C   UNL     1       2.349   0.073   0.176  0.00  0.00    +0.113 A 
ATOM     10  N   UNL     1       1.142  -0.500   0.153  0.00  0.00    -0.251 NA
ATOM     11  C   UNL     1       0.047   0.211   0.271  0.00  0.00    +0.111 A 
BRANCH   8  12
ATOM     12  O   UNL     1       3.444  -2.045  -0.100  0.00  0.00    -0.504 OA
ATOM     13  H   UNL     1       3.451  -2.534   0.734  0.00  0.00    +0.292 HD
ENDBRANCH   8  12
ENDBRANCH   1   7
BRANCH   1  14
ATOM     14  C   UNL     1       6.429  -1.389   1.300  0.00  0.00    -0.023 A 
ATOM     15  C   UNL     1       7.115  -0.540   2.148  0.00  0.00    +0.008 A 
ATOM     16  C   UNL     1       7.513  -0.982   3.395  0.00  0.00    +0.038 A 
ATOM     17  C   UNL     1       7.224  -2.276   3.796  0.00  0.00    +0.123 A 
ATOM     18  C   UNL     1       6.537  -3.125   2.946  0.00  0.00    +0.038 A 
ATOM     19  C   UNL     1       6.135  -2.679   1.701  0.00  0.00    +0.008 A 
ATOM     20  F   UNL     1       7.613  -2.709   5.015  0.00  0.00    -0.205 F 
ENDBRANCH   1  14
BRANCH   1  21
ATOM     21  N   UNL     1       7.057  -0.088  -0.650  0.00  0.00    -0.333 N 
ATOM     22  H   UNL     1       7.033   0.877  -0.559  0.00  0.00    +0.147 HD
BRANCH  21  23
ATOM     23  C   UNL     1       8.106  -0.698  -1.342  0.00  0.00    +0.028 A 
ATOM     24  C   UNL     1       8.140  -2.080  -1.478  0.00  0.00    +0.025 A 
ATOM     25  C   UNL     1       9.178  -2.679  -2.164  0.00  0.00    +0.030 A 
ATOM     26  C   UNL     1      10.183  -1.906  -2.715  0.00  0.00    +0.105 A 
ATOM     27  C   UNL     1      10.152  -0.530  -2.581  0.00  0.00    +0.030 A 
ATOM     28  C   UNL     1       9.114   0.077  -1.902  0.00  0.00    +0.025 A 
BRANCH  26  29
ATOM     29  S   UNL     1      11.506  -2.675  -3.588  0.00  0.00    +0.056 S 
ATOM     30  O   UNL     1      12.604  -1.774  -3.538  0.00  0.00    -0.153 OA
ATOM     31  O   UNL     1      11.591  -4.008  -3.104  0.00  0.00    -0.153 OA
BRANCH  29  32
ATOM     32  N   UNL     1      11.050  -2.777  -5.177  0.00  0.00    -0.204 NA
ATOM     33  H   UNL     1      10.184  -2.439  -5.456  0.00  0.00    +0.144 HD
ATOM     34  H   UNL     1      11.648  -3.175  -5.829  0.00  0.00    +0.144 HD
ENDBRANCH  29  32
ENDBRANCH  26  29
ENDBRANCH  21  23
ENDBRANCH   1  21
TORSDOF 7
