REMARK  Name = ZINC61949927
REMARK  6 active torsions:
REMARK  status: ('A' for Active; 'I' for Inactive)
REMARK    1  A    between atoms: C_1  and  N_2
REMARK    2  A    between atoms: N_2  and  C_3
REMARK    3  A    between atoms: C_7  and  C_9
REMARK    4  A    between atoms: C_11  and  C_13
REMARK    5  A    between atoms: C_18  and  N_19
REMARK    6  A    between atoms: N_19  and  N_20
REMARK                            x       y       z     vdW  Elec       q    Type
REMARK                         _______ _______ _______ _____ _____    ______ ____
ROOT
ATOM      1  C   UNL     1       0.057   1.290  -0.034  0.00  0.00    +0.138 C 
ATOM      2  N   UNL     1      -0.002  -0.172  -0.108  0.00  0.00    -0.270 N 
ATOM      3  C   UNL     1      -0.178  -0.780  -1.298  0.00  0.00    +0.254 C 
ATOM      4  O   UNL     1      -0.341  -1.984  -1.347  0.00  0.00    -0.270 OA
ENDROOT
BRANCH   3   5
ATOM      5  C   UNL     1      -0.172   0.014  -2.539  0.00  0.00    +0.079 A 
ATOM      6  C   UNL     1       0.901   0.861  -2.838  0.00  0.00    +0.033 A 
ATOM      7  C   UNL     1       0.859   1.585  -4.017  0.00  0.00    +0.037 A 
ATOM      8  C   UNL     1      -0.233   1.453  -4.859  0.00  0.00    +0.128 A 
ATOM      9  N   UNL     1      -1.234   0.649  -4.559  0.00  0.00    -0.237 NA
ATOM     10  C   UNL     1      -1.241  -0.070  -3.447  0.00  0.00    +0.144 A 
ATOM     11 BR   UNL     1       2.279   2.747  -4.474  0.00  0.00    -0.049 Br
BRANCH  10  12
ATOM     12  N   UNL     1      -2.310  -0.905  -3.175  0.00  0.00    -0.267 N 
ATOM     13  H   UNL     1      -2.356  -1.373  -2.328  0.00  0.00    +0.167 HD
BRANCH  12  14
ATOM     14  N   UNL     1      -3.301  -1.069  -4.101  0.00  0.00    -0.255 NA
ATOM     15  H   UNL     1      -2.924  -1.383  -4.983  0.00  0.00    +0.140 HD
ATOM     16  H   UNL     1      -4.010  -1.703  -3.764  0.00  0.00    +0.140 HD
ENDBRANCH  12  14
ENDBRANCH  10  12
ENDBRANCH   3   5
BRANCH   2  17
ATOM     17  C   UNL     1       0.125  -0.937   1.056  0.00  0.00    +0.037 A 
ATOM     18  C   UNL     1       0.246  -2.319   0.971  0.00  0.00    +0.023 A 
ATOM     19  C   UNL     1       0.371  -3.079   2.118  0.00  0.00    +0.003 A 
ATOM     20  C   UNL     1       0.378  -2.472   3.357  0.00  0.00    +0.019 A 
ATOM     21  C   UNL     1       0.257  -1.084   3.454  0.00  0.00    +0.054 A 
ATOM     22  C   UNL     1       0.137  -0.316   2.296  0.00  0.00    +0.042 A 
BRANCH  21  23
ATOM     23  C   UNL     1       0.263  -0.450   4.739  0.00  0.00    +0.099 C 
ATOM     24  N   UNL     1       0.268   0.052   5.758  0.00  0.00    -0.191 NA
ENDBRANCH  21  23
ENDBRANCH   2  17
TORSDOF 5
