REMARK  Name = ZINC12747309
REMARK  7 active torsions:
REMARK  status: ('A' for Active; 'I' for Inactive)
REMARK    1  A    between atoms: C_5  and  N_7
REMARK    2  A    between atoms: C_8  and  C_10
REMARK    3  A    between atoms: C_10  and  N_11
REMARK    4  A    between atoms: N_14  and  C_15
REMARK    5  A    between atoms: C_15  and  C_16
REMARK    6  A    between atoms: C_16  and  O_17
REMARK    7  A    between atoms: O_17  and  C_18
REMARK                            x       y       z     vdW  Elec       q    Type
REMARK                         _______ _______ _______ _____ _____    ______ ____
ROOT
ATOM      1  N   UNL     1       2.406   1.042   0.007  0.00  0.00    -0.291 N 
ATOM      2  C   UNL     1       3.671   1.508   0.008  0.00  0.00    +0.300 C 
ATOM      3  O   UNL     1       3.877   2.706   0.018  0.00  0.00    -0.253 OA
ATOM      4  N   UNL     1       4.707   0.645  -0.002  0.00  0.00    -0.296 N 
ATOM      5  H   UNL     1       2.242   0.086  -0.001  0.00  0.00    +0.151 HD
ATOM      6  H   UNL     1       4.542  -0.310  -0.010  0.00  0.00    +0.150 HD
ENDROOT
BRANCH   1   7
ATOM      7  C   UNL     1       1.280   1.979   0.018  0.00  0.00    +0.202 C 
BRANCH   7   9
ATOM      8  N   UNL     1      -1.191   1.867   0.018  0.00  0.00    -0.283 N 
ATOM      9  C   UNL     1      -0.015   1.208   0.015  0.00  0.00    +0.234 C 
ATOM     10  O   UNL     1       0.001  -0.004   0.004  0.00  0.00    -0.274 OA
ATOM     11  H   UNL     1      -1.205   2.834   0.092  0.00  0.00    +0.155 HD
BRANCH   8  16
ATOM     12  C   UNL     1      -3.698  -0.796   0.399  0.00  0.00    +0.002 A 
ATOM     13  C   UNL     1      -4.765  -0.252  -0.291  0.00  0.00    +0.001 A 
ATOM     14  C   UNL     1      -4.649   0.994  -0.880  0.00  0.00    +0.017 A 
ATOM     15  C   UNL     1      -3.465   1.699  -0.779  0.00  0.00    +0.039 A 
ATOM     16  C   UNL     1      -2.391   1.155  -0.086  0.00  0.00    +0.047 A 
ATOM     17  C   UNL     1      -2.510  -0.099   0.499  0.00  0.00    +0.024 A 
ATOM     18 BR   UNL     1      -3.307   3.402  -1.585  0.00  0.00    -0.048 Br
ENDBRANCH   8  16
ENDBRANCH   7   9
ENDBRANCH   1   7
BRANCH   4  19
ATOM     19  C   UNL     1       6.082   1.152  -0.002  0.00  0.00    +0.146 C 
BRANCH  19  20
ATOM     20  C   UNL     1       7.059  -0.025  -0.014  0.00  0.00    +0.247 C 
BRANCH  20  21
ATOM     21  O   UNL     1       6.922  -0.745  -1.241  0.00  0.00    -0.490 OA
BRANCH  21  22
ATOM     22  C   UNL     1       7.724  -1.828  -1.414  0.00  0.00    +0.121 A 
ATOM     23  C   UNL     1       8.629  -2.187  -0.425  0.00  0.00    +0.047 A 
ATOM     24  C   UNL     1       9.440  -3.292  -0.601  0.00  0.00    +0.023 A 
ATOM     25  C   UNL     1       9.358  -4.033  -1.766  0.00  0.00    +0.041 A 
ATOM     26  C   UNL     1       8.460  -3.673  -2.756  0.00  0.00    +0.023 A 
ATOM     27  C   UNL     1       7.644  -2.573  -2.582  0.00  0.00    +0.047 A 
ATOM     28 CL   UNL     1      10.383  -5.417  -1.987  0.00  0.00    -0.084 Cl
ENDBRANCH  21  22
ENDBRANCH  20  21
ENDBRANCH  19  20
ENDBRANCH   4  19
TORSDOF 7
