REMARK  Name = ZINC48652162
REMARK  4 active torsions:
REMARK  status: ('A' for Active; 'I' for Inactive)
REMARK    1  A    between atoms: C_3  and  N_8
REMARK    2  A    between atoms: N_8  and  S_9
REMARK    3  A    between atoms: S_9  and  C_12
REMARK    4  A    between atoms: C_15  and  C_19
REMARK                            x       y       z     vdW  Elec       q    Type
REMARK                         _______ _______ _______ _____ _____    ______ ____
ROOT
ATOM      1  S   UNL     1       5.027   1.314  -0.039  0.00  0.00    +0.092 S 
ATOM      2  O   UNL     1       5.124   0.629   1.202  0.00  0.00    -0.148 OA
ATOM      3  O   UNL     1       5.099   0.641  -1.289  0.00  0.00    -0.148 OA
ENDROOT
BRANCH   1   4
ATOM      4  C   UNL     1       6.304   2.528  -0.046  0.00  0.00    +0.112 A 
ATOM      5  C   UNL     1       6.787   3.012  -1.249  0.00  0.00    +0.030 A 
ATOM      6  C   UNL     1       7.787   3.963  -1.262  0.00  0.00    +0.022 A 
ATOM      7  C   UNL     1       8.311   4.437  -0.058  0.00  0.00    +0.070 A 
ATOM      8  C   UNL     1       7.819   3.944   1.154  0.00  0.00    +0.060 A 
ATOM      9  C   UNL     1       6.814   2.996   1.151  0.00  0.00    +0.050 A 
ATOM     10 CL   UNL     1       8.464   4.525   2.657  0.00  0.00    -0.082 Cl
BRANCH   7  11
ATOM     11  C   UNL     1       9.349   5.423  -0.064  0.00  0.00    +0.101 C 
ATOM     12  N   UNL     1      10.173   6.206  -0.069  0.00  0.00    -0.191 NA
ENDBRANCH   7  11
ENDBRANCH   1   4
BRANCH   1  13
ATOM     13  N   UNL     1       3.582   2.123  -0.021  0.00  0.00    -0.098 NA
BRANCH  13  16
ATOM     14  C   UNL     1      -0.017   1.378   0.010  0.00  0.00    +0.003 A 
ATOM     15  C   UNL     1       1.169   2.087   0.002  0.00  0.00    +0.027 A 
ATOM     16  C   UNL     1       2.381   1.409  -0.013  0.00  0.00    +0.075 A 
ATOM     17  C   UNL     1       2.398   0.020  -0.021  0.00  0.00    +0.042 A 
ATOM     18  C   UNL     1       1.208  -0.683  -0.013  0.00  0.00    +0.020 A 
ATOM     19  C   UNL     1       0.002  -0.004   0.002  0.00  0.00    +0.015 A 
ATOM     20 BR   UNL     1       1.228  -2.574  -0.023  0.00  0.00    -0.050 Br
ENDBRANCH  13  16
ENDBRANCH   1  13
TORSDOF 4
