REMARK  Name = ZINC32771512
REMARK  6 active torsions:
REMARK  status: ('A' for Active; 'I' for Inactive)
REMARK    1  A    between atoms: C_1  and  C_2
REMARK    2  A    between atoms: C_2  and  C_4
REMARK    3  A    between atoms: C_2  and  N_17
REMARK    4  A    between atoms: N_17  and  C_18
REMARK    5  A    between atoms: C_22  and  N_24
REMARK    6  A    between atoms: N_27  and  C_28
REMARK                            x       y       z     vdW  Elec       q    Type
REMARK                         _______ _______ _______ _____ _____    ______ ____
ROOT
ATOM      1  N   UNL     1      -3.704  11.454   0.289  0.00  0.00    -0.333 N 
ATOM      2  H   UNL     1      -2.764  12.026   0.282  0.00  0.00    +0.147 HD
ENDROOT
BRANCH   1   3
ATOM      3  C   UNL     1      -3.672  10.058   0.279  0.00  0.00    +0.029 A 
ATOM      4  C   UNL     1      -4.859   9.335   0.288  0.00  0.00    +0.023 A 
ATOM      5  C   UNL     1      -4.828   7.954   0.279  0.00  0.00    +0.004 A 
ATOM      6  C   UNL     1      -3.618   7.287   0.259  0.00  0.00    +0.023 A 
ATOM      7  C   UNL     1      -2.428   8.004   0.249  0.00  0.00    +0.037 A 
ATOM      8  C   UNL     1      -2.455   9.391   0.265  0.00  0.00    +0.046 A 
BRANCH   7   9
ATOM      9  N   UNL     1      -1.203   7.328   0.229  0.00  0.00    -0.269 N 
ATOM     10  C   UNL     1      -0.160   7.843  -0.451  0.00  0.00    +0.308 C 
ATOM     11  O   UNL     1      -0.257   8.935  -0.977  0.00  0.00    -0.252 OA
ATOM     12  N   UNL     1       0.991   7.148  -0.549  0.00  0.00    -0.269 N 
ATOM     13  H   UNL     1      -1.091   6.375   0.769  0.00  0.00    +0.156 HD
ATOM     14  H   UNL     1       1.054   6.129  -0.139  0.00  0.00    +0.156 HD
BRANCH  12  15
ATOM     15  C   UNL     1       2.104   7.722  -1.171  0.00  0.00    +0.035 A 
ATOM     16  C   UNL     1       1.934   8.569  -2.258  0.00  0.00    +0.023 A 
ATOM     17  C   UNL     1       3.036   9.134  -2.871  0.00  0.00    +0.002 A 
ATOM     18  C   UNL     1       4.307   8.857  -2.402  0.00  0.00    +0.000 A 
ATOM     19  C   UNL     1       4.480   8.009  -1.324  0.00  0.00    +0.002 A 
ATOM     20  C   UNL     1       3.382   7.446  -0.704  0.00  0.00    +0.023 A 
ENDBRANCH  12  15
ENDBRANCH   7   9
ENDBRANCH   1   3
BRANCH   1  22
ATOM     21  C   UNL     1      -5.479  12.281   1.754  0.00  0.00    +0.038 C 
ATOM     22  C   UNL     1      -4.989  12.157   0.310  0.00  0.00    +0.154 C 
BRANCH  22  23
ATOM     23  C   UNL     1      -4.819  13.532  -0.282  0.00  0.00    +0.240 C 
ATOM     24  O   UNL     1      -3.732  13.890  -0.683  0.00  0.00    -0.273 OA
ATOM     25  N   UNL     1      -5.876  14.365  -0.367  0.00  0.00    -0.259 N 
ATOM     26  C   UNL     1      -7.205  13.956   0.111  0.00  0.00    +0.209 C 
ATOM     27  C   UNL     1      -8.246  14.414  -0.878  0.00  0.00    +0.235 C 
ATOM     28  O   UNL     1      -9.276  13.786  -0.997  0.00  0.00    -0.274 OA
ATOM     29  N   UNL     1      -8.045  15.512  -1.631  0.00  0.00    -0.283 N 
ATOM     30  C   UNL     1      -6.845  16.226  -1.550  0.00  0.00    +0.055 A 
ATOM     31  C   UNL     1      -5.742  15.652  -0.910  0.00  0.00    +0.058 A 
ATOM     32  C   UNL     1      -4.547  16.344  -0.821  0.00  0.00    +0.025 A 
ATOM     33  C   UNL     1      -4.448  17.614  -1.362  0.00  0.00    +0.002 A 
ATOM     34  C   UNL     1      -5.537  18.190  -1.988  0.00  0.00    +0.002 A 
ATOM     35  C   UNL     1      -6.737  17.496  -2.092  0.00  0.00    +0.025 A 
ATOM     36  H   UNL     1      -8.830  15.857  -2.320  0.00  0.00    +0.155 HD
ENDBRANCH  22  23
ENDBRANCH   1  22
TORSDOF 5
