REMARK  Name = ZINC63291129
REMARK  15 active torsions:
REMARK  status: ('A' for Active; 'I' for Inactive)
REMARK    1  A    between atoms: C_1  and  C_2
REMARK    2  A    between atoms: C_2  and  C_3
REMARK    3  A    between atoms: C_2  and  C_4
REMARK    4  A    between atoms: C_2  and  C_5
REMARK    5  A    between atoms: C_8  and  C_11
REMARK    6  A    between atoms: N_13  and  C_14
REMARK    7  A    between atoms: C_14  and  C_26
REMARK    8  A    between atoms: C_15  and  C_16
REMARK    9  A    between atoms: C_19  and  O_24
REMARK   10  A    between atoms: C_20  and  O_22
REMARK   11  A    between atoms: O_22  and  C_23
REMARK   12  A    between atoms: O_24  and  C_25
REMARK   13  A    between atoms: N_28  and  C_29
REMARK   14  A    between atoms: C_29  and  C_30
REMARK   15  A    between atoms: C_30  and  C_31
REMARK                            x       y       z     vdW  Elec       q    Type
REMARK                         _______ _______ _______ _____ _____    ______ ____
ROOT
ATOM      1  C   UNL     1       4.757  -1.835  -6.090  0.00  0.00    +0.097 C 
ATOM      2  C   UNL     1       4.223  -2.736  -6.950  0.00  0.00    +0.036 C 
ENDROOT
BRANCH   2   3
ATOM      3  C   UNL     1       2.832  -3.179  -6.779  0.00  0.00    -0.019 A 
ATOM      4  C   UNL     1       1.901  -2.344  -6.151  0.00  0.00    +0.012 A 
ATOM      5  C   UNL     1       0.598  -2.762  -5.992  0.00  0.00    +0.050 A 
ATOM      6  C   UNL     1       0.205  -4.012  -6.453  0.00  0.00    +0.162 A 
ATOM      7  C   UNL     1       1.127  -4.850  -7.078  0.00  0.00    +0.162 A 
ATOM      8  C   UNL     1       2.434  -4.436  -7.248  0.00  0.00    +0.057 A 
BRANCH   7   9
ATOM      9  O   UNL     1       0.738  -6.073  -7.527  0.00  0.00    -0.491 OA
ATOM     10  C   UNL     1       1.734  -6.880  -8.158  0.00  0.00    +0.277 C 
ENDBRANCH   7   9
BRANCH   6  11
ATOM     11  O   UNL     1      -1.081  -4.419  -6.293  0.00  0.00    -0.491 OA
ATOM     12  C   UNL     1      -1.973  -3.511  -5.644  0.00  0.00    +0.277 C 
ENDBRANCH   6  11
ENDBRANCH   2   3
BRANCH   1  15
ATOM     13  C   UNL     1       3.833   0.036  -4.949  0.00  0.00    +0.248 C 
ATOM     14  O   UNL     1       4.319   0.772  -5.787  0.00  0.00    -0.270 OA
ATOM     15  N   UNL     1       3.974  -1.299  -5.063  0.00  0.00    -0.277 N 
ATOM     16  H   UNL     1       3.531  -1.889  -4.432  0.00  0.00    +0.155 HD
BRANCH  13  20
ATOM     17  C   UNL     1       1.694   1.676  -1.667  0.00  0.00    -0.042 A 
ATOM     18  C   UNL     1       2.338   2.516  -2.557  0.00  0.00    +0.005 A 
ATOM     19  C   UNL     1       3.035   1.990  -3.625  0.00  0.00    +0.013 A 
ATOM     20  C   UNL     1       3.089   0.607  -3.807  0.00  0.00    +0.037 A 
ATOM     21  C   UNL     1       2.436  -0.235  -2.905  0.00  0.00    +0.013 A 
ATOM     22  C   UNL     1       1.747   0.304  -1.838  0.00  0.00    +0.005 A 
BRANCH  17  24
ATOM     23  C   UNL     1       1.537   1.743   0.807  0.00  0.00    +0.015 C 
ATOM     24  C   UNL     1       0.935   2.257  -0.502  0.00  0.00    -0.013 C 
ATOM     25  C   UNL     1      -0.534   1.836  -0.589  0.00  0.00    +0.015 C 
ATOM     26  C   UNL     1       1.030   3.784  -0.542  0.00  0.00    +0.015 C 
ENDBRANCH  17  24
ENDBRANCH  13  20
ENDBRANCH   1  15
BRANCH   1  27
ATOM     27  C   UNL     1       6.159  -1.422  -6.237  0.00  0.00    +0.258 C 
ATOM     28  O   UNL     1       6.639  -0.613  -5.465  0.00  0.00    -0.269 OA
ATOM     29  N   UNL     1       6.913  -1.939  -7.227  0.00  0.00    -0.310 N 
ATOM     30  H   UNL     1       6.531  -2.583  -7.843  0.00  0.00    +0.149 HD
BRANCH  29  31
ATOM     31  C   UNL     1       8.312  -1.526  -7.374  0.00  0.00    +0.109 C 
BRANCH  31  32
ATOM     32  C   UNL     1       8.936  -2.256  -8.565  0.00  0.00    +0.052 C 
BRANCH  32  33
ATOM     33  C   UNL     1      10.374  -1.831  -8.716  0.00  0.00    -0.040 C 
ATOM     34  C   UNL     1      11.465  -2.465  -8.225  0.00  0.00    -0.001 A 
ATOM     35  C   UNL     1      11.631  -3.690  -7.434  0.00  0.00    +0.010 A 
ATOM     36  C   UNL     1      12.878  -4.080  -7.084  0.00  0.00    +0.001 A 
ATOM     37  C   UNL     1      14.012  -3.345  -7.456  0.00  0.00    +0.002 A 
ATOM     38  C   UNL     1      13.939  -2.210  -8.183  0.00  0.00    +0.026 A 
ATOM     39  C   UNL     1      12.678  -1.707  -8.606  0.00  0.00    +0.043 A 
ATOM     40  N   UNL     1      12.351  -0.647  -9.305  0.00  0.00    -0.380 N 
ATOM     41  C   UNL     1      10.892  -0.616  -9.451  0.00  0.00    +0.144 C 
ATOM     42  H   UNL     1      12.971   0.005  -9.667  0.00  0.00    +0.160 HD
ENDBRANCH  32  33
ENDBRANCH  31  32
ENDBRANCH  29  31
ENDBRANCH   1  27
TORSDOF 10
