REMARK  Name = ZINC03073636
REMARK  7 active torsions:
REMARK  status: ('A' for Active; 'I' for Inactive)
REMARK    1  A    between atoms: C_6  and  N_7
REMARK    2  A    between atoms: N_10  and  C_11
REMARK    3  A    between atoms: C_11  and  S_12
REMARK    4  A    between atoms: S_12  and  S_13
REMARK    5  A    between atoms: S_13  and  C_14
REMARK    6  A    between atoms: C_14  and  N_15
REMARK    7  A    between atoms: N_18  and  C_19
REMARK                            x       y       z     vdW  Elec       q    Type
REMARK                         _______ _______ _______ _____ _____    ______ ____
ROOT
ATOM      1  S   UNL     1       3.682   2.589   1.274  0.00  0.00    -0.073 S 
ENDROOT
BRANCH   1   2
ATOM      2  C   UNL     1       3.188   1.964  -0.356  0.00  0.00    +0.187 C 
BRANCH   2   6
ATOM      3  N   UNL     1      -0.173   0.486  -0.171  0.00  0.00    -0.269 N 
ATOM      4  C   UNL     1       0.823   1.382  -0.317  0.00  0.00    +0.305 C 
ATOM      5  O   UNL     1       0.563   2.546  -0.555  0.00  0.00    -0.252 OA
ATOM      6  N   UNL     1       2.106   0.989  -0.198  0.00  0.00    -0.289 N 
ATOM      7  H   UNL     1       0.034  -0.455  -0.057  0.00  0.00    +0.156 HD
ATOM      8  H   UNL     1       2.314   0.061  -0.008  0.00  0.00    +0.151 HD
BRANCH   3  14
ATOM      9  C   UNL     1      -1.848   2.155   0.322  0.00  0.00    +0.025 A 
ATOM     10  C   UNL     1      -3.164   2.574   0.296  0.00  0.00    +0.022 A 
ATOM     11  C   UNL     1      -4.143   1.751  -0.231  0.00  0.00    +0.041 A 
ATOM     12  C   UNL     1      -3.806   0.509  -0.739  0.00  0.00    +0.022 A 
ATOM     13  C   UNL     1      -2.491   0.087  -0.721  0.00  0.00    +0.025 A 
ATOM     14  C   UNL     1      -1.507   0.911  -0.192  0.00  0.00    +0.035 A 
ATOM     15 CL   UNL     1      -5.797   2.279  -0.256  0.00  0.00    -0.084 Cl
ENDBRANCH   3  14
ENDBRANCH   2   6
ENDBRANCH   1   2
BRANCH   1  16
ATOM     16  S   UNL     1       4.757   1.047   2.091  0.00  0.00    -0.073 S 
BRANCH  16  17
ATOM     17  C   UNL     1       6.434   1.289   1.443  0.00  0.00    +0.187 C 
BRANCH  17  18
ATOM     18  N   UNL     1       7.071   2.408   2.142  0.00  0.00    -0.289 N 
ATOM     19  C   UNL     1       7.864   2.173   3.207  0.00  0.00    +0.305 C 
ATOM     20  O   UNL     1       8.050   1.034   3.587  0.00  0.00    -0.252 OA
ATOM     21  N   UNL     1       8.450   3.203   3.850  0.00  0.00    -0.269 N 
ATOM     22  H   UNL     1       6.923   3.317   1.838  0.00  0.00    +0.151 HD
ATOM     23  H   UNL     1       8.248   4.115   3.590  0.00  0.00    +0.156 HD
BRANCH  21  24
ATOM     24  C   UNL     1       9.349   2.955   4.894  0.00  0.00    +0.035 A 
ATOM     25  C   UNL     1       9.138   1.886   5.754  0.00  0.00    +0.025 A 
ATOM     26  C   UNL     1      10.030   1.640   6.780  0.00  0.00    +0.022 A 
ATOM     27  C   UNL     1      11.127   2.466   6.958  0.00  0.00    +0.041 A 
ATOM     28  C   UNL     1      11.336   3.535   6.105  0.00  0.00    +0.022 A 
ATOM     29  C   UNL     1      10.450   3.781   5.074  0.00  0.00    +0.025 A 
ATOM     30 CL   UNL     1      12.241   2.159   8.252  0.00  0.00    -0.084 Cl
ENDBRANCH  21  24
ENDBRANCH  17  18
ENDBRANCH  16  17
ENDBRANCH   1  16
TORSDOF 7
