REMARK  Name = ZINC62988970
REMARK  4 active torsions:
REMARK  status: ('A' for Active; 'I' for Inactive)
REMARK    1  A    between atoms: C_4  and  C_7
REMARK    2  A    between atoms: N_9  and  C_10
REMARK    3  A    between atoms: C_13  and  S_16
REMARK    4  A    between atoms: S_16  and  N_19
REMARK                            x       y       z     vdW  Elec       q    Type
REMARK                         _______ _______ _______ _____ _____    ______ ____
ROOT
ATOM      1  C   UNL     1       4.977  -2.470   0.170  0.00  0.00    +0.066 A 
ATOM      2  C   UNL     1       6.038  -1.887  -0.527  0.00  0.00    +0.030 A 
ATOM      3  C   UNL     1       7.306  -2.418  -0.419  0.00  0.00    +0.030 A 
ATOM      4  C   UNL     1       7.529  -3.527   0.378  0.00  0.00    +0.105 A 
ATOM      5  C   UNL     1       6.483  -4.111   1.071  0.00  0.00    +0.030 A 
ATOM      6  C   UNL     1       5.211  -3.586   0.977  0.00  0.00    +0.030 A 
ENDROOT
BRANCH   1   9
ATOM      7  C   UNL     1       3.151  -1.825  -1.109  0.00  0.00    +0.124 C 
ATOM      8  N   UNL     1       3.772  -2.335  -2.227  0.00  0.00    -0.343 N 
ATOM      9  N   UNL     1       3.717  -1.948   0.068  0.00  0.00    -0.232 NA
ATOM     10  H   UNL     1       3.333  -2.284  -3.091  0.00  0.00    +0.144 HD
ATOM     11  H   UNL     1       4.648  -2.744  -2.152  0.00  0.00    +0.144 HD
BRANCH   7  15
ATOM     12  C   UNL     1      -0.597   0.140  -1.470  0.00  0.00    +0.000 A 
ATOM     13  C   UNL     1       0.025  -0.371  -2.596  0.00  0.00    +0.001 A 
ATOM     14  C   UNL     1       1.242  -1.010  -2.486  0.00  0.00    +0.011 A 
ATOM     15  C   UNL     1       1.847  -1.141  -1.235  0.00  0.00    +0.014 A 
ATOM     16  C   UNL     1       1.215  -0.624  -0.103  0.00  0.00    +0.011 A 
ATOM     17  C   UNL     1      -0.003   0.013  -0.227  0.00  0.00    +0.001 A 
ENDBRANCH   7  15
ENDBRANCH   1   9
BRANCH   4  18
ATOM     18  S   UNL     1       9.152  -4.200   0.510  0.00  0.00    +0.056 S 
ATOM     19  O   UNL     1       8.998  -5.562   0.884  0.00  0.00    -0.153 OA
ATOM     20  O   UNL     1       9.851  -3.807  -0.662  0.00  0.00    -0.153 OA
BRANCH  18  21
ATOM     21  N   UNL     1       9.894  -3.442   1.782  0.00  0.00    -0.204 NA
ATOM     22  H   UNL     1       9.418  -2.765   2.287  0.00  0.00    +0.144 HD
ATOM     23  H   UNL     1      10.805  -3.674   2.020  0.00  0.00    +0.144 HD
ENDBRANCH  18  21
ENDBRANCH   4  18
TORSDOF 4
