REMARK  Name = ZINC11116842
REMARK  7 active torsions:
REMARK  status: ('A' for Active; 'I' for Inactive)
REMARK    1  A    between atoms: C_1  and  C_2
REMARK    2  A    between atoms: C_7  and  N_8
REMARK    3  A    between atoms: C_9  and  C_11
REMARK    4  A    between atoms: C_13  and  C_23
REMARK    5  A    between atoms: C_17  and  C_22
REMARK    6  A    between atoms: C_26  and  O_29
REMARK    7  A    between atoms: O_29  and  C_30
REMARK                            x       y       z     vdW  Elec       q    Type
REMARK                         _______ _______ _______ _____ _____    ______ ____
ROOT
ATOM      1  C   UNL     1      -0.015   1.093  -0.005  0.00  0.00    +0.165 C 
ATOM      2  C   UNL     1      -0.765   1.598   1.238  0.00  0.00    +0.140 C 
ATOM      3  N   UNL     1      -2.057   0.930   1.374  0.00  0.00    -0.275 N 
ATOM      4  N   UNL     1      -2.928   1.153   0.351  0.00  0.00    -0.263 N 
ATOM      5  C   UNL     1      -4.297   1.079   0.418  0.00  0.00    +0.037 A 
ATOM      6  C   UNL     1      -4.801   1.339  -0.805  0.00  0.00    +0.025 A 
ATOM      7  C   UNL     1      -3.715   1.594  -1.670  0.00  0.00    +0.036 A 
ATOM      8  C   UNL     1      -2.592   1.483  -0.938  0.00  0.00    +0.095 A 
ATOM      9  S   UNL     1      -0.917   1.721  -1.464  0.00  0.00    -0.091 S 
ATOM     10  C   UNL     1      -5.101   0.760   1.652  0.00  0.00    +0.065 C 
ATOM     11  H   UNL     1      -2.482   1.143   2.264  0.00  0.00    +0.167 HD
ENDROOT
BRANCH   2  12
ATOM     12  C   UNL     1       0.066   1.322   2.464  0.00  0.00    -0.024 A 
ATOM     13  C   UNL     1       0.071   0.059   3.025  0.00  0.00    +0.009 A 
ATOM     14  C   UNL     1       0.836  -0.198   4.146  0.00  0.00    +0.046 A 
ATOM     15  C   UNL     1       1.593   0.816   4.715  0.00  0.00    +0.120 A 
ATOM     16  C   UNL     1       1.582   2.085   4.154  0.00  0.00    +0.046 A 
ATOM     17  C   UNL     1       0.819   2.335   3.029  0.00  0.00    +0.009 A 
BRANCH  15  18
ATOM     18  O   UNL     1       2.343   0.567   5.821  0.00  0.00    -0.495 OA
ATOM     19  C   UNL     1       2.305  -0.762   6.345  0.00  0.00    +0.277 C 
ENDBRANCH  15  18
ENDBRANCH   2  12
BRANCH   1  21
ATOM     20  N   UNL     1       2.379   0.916  -0.599  0.00  0.00    -0.284 N 
ATOM     21  C   UNL     1       1.396   1.621  -0.005  0.00  0.00    +0.233 C 
ATOM     22  O   UNL     1       1.647   2.680   0.529  0.00  0.00    -0.274 OA
ATOM     23  H   UNL     1       2.195   0.033  -0.956  0.00  0.00    +0.155 HD
BRANCH  20  30
ATOM     24  C   UNL     1       4.579  -0.876  -0.819  0.00  0.00    +0.045 C 
ATOM     25  C   UNL     1       4.767   0.619  -0.810  0.00  0.00    -0.029 A 
ATOM     26  C   UNL     1       6.034   1.157  -0.916  0.00  0.00    +0.005 A 
ATOM     27  C   UNL     1       6.208   2.529  -0.903  0.00  0.00    +0.000 A 
ATOM     28  C   UNL     1       5.113   3.367  -0.789  0.00  0.00    +0.002 A 
ATOM     29  C   UNL     1       3.843   2.835  -0.688  0.00  0.00    +0.023 A 
ATOM     30  C   UNL     1       3.665   1.458  -0.701  0.00  0.00    +0.036 A 
ENDBRANCH  20  30
ENDBRANCH   1  21
TORSDOF 4
