REMARK  Name = ZINC48268466
REMARK  9 active torsions:
REMARK  status: ('A' for Active; 'I' for Inactive)
REMARK    1  A    between atoms: C_1  and  C_2
REMARK    2  A    between atoms: C_5  and  N_27
REMARK    3  A    between atoms: C_7  and  N_8
REMARK    4  A    between atoms: N_11  and  C_12
REMARK    5  A    between atoms: C_12  and  C_14
REMARK    6  A    between atoms: C_12  and  C_15
REMARK    7  A    between atoms: C_18  and  N_21
REMARK    8  A    between atoms: C_22  and  C_24
REMARK    9  A    between atoms: C_28  and  C_30
REMARK                            x       y       z     vdW  Elec       q    Type
REMARK                         _______ _______ _______ _____ _____    ______ ____
ROOT
ATOM      1  N   UNL     1       1.423  -0.862  -0.955  0.00  0.00    -0.269 N 
ATOM      2  C   UNL     1       1.334  -1.259   0.330  0.00  0.00    +0.304 C 
ATOM      3  O   UNL     1       1.256  -2.443   0.596  0.00  0.00    -0.252 OA
ATOM      4  N   UNL     1       1.331  -0.344   1.319  0.00  0.00    -0.293 N 
ATOM      5  H   UNL     1       1.547   0.077  -1.165  0.00  0.00    +0.156 HD
ATOM      6  H   UNL     1       1.394   0.600   1.107  0.00  0.00    +0.151 HD
ENDROOT
BRANCH   1  13
ATOM      7  C   UNL     1       0.371  -0.018  -3.458  0.00  0.00    +0.045 C 
ATOM      8  C   UNL     1       0.830  -1.434  -3.225  0.00  0.00    -0.029 A 
ATOM      9  C   UNL     1       0.750  -2.362  -4.246  0.00  0.00    +0.007 A 
ATOM     10  C   UNL     1       1.170  -3.661  -4.036  0.00  0.00    +0.024 A 
ATOM     11  C   UNL     1       1.673  -4.039  -2.797  0.00  0.00    +0.035 A 
ATOM     12  C   UNL     1       1.754  -3.110  -1.771  0.00  0.00    +0.047 A 
ATOM     13  C   UNL     1       1.337  -1.804  -1.986  0.00  0.00    +0.039 A 
BRANCH  11  14
ATOM     14  N   UNL     1       2.097  -5.356  -2.586  0.00  0.00    -0.286 N 
ATOM     15  C   UNL     1       2.658  -6.053  -3.593  0.00  0.00    +0.214 C 
ATOM     16  O   UNL     1       2.878  -5.512  -4.656  0.00  0.00    -0.276 OA
ATOM     17  C   UNL     1       3.011  -7.505  -3.399  0.00  0.00    +0.109 C 
ATOM     18  H   UNL     1       1.987  -5.766  -1.714  0.00  0.00    +0.155 HD
ENDBRANCH  11  14
ENDBRANCH   1  13
BRANCH   4  19
ATOM     19  C   UNL     1       1.234  -0.776   2.716  0.00  0.00    +0.102 C 
ATOM     20  C   UNL     1       2.629  -1.124   3.240  0.00  0.00    +0.033 C 
BRANCH  19  21
ATOM     21  C   UNL     1       0.649   0.337   3.546  0.00  0.00    -0.027 A 
ATOM     22  C   UNL     1       1.023   1.647   3.307  0.00  0.00    +0.007 A 
ATOM     23  C   UNL     1       0.488   2.669   4.066  0.00  0.00    +0.023 A 
ATOM     24  C   UNL     1      -0.427   2.380   5.071  0.00  0.00    +0.033 A 
ATOM     25  C   UNL     1      -0.800   1.064   5.308  0.00  0.00    +0.023 A 
ATOM     26  C   UNL     1      -0.266   0.047   4.542  0.00  0.00    +0.007 A 
BRANCH  24  27
ATOM     27  N   UNL     1      -0.970   3.414   5.842  0.00  0.00    -0.285 N 
ATOM     28  C   UNL     1      -1.192   4.622   5.289  0.00  0.00    +0.220 C 
ATOM     29  O   UNL     1      -1.008   4.789   4.101  0.00  0.00    -0.275 OA
ATOM     30  H   UNL     1      -1.187   3.260   6.775  0.00  0.00    +0.155 HD
BRANCH  28  31
ATOM     31  C   UNL     1      -1.669   5.767   6.145  0.00  0.00    +0.075 C 
ATOM     32  C   UNL     1      -3.095   6.273   5.918  0.00  0.00    +0.013 C 
ATOM     33  C   UNL     1      -1.903   7.114   5.458  0.00  0.00    +0.013 C 
ENDBRANCH  28  31
ENDBRANCH  24  27
ENDBRANCH  19  21
ENDBRANCH   4  19
TORSDOF 6
