REMARK  Name = ZINC62868516
REMARK  3 active torsions:
REMARK  status: ('A' for Active; 'I' for Inactive)
REMARK    1  A    between atoms: C_1  and  C_2
REMARK    2  A    between atoms: C_2  and  C_18
REMARK    3  A    between atoms: C_8  and  C_10
REMARK                            x       y       z     vdW  Elec       q    Type
REMARK                         _______ _______ _______ _____ _____    ______ ____
ROOT
ATOM      1  C   UNL     1      -0.244   1.210  -0.020  0.00  0.00    +0.024 C 
ATOM      2  C   UNL     1      -0.067  -0.307   0.076  0.00  0.00    +0.085 C 
ATOM      3  C   UNL     1      -1.440  -0.974   0.191  0.00  0.00    +0.021 C 
ATOM      4  C   UNL     1      -2.167  -0.438   1.426  0.00  0.00    +0.020 C 
ATOM      5  C   UNL     1      -1.357  -0.780   2.680  0.00  0.00    +0.108 C 
ATOM      6  N   UNL     1       0.009  -0.266   2.514  0.00  0.00    -0.295 N 
ATOM      7  C   UNL     1       0.767  -0.647   1.315  0.00  0.00    +0.126 C 
ATOM      8  C   UNL     1       0.557   0.541   3.445  0.00  0.00    +0.264 C 
ATOM      9  O   UNL     1       1.720   0.886   3.343  0.00  0.00    -0.268 OA
ENDROOT
BRANCH   8  10
ATOM     10  C   UNL     1      -0.247   1.002   4.581  0.00  0.00    +0.122 A 
ATOM     11  C   UNL     1      -0.414   0.359   5.758  0.00  0.00    +0.118 A 
ATOM     12  N   UNL     1      -1.236   1.125   6.543  0.00  0.00    -0.312 N 
ATOM     13  H   UNL     1      -1.524   0.906   7.443  0.00  0.00    +0.170 HD
ATOM     14  C   UNL     1      -1.575   2.234   5.859  0.00  0.00    +0.325 A 
ATOM     15  O   UNL     1      -2.295   3.127   6.265  0.00  0.00    -0.247 OA
ATOM     16  N   UNL     1      -0.979   2.191   4.651  0.00  0.00    -0.303 N 
ATOM     17  H   UNL     1      -1.048   2.863   3.954  0.00  0.00    +0.171 HD
ENDBRANCH   8  10
BRANCH   2  18
ATOM     18  C   UNL     1       0.636  -0.811  -1.158  0.00  0.00    +0.363 C 
ATOM     19  O   UNL     1       1.751  -0.402  -1.434  0.00  0.00    -0.246 OA
ATOM     20  O   UNL     1       0.090  -1.628  -1.880  0.00  0.00    -0.246 OA
ENDBRANCH   2  18
TORSDOF 2
