REMARK  Name = ZINC06910484
REMARK  8 active torsions:
REMARK  status: ('A' for Active; 'I' for Inactive)
REMARK    1  A    between atoms: C_1  and  C_2
REMARK    2  A    between atoms: C_2  and  N_3
REMARK    3  A    between atoms: N_3  and  C_4
REMARK    4  A    between atoms: N_3  and  C_6
REMARK    5  A    between atoms: C_4  and  C_5
REMARK    6  A    between atoms: C_9  and  C_12
REMARK    7  A    between atoms: C_28  and  C_30
REMARK    8  A    between atoms: C_28  and  C_31
REMARK                            x       y       z     vdW  Elec       q    Type
REMARK                         _______ _______ _______ _____ _____    ______ ____
ROOT
ATOM      1  C   UNL     1       6.311  -1.357   0.990  0.00  0.00    +0.090 C 
ATOM      2  C   UNL     1       6.982  -0.473   1.999  0.00  0.00    +0.042 A 
ATOM      3  C   UNL     1       7.163   0.892   1.733  0.00  0.00    +0.126 A 
ATOM      4  N   UNL     1       7.757   1.665   2.637  0.00  0.00    -0.208 NA
ATOM      5  C   UNL     1       8.182   1.165   3.793  0.00  0.00    +0.180 A 
ATOM      6  S   UNL     1       8.940   2.199   4.929  0.00  0.00    -0.011 S 
ATOM      7  N   UNL     1       8.028  -0.140   4.087  0.00  0.00    -0.322 N 
ATOM      8  H   UNL     1       8.343  -0.486   4.936  0.00  0.00    +0.169 HD
ATOM      9  C   UNL     1       7.425  -0.977   3.188  0.00  0.00    +0.110 A 
ATOM     10  N   UNL     1       7.270  -2.311   3.473  0.00  0.00    -0.304 N 
ATOM     11  C   UNL     1       7.046  -3.217   2.471  0.00  0.00    +0.017 C 
ATOM     12  C   UNL     1       6.595  -2.812   1.266  0.00  0.00    +0.024 C 
ATOM     13  C   UNL     1       6.378  -3.736   0.229  0.00  0.00    +0.162 C 
ATOM     14  O   UNL     1       5.966  -3.341  -0.844  0.00  0.00    -0.292 OA
ATOM     15  C   UNL     1       6.646  -5.203   0.420  0.00  0.00    +0.086 C 
ATOM     16  C   UNL     1       7.749  -5.376   1.469  0.00  0.00    -0.023 C 
ATOM     17  C   UNL     1       7.310  -4.676   2.753  0.00  0.00    +0.058 C 
ATOM     18  C   UNL     1       7.968  -6.865   1.745  0.00  0.00    +0.011 C 
ATOM     19  C   UNL     1       9.047  -4.747   0.958  0.00  0.00    +0.011 C 
ATOM     20  N   UNL     1       6.729   1.429   0.540  0.00  0.00    -0.343 N 
ATOM     21  H   UNL     1       7.320  -2.615   4.392  0.00  0.00    +0.153 HD
ATOM     22  H   UNL     1       6.297   0.863  -0.118  0.00  0.00    +0.144 HD
ATOM     23  H   UNL     1       6.856   2.374   0.358  0.00  0.00    +0.144 HD
ENDROOT
BRANCH   1  27
ATOM     24  C   UNL     1       2.090  -0.703   1.140  0.00  0.00    +0.030 A 
ATOM     25  C   UNL     1       2.792  -0.451  -0.032  0.00  0.00    +0.023 A 
ATOM     26  C   UNL     1       4.156  -0.663  -0.076  0.00  0.00    +0.006 A 
ATOM     27  C   UNL     1       4.823  -1.126   1.043  0.00  0.00    -0.035 A 
ATOM     28  C   UNL     1       4.127  -1.379   2.211  0.00  0.00    +0.006 A 
ATOM     29  C   UNL     1       2.763  -1.163   2.264  0.00  0.00    +0.023 A 
BRANCH  24  30
ATOM     30  N   UNL     1       0.711  -0.489   1.189  0.00  0.00    -0.330 N 
BRANCH  30  32
ATOM     31  C   UNL     1      -0.019   1.526   0.010  0.00  0.00    +0.024 C 
ATOM     32  C   UNL     1       0.002  -0.004   0.002  0.00  0.00    +0.102 C 
ENDBRANCH  30  32
BRANCH  30  33
ATOM     33  C   UNL     1      -0.028  -0.750   2.427  0.00  0.00    +0.102 C 
ATOM     34  C   UNL     1      -0.511  -2.202   2.437  0.00  0.00    +0.024 C 
ENDBRANCH  30  33
ENDBRANCH  24  30
ENDBRANCH   1  27
TORSDOF 4
