REMARK  Name = ZINC43943090
REMARK  12 active torsions:
REMARK  status: ('A' for Active; 'I' for Inactive)
REMARK    1  A    between atoms: C_1  and  C_2
REMARK    2  A    between atoms: C_2  and  N_3
REMARK    3  A    between atoms: N_3  and  C_4
REMARK    4  A    between atoms: N_3  and  C_6
REMARK    5  A    between atoms: C_4  and  C_5
REMARK    6  A    between atoms: C_15  and  N_31
REMARK    7  A    between atoms: C_22  and  N_30
REMARK    8  A    between atoms: C_23  and  N_29
REMARK    9  A    between atoms: N_31  and  C_32
REMARK   10  A    between atoms: N_31  and  C_34
REMARK   11  A    between atoms: C_32  and  C_33
REMARK   12  A    between atoms: C_34  and  C_35
REMARK                            x       y       z     vdW  Elec       q    Type
REMARK                         _______ _______ _______ _____ _____    ______ ____
ROOT
ATOM      1  C   UNL     1      -0.038  -0.713  -2.373  0.00  0.00    +0.033 A 
ATOM      2  C   UNL     1      -1.411  -0.495  -2.396  0.00  0.00    +0.024 A 
ATOM      3  C   UNL     1      -2.126  -0.730  -3.553  0.00  0.00    +0.014 A 
ATOM      4  C   UNL     1      -1.483  -1.181  -4.693  0.00  0.00    +0.047 A 
ATOM      5  C   UNL     1      -0.115  -1.400  -4.676  0.00  0.00    +0.138 A 
ATOM      6  C   UNL     1       0.609  -1.160  -3.514  0.00  0.00    +0.069 A 
ATOM      7  O   UNL     1       0.536  -1.842  -5.779  0.00  0.00    -0.455 OA
ATOM      8  C   UNL     1      -0.024  -1.696  -7.004  0.00  0.00    +0.138 A 
ATOM      9  C   UNL     1       0.789  -1.751  -8.130  0.00  0.00    +0.069 A 
ATOM     10  C   UNL     1       0.236  -1.604  -9.393  0.00  0.00    +0.033 A 
ATOM     11  C   UNL     1      -1.132  -1.402  -9.530  0.00  0.00    +0.024 A 
ATOM     12  C   UNL     1      -1.936  -1.348  -8.410  0.00  0.00    +0.014 A 
ATOM     13  C   UNL     1      -1.387  -1.494  -7.147  0.00  0.00    +0.047 A 
ATOM     14  C   UNL     1      -2.286  -1.431  -5.941  0.00  0.00    +0.196 C 
ATOM     15  C   UNL     1      -3.068  -2.701  -5.810  0.00  0.00    +0.021 A 
ATOM     16  C   UNL     1      -2.676  -4.006  -5.628  0.00  0.00    +0.033 A 
ATOM     17  C   UNL     1      -3.688  -4.966  -5.544  0.00  0.00    +0.046 A 
ATOM     18  C   UNL     1      -5.036  -4.619  -5.640  0.00  0.00    +0.046 A 
ATOM     19  C   UNL     1      -5.439  -3.303  -5.823  0.00  0.00    +0.040 A 
ATOM     20  C   UNL     1      -4.427  -2.339  -5.909  0.00  0.00    +0.069 A 
ATOM     21  C   UNL     1      -4.490  -0.893  -6.096  0.00  0.00    +0.341 C 
ATOM     22  O   UNL     1      -5.513  -0.249  -6.218  0.00  0.00    -0.245 OA
ATOM     23  O   UNL     1      -3.244  -0.378  -6.113  0.00  0.00    -0.440 OA
ENDROOT
BRANCH  18  24
ATOM     24  N   UNL     1      -6.007  -5.623  -5.548  0.00  0.00    -0.357 N 
ATOM     25  H   UNL     1      -5.740  -6.547  -5.420  0.00  0.00    +0.142 HD
ATOM     26  H   UNL     1      -6.948  -5.396  -5.613  0.00  0.00    +0.142 HD
ENDBRANCH  18  24
BRANCH  17  27
ATOM     27  N   UNL     1      -3.342  -6.303  -5.360  0.00  0.00    -0.357 N 
ATOM     28  H   UNL     1      -2.409  -6.558  -5.291  0.00  0.00    +0.142 HD
ATOM     29  H   UNL     1      -4.035  -6.979  -5.300  0.00  0.00    +0.142 HD
ENDBRANCH  17  27
BRANCH   1  30
ATOM     30  N   UNL     1       0.688  -0.476  -1.203  0.00  0.00    -0.330 N 
BRANCH  30  32
ATOM     31  C   UNL     1      -0.019   1.526   0.010  0.00  0.00    +0.024 C 
ATOM     32  C   UNL     1       0.002  -0.004   0.002  0.00  0.00    +0.102 C 
ENDBRANCH  30  32
BRANCH  30  33
ATOM     33  C   UNL     1       2.135  -0.701  -1.182  0.00  0.00    +0.102 C 
ATOM     34  C   UNL     1       2.421  -2.145  -0.763  0.00  0.00    +0.024 C 
ENDBRANCH  30  33
ENDBRANCH   1  30
BRANCH  10  35
ATOM     35  N   UNL     1       1.053  -1.659 -10.525  0.00  0.00    -0.330 N 
BRANCH  35  36
ATOM     36  C   UNL     1       0.467  -1.504 -11.859  0.00  0.00    +0.102 C 
ATOM     37  C   UNL     1       0.466  -0.024 -12.246  0.00  0.00    +0.024 C 
ENDBRANCH  35  36
BRANCH  35  38
ATOM     38  C   UNL     1       2.495  -1.872 -10.378  0.00  0.00    +0.102 C 
ATOM     39  C   UNL     1       2.794  -3.372 -10.404  0.00  0.00    +0.024 C 
ENDBRANCH  35  38
ENDBRANCH  10  35
TORSDOF 8
