REMARK  Name = ZINC66467902
REMARK  10 active torsions:
REMARK  status: ('A' for Active; 'I' for Inactive)
REMARK    1  A    between atoms: C_1  and  C_2
REMARK    2  A    between atoms: C_2  and  N_17
REMARK    3  A    between atoms: N_5  and  C_8
REMARK    4  A    between atoms: C_13  and  C_14
REMARK    5  A    between atoms: N_17  and  C_18
REMARK    6  A    between atoms: C_19  and  O_21
REMARK    7  A    between atoms: O_21  and  C_22
REMARK    8  A    between atoms: C_22  and  C_23
REMARK    9  A    between atoms: C_22  and  C_24
REMARK   10  A    between atoms: C_22  and  C_25
REMARK                            x       y       z     vdW  Elec       q    Type
REMARK                         _______ _______ _______ _____ _____    ______ ____
ROOT
ATOM      1  C   UNL     1      -0.042   1.537  -0.106  0.00  0.00    +0.032 C 
ATOM      2  C   UNL     1      -0.004   0.011  -0.005  0.00  0.00    +0.040 C 
ATOM      3  C   UNL     1       0.744  -0.561  -1.212  0.00  0.00    +0.044 C 
ATOM      4  C   UNL     1       0.750  -2.091  -1.125  0.00  0.00    +0.107 C 
ATOM      5  N   UNL     1       1.308  -2.488   0.174  0.00  0.00    -0.329 N 
ATOM      6  C   UNL     1       0.721  -1.924   1.398  0.00  0.00    +0.107 C 
ATOM      7  C   UNL     1       0.715  -0.397   1.283  0.00  0.00    +0.044 C 
ENDROOT
BRANCH   5   8
ATOM      8  C   UNL     1       2.370  -3.382   0.246  0.00  0.00    +0.050 A 
ATOM      9  C   UNL     1       3.677  -2.914   0.235  0.00  0.00    +0.024 A 
ATOM     10  C   UNL     1       4.732  -3.802   0.307  0.00  0.00    +0.005 A 
ATOM     11  C   UNL     1       4.499  -5.164   0.389  0.00  0.00    +0.040 A 
ATOM     12  C   UNL     1       3.207  -5.650   0.400  0.00  0.00    +0.142 A 
ATOM     13  C   UNL     1       2.127  -4.762   0.334  0.00  0.00    +0.108 A 
ATOM     14  F   UNL     1       2.985  -6.981   0.480  0.00  0.00    -0.204 F 
BRANCH  13  15
ATOM     15  C   UNL     1       0.783  -5.257   0.351  0.00  0.00    +0.104 C 
ATOM     16  N   UNL     1      -0.282  -5.650   0.365  0.00  0.00    -0.191 NA
ENDBRANCH  13  15
ENDBRANCH   5   8
BRANCH   2  17
ATOM     17  N   UNL     1      -1.372  -0.511   0.013  0.00  0.00    -0.265 N 
ATOM     18  C   UNL     1      -1.886  -1.261  -1.136  0.00  0.00    +0.136 C 
ATOM     19  C   UNL     1      -2.159  -0.301   1.087  0.00  0.00    +0.404 C 
ATOM     20  O   UNL     1      -1.734   0.321   2.040  0.00  0.00    -0.226 OA
BRANCH  19  21
ATOM     21  O   UNL     1      -3.417  -0.781   1.104  0.00  0.00    -0.445 OA
BRANCH  21  22
ATOM     22  C   UNL     1      -4.195  -0.521   2.274  0.00  0.00    +0.107 C 
ATOM     23  C   UNL     1      -4.329   0.990   2.473  0.00  0.00    +0.055 C 
ATOM     24  C   UNL     1      -5.585  -1.139   2.110  0.00  0.00    +0.055 C 
ATOM     25  C   UNL     1      -3.504  -1.136   3.493  0.00  0.00    +0.055 C 
ENDBRANCH  21  22
ENDBRANCH  19  21
ENDBRANCH   2  17
TORSDOF 5
