REMARK  Name = ZINC36505026
REMARK  18 active torsions:
REMARK  status: ('A' for Active; 'I' for Inactive)
REMARK    1  A    between atoms: C_1  and  C_2
REMARK    2  A    between atoms: C_2  and  C_4
REMARK    3  A    between atoms: N_6  and  C_7
REMARK    4  A    between atoms: N_6  and  C_13
REMARK    5  A    between atoms: C_7  and  C_8
REMARK    6  A    between atoms: C_13  and  C_15
REMARK    7  A    between atoms: C_13  and  C_24
REMARK    8  A    between atoms: C_16  and  O_23
REMARK    9  A    between atoms: C_18  and  O_22
REMARK   10  A    between atoms: C_20  and  O_21
REMARK   11  A    between atoms: N_26  and  C_27
REMARK   12  A    between atoms: C_27  and  C_28
REMARK   13  A    between atoms: C_27  and  C_29
REMARK   14  A    between atoms: C_27  and  C_30
REMARK   15  A    between atoms: C_30  and  C_31
REMARK   16  A    between atoms: C_31  and  C_32
REMARK   17  A    between atoms: C_31  and  C_33
REMARK   18  A    between atoms: C_31  and  C_34
REMARK                            x       y       z     vdW  Elec       q    Type
REMARK                         _______ _______ _______ _____ _____    ______ ____
ROOT
ATOM      1  C   UNL     1      -0.992   1.419  -3.467  0.00  0.00    +0.200 C 
ENDROOT
BRANCH   1   2
ATOM      2  C   UNL     1       0.415   1.959  -3.426  0.00  0.00    +0.065 A 
ATOM      3  C   UNL     1       1.366   1.356  -2.616  0.00  0.00    +0.129 A 
ATOM      4  C   UNL     1       2.660   1.854  -2.579  0.00  0.00    +0.091 A 
ATOM      5  C   UNL     1       3.003   2.953  -3.352  0.00  0.00    +0.124 A 
ATOM      6  C   UNL     1       2.052   3.555  -4.162  0.00  0.00    +0.091 A 
ATOM      7  C   UNL     1       0.759   3.055  -4.202  0.00  0.00    +0.129 A 
BRANCH   7   8
ATOM      8  O   UNL     1      -0.172   3.642  -5.000  0.00  0.00    -0.506 OA
ATOM      9  H   UNL     1      -0.667   4.352  -4.569  0.00  0.00    +0.292 HD
ENDBRANCH   7   8
BRANCH   5  10
ATOM     10  O   UNL     1       4.271   3.441  -3.314  0.00  0.00    -0.507 OA
ATOM     11  H   UNL     1       4.864   3.045  -3.967  0.00  0.00    +0.292 HD
ENDBRANCH   5  10
BRANCH   3  12
ATOM     12  O   UNL     1       1.030   0.279  -1.859  0.00  0.00    -0.506 OA
ATOM     13  H   UNL     1       1.238  -0.571  -2.271  0.00  0.00    +0.292 HD
ENDBRANCH   3  12
ENDBRANCH   1   2
BRANCH   1  14
ATOM     14  C   UNL     1      -1.825   2.107  -2.416  0.00  0.00    +0.239 C 
ATOM     15  O   UNL     1      -1.783   1.727  -1.265  0.00  0.00    -0.273 OA
ATOM     16  N   UNL     1      -2.616   3.143  -2.755  0.00  0.00    -0.308 N 
ATOM     17  H   UNL     1      -2.649   3.447  -3.676  0.00  0.00    +0.149 HD
BRANCH  16  18
ATOM     18  C   UNL     1      -3.426   3.812  -1.734  0.00  0.00    +0.030 C 
ATOM     19  C   UNL     1      -4.437   2.821  -1.155  0.00  0.00    +0.031 C 
ATOM     20  C   UNL     1      -2.515   4.323  -0.615  0.00  0.00    +0.031 C 
BRANCH  18  21
ATOM     21  C   UNL     1      -4.170   4.991  -2.364  0.00  0.00    +0.031 C 
BRANCH  21  22
ATOM     22  C   UNL     1      -3.158   5.989  -2.930  0.00  0.00    -0.036 C 
ATOM     23  C   UNL     1      -2.054   5.232  -3.671  0.00  0.00    +0.010 C 
ATOM     24  C   UNL     1      -3.865   6.937  -3.901  0.00  0.00    +0.010 C 
ATOM     25  C   UNL     1      -2.543   6.797  -1.786  0.00  0.00    +0.010 C 
ENDBRANCH  21  22
ENDBRANCH  18  21
ENDBRANCH  16  18
ENDBRANCH   1  14
BRANCH   1  28
ATOM     26  C   UNL     1      -0.174  -0.828  -3.937  0.00  0.00    +0.243 C 
ATOM     27  O   UNL     1       0.086  -1.948  -3.542  0.00  0.00    -0.270 OA
ATOM     28  N   UNL     1      -0.969  -0.023  -3.205  0.00  0.00    -0.275 N 
BRANCH  26  30
ATOM     29  C   UNL     1      -0.191   0.880  -5.870  0.00  0.00    +0.048 C 
ATOM     30  C   UNL     1       0.380  -0.351  -5.214  0.00  0.00    +0.004 C 
ATOM     31  C   UNL     1       1.384  -1.006  -5.790  0.00  0.00    +0.017 C 
ENDBRANCH  26  30
BRANCH  28  32
ATOM     32  C   UNL     1      -1.810  -0.589  -2.148  0.00  0.00    +0.183 C 
BRANCH  32  33
ATOM     33  C   UNL     1      -0.982  -0.805  -0.908  0.00  0.00    +0.122 A 
ATOM     34  C   UNL     1      -0.881   0.045   0.129  0.00  0.00    +0.046 A 
ATOM     35  C   UNL     1      -0.006  -0.553   1.065  0.00  0.00    +0.041 A 
ATOM     36  C   UNL     1       0.376  -1.732   0.544  0.00  0.00    +0.195 A 
ATOM     37  O   UNL     1      -0.223  -1.883  -0.649  0.00  0.00    -0.466 OA
ENDBRANCH  32  33
ENDBRANCH  28  32
ENDBRANCH   1  28
TORSDOF 12
