REMARK  Name = ZINC41508077
REMARK  3 active torsions:
REMARK  status: ('A' for Active; 'I' for Inactive)
REMARK    1  A    between atoms: C_6  and  O_7
REMARK    2  A    between atoms: O_7  and  C_8
REMARK    3  A    between atoms: C_8  and  C_9
REMARK                            x       y       z     vdW  Elec       q    Type
REMARK                         _______ _______ _______ _____ _____    ______ ____
ROOT
ATOM      1  O   UNL     1      -1.168  -0.693   0.009  0.00  0.00    -0.487 OA
ENDROOT
BRANCH   1   7
ATOM      2  C   UNL     1      -0.017   1.389   0.010  0.00  0.00    +0.046 A 
ATOM      3  C   UNL     1       1.152   2.096   0.002  0.00  0.00    +0.019 A 
ATOM      4  C   UNL     1       2.371   1.417  -0.013  0.00  0.00    +0.066 A 
ATOM      5  C   UNL     1       2.400   0.011  -0.021  0.00  0.00    +0.142 A 
ATOM      6  C   UNL     1       1.204  -0.692  -0.013  0.00  0.00    +0.092 A 
ATOM      7  C   UNL     1       0.002  -0.004   0.002  0.00  0.00    +0.125 A 
ATOM      8  O   UNL     1       3.584  -0.633  -0.036  0.00  0.00    -0.461 OA
ATOM      9  C   UNL     1       4.754   0.017  -0.045  0.00  0.00    +0.219 A 
ATOM     10  C   UNL     1       4.841   1.360  -0.038  0.00  0.00    +0.123 A 
ATOM     11  C   UNL     1       3.654   2.141  -0.022  0.00  0.00    +0.211 A 
ATOM     12  O   UNL     1       3.696   3.360  -0.016  0.00  0.00    -0.285 OA
ATOM     13 CL   UNL     1       6.396   2.133  -0.049  0.00  0.00    -0.076 Cl
ENDBRANCH   1   7
BRANCH   1  14
ATOM     14  C   UNL     1      -2.373   0.075   0.025  0.00  0.00    +0.268 C 
BRANCH  14  15
ATOM     15  C   UNL     1      -3.560  -0.853   0.032  0.00  0.00    +0.033 A 
ATOM     16  C   UNL     1      -3.367  -2.221   0.028  0.00  0.00    +0.030 A 
ATOM     17  C   UNL     1      -4.457  -3.073   0.033  0.00  0.00    +0.042 A 
ATOM     18  C   UNL     1      -5.740  -2.557   0.040  0.00  0.00    +0.029 A 
ATOM     19  C   UNL     1      -5.937  -1.189   0.043  0.00  0.00    +0.022 A 
ATOM     20  C   UNL     1      -4.847  -0.333   0.047  0.00  0.00    +0.135 A 
ATOM     21  O   UNL     1      -5.027   1.014   0.064  0.00  0.00    -0.465 OA
ATOM     22  C   UNL     1      -6.328   1.498  -0.281  0.00  0.00    +0.394 C 
ATOM     23  O   UNL     1      -7.304   0.740   0.443  0.00  0.00    -0.339 OA
ATOM     24  C   UNL     1      -7.341  -0.638   0.047  0.00  0.00    +0.202 C 
ATOM     25 CL   UNL     1      -4.213  -4.792   0.029  0.00  0.00    -0.084 Cl
ENDBRANCH  14  15
ENDBRANCH   1  14
TORSDOF 3
