REMARK  Name = ZINC37665237
REMARK  6 active torsions:
REMARK  status: ('A' for Active; 'I' for Inactive)
REMARK    1  A    between atoms: C_1  and  N_2
REMARK    2  A    between atoms: N_2  and  C_3
REMARK    3  A    between atoms: N_2  and  C_8
REMARK    4  A    between atoms: C_3  and  C_4
REMARK    5  A    between atoms: C_13  and  C_14
REMARK    6  A    between atoms: C_15  and  C_16
REMARK                            x       y       z     vdW  Elec       q    Type
REMARK                         _______ _______ _______ _____ _____    ______ ____
ROOT
ATOM      1  C   UNL     1       0.000  -0.692  -1.204  0.00  0.00    +0.038 A 
ATOM      2  C   UNL     1       1.199  -1.026  -1.819  0.00  0.00    +0.039 A 
ATOM      3  C   UNL     1       1.194  -1.710  -3.019  0.00  0.00    +0.020 A 
ATOM      4  C   UNL     1      -0.004  -2.069  -3.620  0.00  0.00    +0.016 A 
ATOM      5  C   UNL     1      -1.204  -1.746  -3.028  0.00  0.00    +0.011 A 
ATOM      6  C   UNL     1      -1.217  -1.059  -1.807  0.00  0.00    -0.004 A 
ATOM      7 BR   UNL     1       2.833  -2.161  -3.849  0.00  0.00    -0.050 Br
ENDROOT
BRANCH   1   9
ATOM      8  C   UNL     1      -0.018   1.461   0.010  0.00  0.00    +0.129 C 
ATOM      9  N   UNL     1       0.002  -0.004   0.002  0.00  0.00    -0.324 N 
BRANCH   9  10
ATOM     10  C   UNL     1       0.024  -0.743   1.267  0.00  0.00    +0.218 C 
BRANCH  10  11
ATOM     11  C   UNL     1      -1.411  -1.020   1.720  0.00  0.00    +0.405 C 
ATOM     12  F   UNL     1      -2.069  -1.780   0.748  0.00  0.00    -0.169 F 
ATOM     13  F   UNL     1      -1.389  -1.726   2.928  0.00  0.00    -0.169 F 
ATOM     14  F   UNL     1      -2.085   0.192   1.901  0.00  0.00    -0.169 F 
ENDBRANCH  10  11
ENDBRANCH   9  10
ENDBRANCH   1   9
BRANCH   6  15
ATOM     15  C   UNL     1      -2.491  -0.718  -1.166  0.00  0.00    +0.017 C 
ATOM     16  C   UNL     1      -3.660  -1.074  -1.751  0.00  0.00    +0.096 C 
BRANCH  16  17
ATOM     17  C   UNL     1      -4.887  -0.746  -1.133  0.00  0.00    +0.380 C 
ATOM     18  O   UNL     1      -4.894  -0.139  -0.068  0.00  0.00    -0.241 OA
ATOM     19  O   UNL     1      -5.945  -1.067  -1.662  0.00  0.00    -0.241 OA
ENDBRANCH  16  17
ENDBRANCH   6  15
TORSDOF 5
