REMARK  Name = ZINC35871115
REMARK  3 active torsions:
REMARK  status: ('A' for Active; 'I' for Inactive)
REMARK    1  A    between atoms: C_6  and  C_7
REMARK    2  A    between atoms: C_12  and  C_26
REMARK    3  A    between atoms: N_19  and  C_21
REMARK                            x       y       z     vdW  Elec       q    Type
REMARK                         _______ _______ _______ _____ _____    ______ ____
ROOT
ATOM      1  C   UNL     1      -0.017   1.378   0.010  0.00  0.00    +0.014 A 
ATOM      2  C   UNL     1       1.169   2.085   0.002  0.00  0.00    +0.024 A 
ATOM      3  C   UNL     1       2.383   1.407  -0.014  0.00  0.00    +0.033 A 
ATOM      4  C   UNL     1       2.399   0.020  -0.025  0.00  0.00    -0.025 A 
ATOM      5  C   UNL     1       1.207  -0.681  -0.015  0.00  0.00    +0.017 A 
ATOM      6  C   UNL     1       0.002  -0.004   0.002  0.00  0.00    +0.055 A 
ATOM      7  C   UNL     1       3.702  -0.724  -0.051  0.00  0.00    +0.053 C 
ATOM      8  C   UNL     1       4.815   0.051   0.620  0.00  0.00    +0.125 C 
ATOM      9  C   UNL     1       4.869   1.510   0.256  0.00  0.00    +0.071 C 
ATOM     10  N   UNL     1       3.575   2.120  -0.018  0.00  0.00    -0.329 N 
ATOM     11  C   UNL     1       3.569   3.558  -0.357  0.00  0.00    +0.087 C 
ATOM     12  C   UNL     1       4.546   3.751  -1.527  0.00  0.00    -0.059 C 
ATOM     13  N   UNL     1       5.867   3.228  -1.162  0.00  0.00    +0.384 N 
ATOM     14  C   UNL     1       5.802   1.778  -0.925  0.00  0.00    -0.055 C 
ATOM     15  H   UNL     1       6.187   3.688  -0.323  0.00  0.00    -0.081 HD
ENDROOT
BRANCH  13  16
ATOM     16  C   UNL     1       6.813   3.499  -2.253  0.00  0.00    -0.068 C 
ATOM     17  C   UNL     1       8.226   3.020  -1.859  0.00  0.00    -0.015 C 
ATOM     18  C   UNL     1       9.171   4.087  -2.465  0.00  0.00    -0.002 C 
ATOM     19  C   UNL     1       8.387   5.404  -2.244  0.00  0.00    -0.002 C 
ATOM     20  C   UNL     1       6.915   5.015  -2.498  0.00  0.00    -0.015 C 
ENDBRANCH  13  16
BRANCH   6  21
ATOM     21  C   UNL     1      -1.293  -0.774   0.012  0.00  0.00    +0.417 C 
ATOM     22  F   UNL     1      -2.368   0.122   0.028  0.00  0.00    -0.166 F 
ATOM     23  F   UNL     1      -1.370  -1.573  -1.134  0.00  0.00    -0.166 F 
ATOM     24  F   UNL     1      -1.345  -1.585   1.151  0.00  0.00    -0.166 F 
ENDBRANCH   6  21
BRANCH   8  25
ATOM     25  C   UNL     1       6.131  -0.580   0.244  0.00  0.00    +0.361 C 
ATOM     26  O   UNL     1       6.152  -1.554  -0.489  0.00  0.00    -0.246 OA
ATOM     27  O   UNL     1       7.174  -0.117   0.673  0.00  0.00    -0.246 OA
ENDBRANCH   8  25
TORSDOF 3
