REMARK  Name = ZINC20885368
REMARK  9 active torsions:
REMARK  status: ('A' for Active; 'I' for Inactive)
REMARK    1  A    between atoms: C_1  and  N_2
REMARK    2  A    between atoms: N_2  and  C_3
REMARK    3  A    between atoms: N_2  and  C_6
REMARK    4  A    between atoms: C_3  and  C_4
REMARK    5  A    between atoms: C_4  and  O_5
REMARK    6  A    between atoms: C_9  and  C_12
REMARK    7  A    between atoms: N_13  and  N_14
REMARK    8  A    between atoms: C_15  and  C_17
REMARK    9  A    between atoms: C_19  and  N_25
REMARK                            x       y       z     vdW  Elec       q    Type
REMARK                         _______ _______ _______ _____ _____    ______ ____
ROOT
ATOM      1  N   UNL     1      -1.191   1.870   0.018  0.00  0.00    -0.202 N 
ATOM      2  C   UNL     1      -0.014   1.212   0.009  0.00  0.00    +0.283 C 
ATOM      3  O   UNL     1       0.002  -0.004   0.002  0.00  0.00    -0.267 OA
ATOM      4  H   UNL     1      -1.206   2.970   0.024  0.00  0.00    +0.178 HD
ENDROOT
BRANCH   2   5
ATOM      5  C   UNL     1       1.257   1.969   0.001  0.00  0.00    +0.149 A 
ATOM      6  C   UNL     1       2.468   1.283  -0.009  0.00  0.00    +0.094 A 
ATOM      7  C   UNL     1       3.658   2.011  -0.022  0.00  0.00    +0.067 A 
ATOM      8  C   UNL     1       3.581   3.403  -0.014  0.00  0.00    +0.100 A 
ATOM      9  C   UNL     1       2.337   4.013   0.001  0.00  0.00    +0.150 A 
ATOM     10  N   UNL     1       1.232   3.298   0.008  0.00  0.00    -0.228 NA
ATOM     11 CL   UNL     1       2.235   5.746   0.011  0.00  0.00    -0.060 Cl
ATOM     12 CL   UNL     1       5.029   4.362  -0.022  0.00  0.00    -0.078 Cl
ATOM     13 CL   UNL     1       2.498  -0.453  -0.011  0.00  0.00    -0.079 Cl
BRANCH   7  14
ATOM     14  N   UNL     1       4.892   1.364  -0.037  0.00  0.00    -0.356 N 
ATOM     15  H   UNL     1       5.821   1.952  -0.047  0.00  0.00    +0.142 HD
ATOM     16  H   UNL     1       4.936   0.265  -0.038  0.00  0.00    +0.142 HD
ENDBRANCH   7  14
ENDBRANCH   2   5
BRANCH   1  18
ATOM     17  C   UNL     1      -3.527   1.786   0.029  0.00  0.00    +0.138 C 
ATOM     18  N   UNL     1      -2.394   1.153   0.020  0.00  0.00    -0.187 NA
BRANCH  17  22
ATOM     19  C   UNL     1      -7.175  -0.386   0.034  0.00  0.00    +0.030 A 
ATOM     20  C   UNL     1      -7.196   1.005   0.042  0.00  0.00    +0.024 A 
ATOM     21  C   UNL     1      -6.014   1.713   0.040  0.00  0.00    +0.011 A 
ATOM     22  C   UNL     1      -4.794   1.032   0.030  0.00  0.00    -0.005 A 
ATOM     23  C   UNL     1      -4.777  -0.365   0.017  0.00  0.00    +0.011 A 
ATOM     24  C   UNL     1      -5.962  -1.067   0.024  0.00  0.00    +0.024 A 
BRANCH  19  26
ATOM     25  C   UNL     1      -9.652  -0.384   0.045  0.00  0.00    +0.129 C 
ATOM     26  N   UNL     1      -8.373  -1.100   0.035  0.00  0.00    -0.331 N 
BRANCH  26  27
ATOM     27  C   UNL     1      -8.353  -2.564   0.026  0.00  0.00    +0.132 C 
BRANCH  27  28
ATOM     28  C   UNL     1      -8.340  -3.083   1.466  0.00  0.00    +0.174 C 
BRANCH  28  29
ATOM     29  O   UNL     1      -9.563  -2.725   2.113  0.00  0.00    -0.393 OA
ATOM     30  H   UNL     1      -9.736  -3.014   3.160  0.00  0.00    +0.209 HD
ENDBRANCH  28  29
ENDBRANCH  27  28
ENDBRANCH  26  27
ENDBRANCH  19  26
ENDBRANCH  17  22
ENDBRANCH   1  18
TORSDOF 8
