REMARK  Name = ZINC11005797
REMARK  4 active torsions:
REMARK  status: ('A' for Active; 'I' for Inactive)
REMARK    1  A    between atoms: C_10  and  N_11
REMARK    2  A    between atoms: N_14  and  C_15
REMARK    3  A    between atoms: C_15  and  C_16
REMARK    4  A    between atoms: N_18  and  C_19
REMARK                            x       y       z     vdW  Elec       q    Type
REMARK                         _______ _______ _______ _____ _____    ______ ____
ROOT
ATOM      1  N   UNL     1       4.869   0.096  -0.012  0.00  0.00    -0.269 N 
ATOM      2  C   UNL     1       6.045  -0.557   0.073  0.00  0.00    +0.304 C 
ATOM      3  O   UNL     1       6.066  -1.772   0.075  0.00  0.00    -0.252 OA
ATOM      4  N   UNL     1       7.197   0.138   0.156  0.00  0.00    -0.291 N 
ATOM      5  H   UNL     1       4.856   1.063  -0.096  0.00  0.00    +0.156 HD
ATOM      6  H   UNL     1       7.180   1.107   0.154  0.00  0.00    +0.151 HD
ENDROOT
BRANCH   1  16
ATOM      7  C   UNL     1       0.191   0.933  -1.713  0.00  0.00    +0.001 A 
ATOM      8  C   UNL     1       1.377   1.663  -1.755  0.00  0.00    +0.001 A 
ATOM      9  C   UNL     1       2.520   1.175  -1.197  0.00  0.00    +0.010 A 
ATOM     10  C   UNL     1       2.506  -0.081  -0.570  0.00  0.00    +0.003 A 
ATOM     11  C   UNL     1       1.300  -0.823  -0.526  0.00  0.00    -0.016 A 
ATOM     12  C   UNL     1       0.140  -0.288  -1.113  0.00  0.00    +0.008 A 
ATOM     13  C   UNL     1       1.284  -2.080   0.102  0.00  0.00    +0.008 A 
ATOM     14  C   UNL     1       2.422  -2.574   0.663  0.00  0.00    +0.002 A 
ATOM     15  C   UNL     1       3.612  -1.854   0.626  0.00  0.00    +0.024 A 
ATOM     16  C   UNL     1       3.670  -0.618   0.019  0.00  0.00    +0.042 A 
ENDBRANCH   1  16
BRANCH   4  17
ATOM     17  C   UNL     1       8.475  -0.572   0.249  0.00  0.00    +0.202 C 
BRANCH  17  18
ATOM     18  C   UNL     1       9.600   0.427   0.330  0.00  0.00    +0.234 C 
ATOM     19  O   UNL     1       9.358   1.615   0.312  0.00  0.00    -0.274 OA
ATOM     20  N   UNL     1      10.875   0.000   0.423  0.00  0.00    -0.282 N 
ATOM     21  H   UNL     1      11.076  -0.946   0.356  0.00  0.00    +0.155 HD
BRANCH  20  22
ATOM     22  C   UNL     1      11.911   0.924   0.615  0.00  0.00    +0.072 A 
ATOM     23  C   UNL     1      11.647   2.151   1.210  0.00  0.00    +0.029 A 
ATOM     24  C   UNL     1      12.669   3.061   1.399  0.00  0.00    +0.043 A 
ATOM     25  C   UNL     1      13.957   2.753   0.996  0.00  0.00    +0.161 A 
ATOM     26  C   UNL     1      14.225   1.530   0.402  0.00  0.00    +0.195 A 
ATOM     27  C   UNL     1      13.205   0.612   0.216  0.00  0.00    +0.182 A 
ATOM     28  F   UNL     1      13.466  -0.583  -0.358  0.00  0.00    -0.200 F 
ATOM     29  F   UNL     1      15.483   1.231   0.009  0.00  0.00    -0.199 F 
ATOM     30  F   UNL     1      14.954   3.646   1.182  0.00  0.00    -0.202 F 
ENDBRANCH  20  22
ENDBRANCH  17  18
ENDBRANCH   4  17
TORSDOF 4
