REMARK  Name = ZINC41924034
REMARK  6 active torsions:
REMARK  status: ('A' for Active; 'I' for Inactive)
REMARK    1  A    between atoms: C_3  and  C_6
REMARK    2  A    between atoms: C_6  and  C_8
REMARK    3  A    between atoms: C_6  and  N_13
REMARK    4  A    between atoms: C_14  and  C_16
REMARK    5  A    between atoms: N_18  and  C_19
REMARK    6  A    between atoms: C_22  and  C_25
REMARK                            x       y       z     vdW  Elec       q    Type
REMARK                         _______ _______ _______ _____ _____    ______ ____
ROOT
ATOM      1  N   UNL     1       4.589   1.013   0.851  0.00  0.00    -0.300 N 
ATOM      2  C   UNL     1       4.646   1.272   2.172  0.00  0.00    +0.300 C 
ATOM      3  O   UNL     1       4.019   2.202   2.636  0.00  0.00    -0.265 OA
ATOM      4  H   UNL     1       5.091   0.270   0.480  0.00  0.00    +0.150 HD
ENDROOT
BRANCH   2   5
ATOM      5  C   UNL     1       5.481   0.415   3.066  0.00  0.00    +0.303 C 
ATOM      6  O   UNL     1       6.109  -0.514   2.603  0.00  0.00    -0.265 OA
ATOM      7  N   UNL     1       5.538   0.674   4.388  0.00  0.00    -0.278 N 
ATOM      8  H   UNL     1       5.091   1.456   4.748  0.00  0.00    +0.155 HD
BRANCH   7   9
ATOM      9  C   UNL     1       6.239  -0.180   5.235  0.00  0.00    +0.034 A 
ATOM     10  C   UNL     1       7.405  -0.795   4.792  0.00  0.00    +0.024 A 
ATOM     11  C   UNL     1       8.100  -1.641   5.627  0.00  0.00    +0.015 A 
ATOM     12  C   UNL     1       7.633  -1.880   6.922  0.00  0.00    +0.037 A 
ATOM     13  C   UNL     1       6.461  -1.260   7.365  0.00  0.00    +0.015 A 
ATOM     14  C   UNL     1       5.774  -0.412   6.526  0.00  0.00    +0.024 A 
BRANCH  12  15
ATOM     15  C   UNL     1       8.375  -2.786   7.821  0.00  0.00    +0.242 C 
ATOM     16  O   UNL     1       9.394  -3.325   7.434  0.00  0.00    -0.270 OA
ATOM     17  N   UNL     1       7.923  -3.016   9.069  0.00  0.00    -0.325 N 
ATOM     18  H   UNL     1       7.110  -2.586   9.378  0.00  0.00    +0.145 HD
ATOM     19  H   UNL     1       8.411  -3.611   9.660  0.00  0.00    +0.145 HD
ENDBRANCH  12  15
ENDBRANCH   7   9
ENDBRANCH   2   5
BRANCH   1  20
ATOM     20  C   UNL     1       3.770   1.854  -0.026  0.00  0.00    +0.113 C 
BRANCH  20  23
ATOM     21  C   UNL     1      -0.011   1.391   0.009  0.00  0.00    +0.008 A 
ATOM     22  C   UNL     1       1.194   2.067  -0.000  0.00  0.00    +0.013 A 
ATOM     23  C   UNL     1       2.348   1.356  -0.014  0.00  0.00    +0.010 A 
ATOM     24  S   UNL     1       1.745  -0.325  -0.015  0.00  0.00    -0.100 S 
ATOM     25  C   UNL     1      -0.004   0.035   0.003  0.00  0.00    +0.045 A 
ENDBRANCH  20  23
BRANCH  20  26
ATOM     26  C   UNL     1       4.321   1.791  -1.452  0.00  0.00    +0.014 C 
ATOM     27  C   UNL     1       4.354   0.329  -1.942  0.00  0.00    +0.006 C 
ATOM     28  C   UNL     1       5.651   0.240  -2.784  0.00  0.00    +0.000 C 
ATOM     29  C   UNL     1       6.639   1.125  -1.985  0.00  0.00    +0.000 C 
ATOM     30  C   UNL     1       5.773   2.297  -1.479  0.00  0.00    +0.006 C 
ENDBRANCH  20  26
ENDBRANCH   1  20
TORSDOF 6
