REMARK  Name = ZINC37637854
REMARK  9 active torsions:
REMARK  status: ('A' for Active; 'I' for Inactive)
REMARK    1  A    between atoms: C_1  and  O_2
REMARK    2  A    between atoms: O_2  and  C_3
REMARK    3  A    between atoms: C_6  and  N_9
REMARK    4  A    between atoms: N_9  and  C_10
REMARK    5  A    between atoms: C_10  and  N_12
REMARK    6  A    between atoms: N_12  and  N_13
REMARK    7  A    between atoms: N_13  and  C_14
REMARK    8  A    between atoms: C_14  and  N_16
REMARK    9  A    between atoms: N_16  and  C_17
REMARK                            x       y       z     vdW  Elec       q    Type
REMARK                         _______ _______ _______ _____ _____    ______ ____
ROOT
ATOM      1  N   UNL     1       3.283  -4.438  -5.295  0.00  0.00    -0.246 N 
ATOM      2  H   UNL     1       3.225  -5.395  -5.446  0.00  0.00    +0.172 HD
ENDROOT
BRANCH   1   3
ATOM      3  C   UNL     1       2.602  -3.873  -4.279  0.00  0.00    +0.151 C 
ATOM      4  S   UNL     1       1.634  -4.843  -3.253  0.00  0.00    -0.017 S 
BRANCH   3   5
ATOM      5  N   UNL     1       2.683  -2.544  -4.070  0.00  0.00    -0.296 N 
ATOM      6  H   UNL     1       3.162  -1.983  -4.699  0.00  0.00    +0.154 HD
BRANCH   5  10
ATOM      7  C   UNL     1       0.873  -0.846  -0.719  0.00  0.00    +0.120 A 
ATOM      8  C   UNL     1       1.546  -2.053  -0.606  0.00  0.00    +0.047 A 
ATOM      9  C   UNL     1       2.146  -2.616  -1.716  0.00  0.00    +0.027 A 
ATOM     10  C   UNL     1       2.075  -1.974  -2.944  0.00  0.00    +0.033 A 
ATOM     11  C   UNL     1       1.400  -0.765  -3.057  0.00  0.00    +0.027 A 
ATOM     12  C   UNL     1       0.796  -0.206  -1.948  0.00  0.00    +0.047 A 
BRANCH   7  14
ATOM     13  C   UNL     1       0.401  -1.005   1.606  0.00  0.00    +0.277 C 
ATOM     14  O   UNL     1       0.283  -0.292   0.373  0.00  0.00    -0.495 OA
ENDBRANCH   7  14
ENDBRANCH   5  10
ENDBRANCH   3   5
ENDBRANCH   1   3
BRANCH   1  15
ATOM     15  N   UNL     1       4.076  -3.644  -6.134  0.00  0.00    -0.246 N 
ATOM     16  H   UNL     1       4.134  -2.688  -5.984  0.00  0.00    +0.172 HD
BRANCH  15  17
ATOM     17  C   UNL     1       4.757  -4.209  -7.151  0.00  0.00    +0.151 C 
ATOM     18  S   UNL     1       5.726  -3.239  -8.176  0.00  0.00    -0.017 S 
BRANCH  17  19
ATOM     19  N   UNL     1       4.676  -5.538  -7.360  0.00  0.00    -0.296 N 
ATOM     20  H   UNL     1       4.064  -6.076  -6.833  0.00  0.00    +0.154 HD
BRANCH  19  21
ATOM     21  C   UNL     1       5.476  -6.143  -8.336  0.00  0.00    +0.033 A 
ATOM     22  C   UNL     1       6.801  -5.758  -8.486  0.00  0.00    +0.024 A 
ATOM     23  C   UNL     1       7.588  -6.356  -9.451  0.00  0.00    +0.017 A 
ATOM     24  C   UNL     1       7.056  -7.339 -10.267  0.00  0.00    +0.018 A 
ATOM     25  C   UNL     1       5.736  -7.725 -10.120  0.00  0.00    +0.017 A 
ATOM     26  C   UNL     1       4.946  -7.133  -9.153  0.00  0.00    +0.024 A 
ATOM     27 BR   UNL     1       8.136  -8.156 -11.587  0.00  0.00    -0.050 Br
ENDBRANCH  19  21
ENDBRANCH  17  19
ENDBRANCH  15  17
ENDBRANCH   1  15
TORSDOF 8
