REMARK  Name = ZINC56173996
REMARK  7 active torsions:
REMARK  status: ('A' for Active; 'I' for Inactive)
REMARK    1  A    between atoms: C_1  and  C_2
REMARK    2  A    between atoms: C_2  and  C_4
REMARK    3  A    between atoms: C_2  and  N_17
REMARK    4  A    between atoms: N_6  and  C_7
REMARK    5  A    between atoms: C_10  and  S_13
REMARK    6  A    between atoms: S_13  and  N_16
REMARK    7  A    between atoms: N_17  and  C_18
REMARK                            x       y       z     vdW  Elec       q    Type
REMARK                         _______ _______ _______ _____ _____    ______ ____
ROOT
ATOM      1  C   UNL     1      -1.411  -0.527   0.012  0.00  0.00    +0.237 C 
ATOM      2  O   UNL     1      -1.787  -1.242   0.917  0.00  0.00    -0.273 OA
ATOM      3  N   UNL     1      -2.256  -0.206  -0.988  0.00  0.00    -0.284 N 
ATOM      4  H   UNL     1      -1.977   0.418  -1.677  0.00  0.00    +0.155 HD
ENDROOT
BRANCH   3   5
ATOM      5  C   UNL     1      -3.534  -0.773  -1.034  0.00  0.00    +0.034 A 
ATOM      6  C   UNL     1      -4.114  -1.085  -2.257  0.00  0.00    +0.025 A 
ATOM      7  C   UNL     1      -5.376  -1.644  -2.299  0.00  0.00    +0.030 A 
ATOM      8  C   UNL     1      -6.061  -1.895  -1.124  0.00  0.00    +0.105 A 
ATOM      9  C   UNL     1      -5.487  -1.586   0.095  0.00  0.00    +0.030 A 
ATOM     10  C   UNL     1      -4.223  -1.032   0.144  0.00  0.00    +0.025 A 
BRANCH   8  11
ATOM     11  S   UNL     1      -7.671  -2.610  -1.182  0.00  0.00    +0.056 S 
ATOM     12  O   UNL     1      -8.322  -2.241   0.026  0.00  0.00    -0.153 OA
ATOM     13  O   UNL     1      -8.207  -2.301  -2.461  0.00  0.00    -0.153 OA
BRANCH  11  14
ATOM     14  N   UNL     1      -7.479  -4.254  -1.133  0.00  0.00    -0.204 NA
ATOM     15  H   UNL     1      -6.589  -4.637  -1.083  0.00  0.00    +0.144 HD
ATOM     16  H   UNL     1      -8.256  -4.834  -1.155  0.00  0.00    +0.144 HD
ENDBRANCH  11  14
ENDBRANCH   8  11
ENDBRANCH   3   5
BRANCH   1  18
ATOM     17  C   UNL     1      -0.028   1.531   0.022  0.00  0.00    +0.038 C 
ATOM     18  C   UNL     1       0.000   0.002   0.005  0.00  0.00    +0.154 C 
BRANCH  18  19
ATOM     19  N   UNL     1       0.710  -0.487   1.190  0.00  0.00    -0.333 N 
ATOM     20  H   UNL     1       0.213  -0.735   1.985  0.00  0.00    +0.147 HD
BRANCH  19  21
ATOM     21  C   UNL     1       2.103  -0.594   1.175  0.00  0.00    +0.030 A 
ATOM     22  C   UNL     1       2.816  -0.232   0.039  0.00  0.00    +0.024 A 
ATOM     23  C   UNL     1       4.193  -0.339   0.026  0.00  0.00    +0.024 A 
ATOM     24  C   UNL     1       4.864  -0.805   1.143  0.00  0.00    +0.076 A 
ATOM     25  C   UNL     1       4.156  -1.167   2.278  0.00  0.00    +0.143 A 
ATOM     26  C   UNL     1       2.777  -1.057   2.298  0.00  0.00    +0.062 A 
ATOM     27  F   UNL     1       4.812  -1.623   3.367  0.00  0.00    -0.204 F 
ATOM     28 CL   UNL     1       6.595  -0.938   1.122  0.00  0.00    -0.081 Cl
ENDBRANCH  19  21
ENDBRANCH  18  19
ENDBRANCH   1  18
TORSDOF 6
