REMARK  Name = ZINC42350503
REMARK  4 active torsions:
REMARK  status: ('A' for Active; 'I' for Inactive)
REMARK    1  A    between atoms: C_1  and  C_2
REMARK    2  A    between atoms: C_6  and  N_8
REMARK    3  A    between atoms: N_8  and  S_9
REMARK    4  A    between atoms: S_9  and  C_12
REMARK                            x       y       z     vdW  Elec       q    Type
REMARK                         _______ _______ _______ _____ _____    ______ ____
ROOT
ATOM      1  N   UNL     1       0.051  -2.796   2.394  0.00  0.00    -0.094 NA
ENDROOT
BRANCH   1   7
ATOM      2  C   UNL     1      -0.018   1.503   0.010  0.00  0.00    +0.044 C 
ATOM      3  C   UNL     1       0.002  -0.004   0.002  0.00  0.00    -0.048 A 
ATOM      4  C   UNL     1       0.006  -0.688  -1.200  0.00  0.00    +0.006 A 
ATOM      5  C   UNL     1       0.024  -2.070  -1.213  0.00  0.00    +0.040 A 
ATOM      6  C   UNL     1       0.040  -2.774  -0.022  0.00  0.00    +0.148 A 
ATOM      7  C   UNL     1       0.036  -2.088   1.188  0.00  0.00    +0.110 A 
ATOM      8  C   UNL     1       0.023  -0.700   1.195  0.00  0.00    +0.033 A 
ATOM      9  F   UNL     1       0.057  -4.125  -0.035  0.00  0.00    -0.203 F 
ENDBRANCH   1   7
BRANCH   1  10
ATOM     10  S   UNL     1       0.074  -4.451   2.383  0.00  0.00    +0.099 S 
ATOM     11  O   UNL     1      -1.169  -4.871   1.835  0.00  0.00    -0.148 OA
ATOM     12  O   UNL     1       1.322  -4.837   1.823  0.00  0.00    -0.148 OA
BRANCH  10  13
ATOM     13  C   UNL     1       0.089  -4.984   4.062  0.00  0.00    +0.161 A 
ATOM     14  C   UNL     1       0.114  -6.245   4.558  0.00  0.00    +0.052 A 
ATOM     15  C   UNL     1       0.122  -6.427   5.929  0.00  0.00    +0.025 A 
ATOM     16  C   UNL     1       0.105  -5.338   6.736  0.00  0.00    +0.048 A 
ATOM     17  S   UNL     1       0.083  -4.001   5.553  0.00  0.00    -0.076 S 
ATOM     18 BR   UNL     1       0.137  -7.734   3.392  0.00  0.00    -0.048 Br
ENDBRANCH  10  13
ENDBRANCH   1  10
TORSDOF 3
