REMARK  Name = ZINC40782284
REMARK  6 active torsions:
REMARK  status: ('A' for Active; 'I' for Inactive)
REMARK    1  A    between atoms: C_1  and  C_2
REMARK    2  A    between atoms: C_5  and  O_8
REMARK    3  A    between atoms: O_8  and  C_9
REMARK    4  A    between atoms: C_10  and  N_23
REMARK    5  A    between atoms: C_11  and  N_15
REMARK    6  A    between atoms: N_15  and  C_16
REMARK                            x       y       z     vdW  Elec       q    Type
REMARK                         _______ _______ _______ _____ _____    ______ ____
ROOT
ATOM      1  C   UNL     1       0.468  -4.746   1.178  0.00  0.00    +0.246 A 
ATOM      2  C   UNL     1       0.453  -6.140   1.221  0.00  0.00    +0.128 A 
ATOM      3  C   UNL     1       0.576  -6.762   2.466  0.00  0.00    +0.151 A 
ATOM      4  N   UNL     1       0.701  -6.007   3.554  0.00  0.00    -0.218 NA
ATOM      5  C   UNL     1       0.710  -4.692   3.468  0.00  0.00    +0.227 A 
ATOM      6  N   UNL     1       0.602  -4.067   2.313  0.00  0.00    -0.199 NA
ENDROOT
BRANCH   2   7
ATOM      7  N   UNL     1       0.318  -6.896   0.047  0.00  0.00    -0.351 N 
ATOM      8  H   UNL     1       0.234  -6.450  -0.810  0.00  0.00    +0.143 HD
ATOM      9  H   UNL     1       0.309  -7.865   0.093  0.00  0.00    +0.143 HD
ENDBRANCH   2   7
BRANCH   3  10
ATOM     10  N   UNL     1       0.566  -8.149   2.566  0.00  0.00    -0.298 N 
ATOM     11  H   UNL     1       0.551  -8.693   1.763  0.00  0.00    +0.154 HD
BRANCH  10  12
ATOM     12  C   UNL     1       0.580  -8.759   3.824  0.00  0.00    +0.032 A 
ATOM     13  C   UNL     1       1.213  -9.983   3.997  0.00  0.00    +0.024 A 
ATOM     14  C   UNL     1       1.225 -10.583   5.240  0.00  0.00    +0.017 A 
ATOM     15  C   UNL     1       0.607  -9.967   6.314  0.00  0.00    +0.018 A 
ATOM     16  C   UNL     1      -0.025  -8.747   6.144  0.00  0.00    +0.017 A 
ATOM     17  C   UNL     1      -0.036  -8.140   4.904  0.00  0.00    +0.024 A 
ATOM     18 BR   UNL     1       0.625 -10.792   8.015  0.00  0.00    -0.050 Br
ENDBRANCH  10  12
ENDBRANCH   3  10
BRANCH   1  19
ATOM     19  O   UNL     1       0.352  -4.093  -0.006  0.00  0.00    -0.436 OA
BRANCH  19  24
ATOM     20  C   UNL     1       0.928   1.510  -0.003  0.00  0.00    +0.044 C 
ATOM     21  C   UNL     1       0.774   0.011  -0.004  0.00  0.00    -0.050 A 
ATOM     22  C   UNL     1       1.881  -0.797   0.182  0.00  0.00    +0.007 A 
ATOM     23  C   UNL     1       1.742  -2.171   0.181  0.00  0.00    +0.046 A 
ATOM     24  C   UNL     1       0.491  -2.741  -0.004  0.00  0.00    +0.130 A 
ATOM     25  C   UNL     1      -0.618  -1.929  -0.190  0.00  0.00    +0.046 A 
ATOM     26  C   UNL     1      -0.475  -0.555  -0.184  0.00  0.00    +0.007 A 
ENDBRANCH  19  24
ENDBRANCH   1  19
TORSDOF 5
