REMARK  Name = ZINC45492961
REMARK  8 active torsions:
REMARK  status: ('A' for Active; 'I' for Inactive)
REMARK    1  A    between atoms: C_1  and  C_2
REMARK    2  A    between atoms: C_5  and  S_22
REMARK    3  A    between atoms: C_7  and  C_8
REMARK    4  A    between atoms: C_8  and  O_10
REMARK    5  A    between atoms: O_10  and  C_11
REMARK    6  A    between atoms: C_11  and  C_13
REMARK    7  A    between atoms: C_11  and  C_14
REMARK    8  A    between atoms: S_22  and  N_25
REMARK                            x       y       z     vdW  Elec       q    Type
REMARK                         _______ _______ _______ _____ _____    ______ ____
ROOT
ATOM      1  C   UNL     1       0.684   0.141   2.427  0.00  0.00    +0.340 C 
ATOM      2  O   UNL     1       0.470   1.335   2.491  0.00  0.00    -0.245 OA
ENDROOT
BRANCH   1   9
ATOM      3  C   UNL     1       0.270   1.670   0.006  0.00  0.00    +0.044 C 
ATOM      4  C   UNL     1       0.678   0.221  -0.062  0.00  0.00    -0.036 A 
ATOM      5  C   UNL     1       0.863  -0.389  -1.286  0.00  0.00    +0.006 A 
ATOM      6  C   UNL     1       1.238  -1.719  -1.350  0.00  0.00    +0.029 A 
ATOM      7  C   UNL     1       1.429  -2.447  -0.189  0.00  0.00    +0.106 A 
ATOM      8  C   UNL     1       1.248  -1.850   1.041  0.00  0.00    +0.043 A 
ATOM      9  C   UNL     1       0.875  -0.506   1.113  0.00  0.00    +0.064 A 
BRANCH   7  10
ATOM     10  S   UNL     1       1.906  -4.141  -0.282  0.00  0.00    +0.056 S 
ATOM     11  O   UNL     1       1.490  -4.747   0.934  0.00  0.00    -0.153 OA
ATOM     12  O   UNL     1       1.480  -4.613  -1.553  0.00  0.00    -0.153 OA
BRANCH  10  13
ATOM     13  N   UNL     1       3.561  -4.184  -0.291  0.00  0.00    -0.204 NA
ATOM     14  H   UNL     1       4.068  -3.358  -0.249  0.00  0.00    +0.144 HD
ATOM     15  H   UNL     1       4.024  -5.035  -0.339  0.00  0.00    +0.144 HD
ENDBRANCH  10  13
ENDBRANCH   7  10
ENDBRANCH   1   9
BRANCH   1  16
ATOM     16  O   UNL     1       0.748  -0.592   3.555  0.00  0.00    -0.449 OA
BRANCH  16  17
ATOM     17  C   UNL     1       0.554   0.099   4.791  0.00  0.00    +0.259 C 
ATOM     18  C   UNL     1      -0.933   0.096   5.149  0.00  0.00    +0.062 C 
BRANCH  17  19
ATOM     19  C   UNL     1       1.335  -0.590   5.880  0.00  0.00    +0.264 C 
ATOM     20  O   UNL     1       1.808  -1.689   5.685  0.00  0.00    -0.271 OA
ATOM     21  N   UNL     1       1.508   0.016   7.072  0.00  0.00    -0.221 N 
ATOM     22  C   UNL     1       0.899   1.292   7.475  0.00  0.00    +0.137 C 
ATOM     23  C   UNL     1       1.422   1.515   8.907  0.00  0.00    +0.125 C 
ATOM     24  N   UNL     1       2.271   0.340   9.159  0.00  0.00    -0.297 N 
ATOM     25  C   UNL     1       2.257  -0.451   8.078  0.00  0.00    +0.309 C 
ATOM     26  O   UNL     1       2.873  -1.497   8.016  0.00  0.00    -0.252 OA
ATOM     27  H   UNL     1       2.759   0.165   9.978  0.00  0.00    +0.150 HD
ENDBRANCH  17  19
ENDBRANCH  16  17
ENDBRANCH   1  16
TORSDOF 6
