REMARK  Name = ZINC67104135
REMARK  10 active torsions:
REMARK  status: ('A' for Active; 'I' for Inactive)
REMARK    1  A    between atoms: C_1  and  C_2
REMARK    2  A    between atoms: C_7  and  N_8
REMARK    3  A    between atoms: C_9  and  C_11
REMARK    4  A    between atoms: C_11  and  N_12
REMARK    5  A    between atoms: N_15  and  N_16
REMARK    6  A    between atoms: C_17  and  C_19
REMARK    7  A    between atoms: C_19  and  C_20
REMARK    8  A    between atoms: C_20  and  C_21
REMARK    9  A    between atoms: C_21  and  C_22
REMARK   10  A    between atoms: C_21  and  C_23
REMARK                            x       y       z     vdW  Elec       q    Type
REMARK                         _______ _______ _______ _____ _____    ______ ____
ROOT
ATOM      1  N   UNL     1      -0.241  -0.904   5.989  0.00  0.00    -0.290 N 
ATOM      2  C   UNL     1      -0.346  -0.461   7.257  0.00  0.00    +0.316 C 
ATOM      3  O   UNL     1      -0.379   0.734   7.483  0.00  0.00    -0.251 OA
ATOM      4  N   UNL     1      -0.414  -1.341   8.275  0.00  0.00    -0.218 N 
ATOM      5  H   UNL     1      -0.215  -1.857   5.808  0.00  0.00    +0.151 HD
ATOM      6  H   UNL     1      -0.489  -1.022   9.188  0.00  0.00    +0.174 HD
ENDROOT
BRANCH   4   7
ATOM      7  N   UNL     1      -0.375  -2.717   8.015  0.00  0.00    -0.233 N 
ATOM      8  C   UNL     1      -0.443  -3.598   9.033  0.00  0.00    +0.229 C 
ATOM      9  O   UNL     1      -0.537  -3.199  10.174  0.00  0.00    -0.274 OA
ATOM     10  H   UNL     1      -0.300  -3.036   7.102  0.00  0.00    +0.173 HD
BRANCH   8  11
ATOM     11  C   UNL     1      -0.402  -5.078   8.753  0.00  0.00    +0.097 C 
BRANCH  11  12
ATOM     12  C   UNL     1      -0.494  -5.849  10.071  0.00  0.00    +0.012 C 
BRANCH  12  13
ATOM     13  C   UNL     1      -0.452  -7.352   9.786  0.00  0.00    -0.017 C 
ATOM     14  C   UNL     1       0.910  -7.722   9.196  0.00  0.00    +0.007 C 
ATOM     15  C   UNL     1      -0.670  -8.124  11.089  0.00  0.00    +0.007 C 
ENDBRANCH  12  13
ENDBRANCH  11  12
ENDBRANCH   8  11
ENDBRANCH   4   7
BRANCH   1  16
ATOM     16  C   UNL     1      -0.168   0.053   4.882  0.00  0.00    +0.202 C 
BRANCH  16  18
ATOM     17  N   UNL     1       0.025  -0.014   2.417  0.00  0.00    -0.284 N 
ATOM     18  C   UNL     1      -0.056  -0.694   3.578  0.00  0.00    +0.234 C 
ATOM     19  O   UNL     1      -0.040  -1.906   3.574  0.00  0.00    -0.274 OA
ATOM     20  H   UNL     1       0.078   0.954   2.425  0.00  0.00    +0.155 HD
BRANCH  17  27
ATOM     21  C   UNL     1      -1.264   1.184   0.181  0.00  0.00    +0.045 C 
ATOM     22  C   UNL     1      -0.584  -0.158   0.084  0.00  0.00    -0.029 A 
ATOM     23  C   UNL     1      -0.569  -0.840  -1.117  0.00  0.00    +0.006 A 
ATOM     24  C   UNL     1       0.055  -2.070  -1.207  0.00  0.00    +0.015 A 
ATOM     25  C   UNL     1       0.667  -2.622  -0.095  0.00  0.00    +0.020 A 
ATOM     26  C   UNL     1       0.655  -1.944   1.109  0.00  0.00    +0.038 A 
ATOM     27  C   UNL     1       0.034  -0.706   1.201  0.00  0.00    +0.037 A 
ATOM     28 BR   UNL     1       1.518  -4.306  -0.223  0.00  0.00    -0.050 Br
ENDBRANCH  17  27
ENDBRANCH  16  18
ENDBRANCH   1  16
TORSDOF 7
