REMARK  Name = ZINC39465403
REMARK  1 active torsions:
REMARK  status: ('A' for Active; 'I' for Inactive)
REMARK    1  A    between atoms: C_5  and  O_8
REMARK                            x       y       z     vdW  Elec       q    Type
REMARK                         _______ _______ _______ _____ _____    ______ ____
ROOT
ATOM      1  C   UNL     1      -0.017   1.376   0.010  0.00  0.00    +0.023 A 
ATOM      2  C   UNL     1       1.170   2.094   0.002  0.00  0.00    -0.040 A 
ATOM      3  C   UNL     1       2.378   1.431  -0.011  0.00  0.00    -0.020 A 
ATOM      4  C   UNL     1       2.400   0.043  -0.018  0.00  0.00    +0.052 A 
ATOM      5  C   UNL     1       1.217  -0.676  -0.012  0.00  0.00    +0.131 A 
ATOM      6  C   UNL     1       0.002  -0.004   0.002  0.00  0.00    +0.060 A 
ATOM      7 BR   UNL     1      -1.620  -0.976   0.011  0.00  0.00    -0.047 Br
ATOM      8  C   UNL     1       3.694   2.164  -0.016  0.00  0.00    +0.130 C 
ATOM      9  C   UNL     1       4.643   1.480  -1.004  0.00  0.00    +0.196 C 
ATOM     10  O   UNL     1       5.935   2.113  -0.916  0.00  0.00    -0.292 OA
ATOM     11  P   UNL     1       6.006   3.735  -1.003  0.00  0.00    +0.448 P 
ATOM     12  O   UNL     1       7.300   4.250  -0.334  0.00  0.00    -0.236 OA
ATOM     13  N   UNL     1       4.681   4.283  -0.181  0.00  0.00    -0.154 NA
ATOM     14  N   UNL     1       3.514   3.571  -0.374  0.00  0.00    -0.224 NA
ATOM     15  C   UNL     1       2.438   4.182   0.421  0.00  0.00    +0.108 C 
ATOM     16  C   UNL     1       1.100   3.600   0.008  0.00  0.00    +0.052 C 
ATOM     17  O   UNL     1       5.950   4.193  -2.477  0.00  0.00    -0.126 OA
ATOM     18  H   UNL     1       4.724   5.063   0.394  0.00  0.00    +0.153 HD
ENDROOT
BRANCH   5  19
ATOM     19  O   UNL     1       1.245  -2.034  -0.019  0.00  0.00    -0.506 OA
ATOM     20  H   UNL     1       1.261  -2.432   0.862  0.00  0.00    +0.292 HD
ENDBRANCH   5  19
TORSDOF 1
