REMARK  Name = ZINC36774430
REMARK  7 active torsions:
REMARK  status: ('A' for Active; 'I' for Inactive)
REMARK    1  A    between atoms: C_1  and  C_2
REMARK    2  A    between atoms: C_2  and  O_3
REMARK    3  A    between atoms: O_3  and  C_4
REMARK    4  A    between atoms: C_4  and  C_6
REMARK    5  A    between atoms: C_7  and  C_13
REMARK    6  A    between atoms: C_13  and  S_14
REMARK    7  A    between atoms: S_14  and  C_15
REMARK                            x       y       z     vdW  Elec       q    Type
REMARK                         _______ _______ _______ _____ _____    ______ ____
ROOT
ATOM      1  S   UNL     1       2.086  -5.016   0.023  0.00  0.00    -0.080 S 
ENDROOT
BRANCH   1   2
ATOM      2  C   UNL     1       1.138  -6.345  -0.639  0.00  0.00    +0.191 A 
ATOM      3  N   UNL     1      -0.188  -6.285  -0.597  0.00  0.00    -0.207 NA
ATOM      4  C   UNL     1      -0.951  -7.252  -1.077  0.00  0.00    +0.129 A 
ATOM      5  C   UNL     1      -0.339  -8.397  -1.660  0.00  0.00    +0.051 A 
ATOM      6  C   UNL     1      -0.977  -9.578  -2.248  0.00  0.00    -0.025 A 
ATOM      7  C   UNL     1      -0.163 -10.533  -2.738  0.00  0.00    -0.004 A 
ATOM      8  S   UNL     1       1.480  -9.931  -2.453  0.00  0.00    -0.073 S 
ATOM      9  C   UNL     1       1.070  -8.393  -1.672  0.00  0.00    +0.115 A 
ATOM     10  N   UNL     1       1.763  -7.385  -1.176  0.00  0.00    -0.215 NA
ATOM     11  C   UNL     1      -0.564 -11.825  -3.382  0.00  0.00    +0.043 C 
ATOM     12  C   UNL     1      -2.046 -12.081  -3.073  0.00  0.00    +0.005 C 
ATOM     13  C   UNL     1      -2.835 -10.800  -3.357  0.00  0.00    +0.005 C 
ATOM     14  C   UNL     1      -2.494  -9.738  -2.311  0.00  0.00    +0.037 C 
ATOM     15  N   UNL     1      -2.329  -7.153  -1.014  0.00  0.00    -0.343 N 
ATOM     16  H   UNL     1      -2.745  -6.295  -0.838  0.00  0.00    +0.144 HD
ATOM     17  H   UNL     1      -2.879  -7.941  -1.145  0.00  0.00    +0.144 HD
ENDBRANCH   1   2
BRANCH   1  18
ATOM     18  C   UNL     1       0.838  -3.849   0.633  0.00  0.00    +0.128 C 
BRANCH  18  20
ATOM     19  C   UNL     1       1.546  -1.485   0.547  0.00  0.00    +0.071 C 
ATOM     20  C   UNL     1       1.523  -2.648   1.233  0.00  0.00    +0.034 C 
ATOM     21  N   UNL     1       2.110  -2.754   2.461  0.00  0.00    -0.272 N 
ATOM     22  C   UNL     1       2.740  -1.743   3.073  0.00  0.00    +0.304 C 
ATOM     23  O   UNL     1       3.233  -1.934   4.168  0.00  0.00    -0.253 OA
ATOM     24  N   UNL     1       2.846  -0.521   2.514  0.00  0.00    -0.295 N 
ATOM     25  C   UNL     1       2.250  -0.305   1.185  0.00  0.00    +0.150 C 
ATOM     26  H   UNL     1       2.068  -3.610   2.916  0.00  0.00    +0.156 HD
ATOM     27  H   UNL     1       3.306   0.197   2.975  0.00  0.00    +0.151 HD
BRANCH  19  28
ATOM     28  C   UNL     1       0.939  -1.374  -0.726  0.00  0.00    +0.338 C 
ATOM     29  O   UNL     1       1.621  -1.425  -1.732  0.00  0.00    -0.245 OA
BRANCH  28  30
ATOM     30  O   UNL     1      -0.397  -1.212  -0.824  0.00  0.00    -0.462 OA
BRANCH  30  32
ATOM     31  C   UNL     1      -2.460  -0.928  -2.051  0.00  0.00    +0.048 C 
ATOM     32  C   UNL     1      -0.943  -1.107  -2.140  0.00  0.00    +0.229 C 
ENDBRANCH  30  32
ENDBRANCH  28  30
ENDBRANCH  19  28
ENDBRANCH  18  20
ENDBRANCH   1  18
TORSDOF 6
