REMARK  Name = ZINC21320104
REMARK  8 active torsions:
REMARK  status: ('A' for Active; 'I' for Inactive)
REMARK    1  A    between atoms: C_1  and  C_2
REMARK    2  A    between atoms: C_7  and  C_8
REMARK    3  A    between atoms: C_8  and  S_9
REMARK    4  A    between atoms: S_9  and  C_10
REMARK    5  A    between atoms: N_14  and  N_15
REMARK    6  A    between atoms: N_16  and  N_17
REMARK    7  A    between atoms: C_18  and  C_19
REMARK    8  A    between atoms: C_24  and  O_25
REMARK                            x       y       z     vdW  Elec       q    Type
REMARK                         _______ _______ _______ _____ _____    ______ ____
ROOT
ATOM      1  C   UNL     1       0.639   3.495   0.015  0.00  0.00    +0.210 A 
ATOM      2  N   UNL     1      -0.673   3.477   0.027  0.00  0.00    -0.119 NA
ATOM      3  N   UNL     1      -1.088   2.139   0.018  0.00  0.00    -0.109 NA
ATOM      4  C   UNL     1      -0.017   1.383   0.010  0.00  0.00    +0.254 A 
ATOM      5  N   UNL     1       1.078   2.202   0.004  0.00  0.00    -0.211 N 
ATOM      6  N   UNL     1       0.002  -0.004   0.002  0.00  0.00    -0.204 N 
ATOM      7  H   UNL     1       0.962  -0.541  -0.010  0.00  0.00    +0.177 HD
ENDROOT
BRANCH   5   8
ATOM      8  N   UNL     1       2.383   1.797  -0.012  0.00  0.00    -0.294 N 
ATOM      9  H   UNL     1       2.626   0.725  -0.020  0.00  0.00    +0.163 HD
ATOM     10  H   UNL     1       3.190   2.544  -0.016  0.00  0.00    +0.163 HD
ENDBRANCH   5   8
BRANCH   6  11
ATOM     11  N   UNL     1      -1.202  -0.721   0.010  0.00  0.00    -0.187 NA
ATOM     12  C   UNL     1      -1.184  -2.020   0.003  0.00  0.00    +0.142 C 
BRANCH  12  13
ATOM     13  C   UNL     1      -2.450  -2.774   0.011  0.00  0.00    +0.037 A 
ATOM     14  C   UNL     1      -2.435  -4.170   0.003  0.00  0.00    +0.033 A 
ATOM     15  C   UNL     1      -3.625  -4.870   0.011  0.00  0.00    +0.042 A 
ATOM     16  C   UNL     1      -4.833  -4.193   0.027  0.00  0.00    +0.023 A 
ATOM     17  C   UNL     1      -4.860  -2.811   0.034  0.00  0.00    +0.047 A 
ATOM     18  C   UNL     1      -3.675  -2.094   0.032  0.00  0.00    +0.126 A 
ATOM     19 CL   UNL     1      -3.607  -6.606   0.001  0.00  0.00    -0.084 Cl
BRANCH  18  20
ATOM     20  O   UNL     1      -3.701  -0.735   0.044  0.00  0.00    -0.506 OA
ATOM     21  H   UNL     1      -4.663  -0.203   0.061  0.00  0.00    +0.292 HD
ENDBRANCH  18  20
ENDBRANCH  12  13
ENDBRANCH   6  11
BRANCH   1  22
ATOM     22  S   UNL     1       1.655   4.934   0.013  0.00  0.00    -0.080 S 
BRANCH  22  23
ATOM     23  C   UNL     1       0.470   6.308   0.032  0.00  0.00    +0.112 C 
BRANCH  23  30
ATOM     24  C   UNL     1       1.164   7.576  -2.470  0.00  0.00    +0.044 C 
ATOM     25  C   UNL     1       1.550   8.223  -1.165  0.00  0.00    -0.046 A 
ATOM     26  C   UNL     1       2.236   9.423  -1.164  0.00  0.00    +0.003 A 
ATOM     27  C   UNL     1       2.590  10.017   0.033  0.00  0.00    +0.000 A 
ATOM     28  C   UNL     1       2.258   9.410   1.230  0.00  0.00    +0.000 A 
ATOM     29  C   UNL     1       1.568   8.213   1.230  0.00  0.00    +0.005 A 
ATOM     30  C   UNL     1       1.218   7.616   0.032  0.00  0.00    -0.034 A 
ENDBRANCH  23  30
ENDBRANCH  22  23
ENDBRANCH   1  22
TORSDOF 7
