REMARK  Name = ZINC49474072
REMARK  1 active torsions:
REMARK  status: ('A' for Active; 'I' for Inactive)
REMARK    1  A    between atoms: C_1  and  N_2
REMARK                            x       y       z     vdW  Elec       q    Type
REMARK                         _______ _______ _______ _____ _____    ______ ____
ROOT
ATOM      1  C   UNL     1      -0.018   1.465   0.010  0.00  0.00    +0.104 C 
ATOM      2  N   UNL     1       0.002  -0.004   0.002  0.00  0.00    -0.305 NA
ATOM      3  C   UNL     1       0.593  -0.516  -1.241  0.00  0.00    +0.087 C 
ATOM      4  C   UNL     1       0.461  -2.040  -1.280  0.00  0.00    +0.060 C 
ATOM      5  C   UNL     1       1.169  -2.639  -0.065  0.00  0.00    +0.116 C 
ATOM      6  C   UNL     1       0.578  -2.052   1.216  0.00  0.00    +0.060 C 
ATOM      7  C   UNL     1       0.706  -0.527   1.180  0.00  0.00    +0.087 C 
ATOM      8  N   UNL     1       1.005  -4.103  -0.065  0.00  0.00    -0.217 NA
ATOM      9  N   UNL     1       1.640  -4.639  -1.155  0.00  0.00    -0.256 N 
ATOM     10  C   UNL     1       2.923  -4.219  -1.483  0.00  0.00    +0.195 C 
ATOM     11  N   UNL     1       3.401  -3.111  -0.999  0.00  0.00    -0.161 NA
ATOM     12  N   UNL     1       2.606  -2.340  -0.132  0.00  0.00    -0.245 N 
ATOM     13  S   UNL     1       3.912  -5.199  -2.563  0.00  0.00    -0.011 SA
ATOM     14  H   UNL     1       1.355  -4.505   0.791  0.00  0.00    +0.147 HD
ATOM     15  H   UNL     1       1.194  -5.309  -1.696  0.00  0.00    +0.168 HD
ATOM     16  H   UNL     1       2.994  -1.632   0.406  0.00  0.00    +0.170 HD
ENDROOT
TORSDOF 0
