REMARK  Name = ZINC44681459
REMARK  12 active torsions:
REMARK  status: ('A' for Active; 'I' for Inactive)
REMARK    1  A    between atoms: C_1  and  C_2
REMARK    2  A    between atoms: C_2  and  C_3
REMARK    3  A    between atoms: C_3  and  N_4
REMARK    4  A    between atoms: C_5  and  C_7
REMARK    5  A    between atoms: C_7  and  C_8
REMARK    6  A    between atoms: N_15  and  C_16
REMARK    7  A    between atoms: C_16  and  C_17
REMARK    8  A    between atoms: C_22  and  C_32
REMARK    9  A    between atoms: C_25  and  O_31
REMARK   10  A    between atoms: C_27  and  C_28
REMARK   11  A    between atoms: C_27  and  C_29
REMARK   12  A    between atoms: C_29  and  O_30
REMARK                            x       y       z     vdW  Elec       q    Type
REMARK                         _______ _______ _______ _____ _____    ______ ____
ROOT
ATOM      1  C   UNL     1       1.886  -4.614  -3.477  0.00  0.00    +0.054 C 
ATOM      2  C   UNL     1       1.023  -4.353  -4.695  0.00  0.00    +0.058 A 
ATOM      3  C   UNL     1       1.264  -5.068  -5.821  0.00  0.00    +0.015 A 
ATOM      4  S   UNL     1       0.048  -4.430  -6.941  0.00  0.00    -0.057 S 
ATOM      5  C   UNL     1      -0.656  -3.315  -5.891  0.00  0.00    +0.159 A 
ATOM      6  N   UNL     1       0.033  -3.472  -4.781  0.00  0.00    -0.229 NA
ATOM      7  N   UNL     1      -1.705  -2.443  -6.136  0.00  0.00    -0.320 N 
ATOM      8  C   UNL     1       2.292  -6.120  -6.033  0.00  0.00    +0.049 C 
ATOM      9  C   UNL     1       3.176  -6.337  -4.791  0.00  0.00    +0.011 C 
ATOM     10  C   UNL     1       2.394  -6.060  -3.513  0.00  0.00    -0.019 C 
ATOM     11  C   UNL     1       1.252  -7.063  -3.395  0.00  0.00    +0.010 C 
ATOM     12  C   UNL     1       1.831  -8.474  -3.293  0.00  0.00    +0.032 C 
ATOM     13  C   UNL     1       2.693  -8.823  -4.492  0.00  0.00    +0.123 C 
ATOM     14  C   UNL     1       3.716  -7.764  -4.870  0.00  0.00    +0.021 C 
ATOM     15  C   UNL     1       4.995  -7.943  -4.043  0.00  0.00    +0.016 C 
ATOM     16  C   UNL     1       3.288  -6.184  -2.270  0.00  0.00    +0.012 C 
ATOM     17  H   UNL     1      -2.015  -1.848  -5.436  0.00  0.00    +0.148 HD
ENDROOT
BRANCH  13  18
ATOM     18  O   UNL     1       1.860  -9.130  -5.615  0.00  0.00    -0.391 OA
ATOM     19  H   UNL     1       1.263  -9.876  -5.470  0.00  0.00    +0.210 HD
ENDBRANCH  13  18
BRANCH   1  20
ATOM     20  C   UNL     1       1.100  -4.351  -2.196  0.00  0.00    +0.106 C 
BRANCH  20  22
ATOM     21  N   UNL     1       0.070  -2.417  -1.048  0.00  0.00    -0.315 N 
ATOM     22  C   UNL     1       0.766  -2.884  -2.104  0.00  0.00    +0.214 C 
ATOM     23  O   UNL     1       1.124  -2.125  -2.979  0.00  0.00    -0.276 OA
ATOM     24  H   UNL     1      -0.215  -3.025  -0.348  0.00  0.00    +0.149 HD
BRANCH  21  25
ATOM     25  C   UNL     1      -0.254  -0.991  -0.958  0.00  0.00    +0.104 C 
BRANCH  25  27
ATOM     26  C   UNL     1      -1.381   0.761   0.420  0.00  0.00    +0.005 C 
ATOM     27  C   UNL     1      -1.042  -0.728   0.326  0.00  0.00    +0.015 C 
ENDBRANCH  25  27
ENDBRANCH  21  25
ENDBRANCH  20  22
ENDBRANCH   1  20
BRANCH   7  28
ATOM     28  C   UNL     1      -2.346  -2.421  -7.453  0.00  0.00    +0.130 C 
BRANCH  28  29
ATOM     29  C   UNL     1      -3.449  -1.394  -7.458  0.00  0.00    -0.016 C 
ATOM     30  C   UNL     1      -3.458  -0.446  -8.363  0.00  0.00    +0.005 C 
ENDBRANCH  28  29
ENDBRANCH   7  28
BRANCH  14  31
ATOM     31  C   UNL     1       4.139  -8.042  -6.337  0.00  0.00    +0.165 C 
BRANCH  31  32
ATOM     32  O   UNL     1       4.649  -9.373  -6.442  0.00  0.00    -0.394 OA
ATOM     33  H   UNL     1       4.933  -9.616  -7.334  0.00  0.00    +0.209 HD
ENDBRANCH  31  32
ENDBRANCH  14  31
TORSDOF 9
