REMARK  Name = ZINC08856918
REMARK  12 active torsions:
REMARK  status: ('A' for Active; 'I' for Inactive)
REMARK    1  A    between atoms: C_1  and  C_2
REMARK    2  A    between atoms: C_3  and  C_32
REMARK    3  A    between atoms: C_4  and  C_20
REMARK    4  A    between atoms: C_10  and  C_15
REMARK    5  A    between atoms: C_23  and  O_30
REMARK    6  A    between atoms: C_24  and  O_28
REMARK    7  A    between atoms: C_25  and  O_26
REMARK    8  A    between atoms: O_26  and  C_27
REMARK    9  A    between atoms: O_28  and  C_29
REMARK   10  A    between atoms: O_30  and  C_31
REMARK   11  A    between atoms: C_32  and  O_34
REMARK   12  A    between atoms: O_34  and  C_35
REMARK                            x       y       z     vdW  Elec       q    Type
REMARK                         _______ _______ _______ _____ _____    ______ ____
ROOT
ATOM      1  C   UNL     1       5.113   9.661   3.335  0.00  0.00    +0.061 C 
ATOM      2  C   UNL     1       4.724   8.658   2.279  0.00  0.00    +0.031 C 
ATOM      3  C   UNL     1       4.971   8.922   0.985  0.00  0.00    +0.154 C 
ATOM      4  C   UNL     1       4.603   7.947  -0.093  0.00  0.00    +0.077 C 
ATOM      5  C   UNL     1       3.603   6.935   0.408  0.00  0.00    +0.025 C 
ATOM      6  C   UNL     1       3.411   6.754   1.732  0.00  0.00    +0.049 C 
ATOM      7  N   UNL     1       4.122   7.487   2.644  0.00  0.00    -0.260 NA
ATOM      8  C   UNL     1       2.412   5.745   2.241  0.00  0.00    +0.065 C 
ATOM      9  C   UNL     1       2.298   4.586   1.251  0.00  0.00    +0.039 C 
ATOM     10  C   UNL     1       1.881   5.148  -0.113  0.00  0.00    +0.088 C 
ATOM     11  C   UNL     1       2.880   6.189  -0.539  0.00  0.00    +0.162 C 
ATOM     12  O   UNL     1       3.065   6.389  -1.723  0.00  0.00    -0.292 OA
ENDROOT
BRANCH   4  13
ATOM     13  C   UNL     1       5.848   7.228  -0.547  0.00  0.00    +0.007 A 
ATOM     14  C   UNL     1       6.627   6.549   0.371  0.00  0.00    +0.011 A 
ATOM     15  C   UNL     1       7.767   5.885  -0.041  0.00  0.00    +0.050 A 
ATOM     16  C   UNL     1       8.139   5.906  -1.377  0.00  0.00    +0.165 A 
ATOM     17  C   UNL     1       7.362   6.592  -2.302  0.00  0.00    +0.204 A 
ATOM     18  C   UNL     1       6.213   7.254  -1.885  0.00  0.00    +0.169 A 
BRANCH  18  19
ATOM     19  O   UNL     1       5.449   7.927  -2.786  0.00  0.00    -0.491 OA
ATOM     20  C   UNL     1       5.714   9.322  -2.947  0.00  0.00    +0.277 C 
ENDBRANCH  18  19
BRANCH  17  21
ATOM     21  O   UNL     1       7.724   6.616  -3.614  0.00  0.00    -0.488 OA
ATOM     22  C   UNL     1       8.668   7.613  -4.008  0.00  0.00    +0.277 C 
ENDBRANCH  17  21
BRANCH  16  23
ATOM     23  O   UNL     1       9.263   5.256  -1.781  0.00  0.00    -0.491 OA
ATOM     24  C   UNL     1      10.014   4.572  -0.775  0.00  0.00    +0.277 C 
ENDBRANCH  16  23
ENDBRANCH   4  13
BRANCH   9  25
ATOM     25  C   UNL     1       1.261   3.606   1.734  0.00  0.00    -0.006 A 
ATOM     26  C   UNL     1       1.405   2.295   2.046  0.00  0.00    +0.011 A 
ATOM     27  C   UNL     1       0.300   1.582   2.473  0.00  0.00    +0.008 A 
ATOM     28  C   UNL     1      -0.896   2.213   2.560  0.00  0.00    +0.045 A 
ATOM     29  S   UNL     1      -0.478   3.870   2.041  0.00  0.00    -0.101 S 
ENDBRANCH   9  25
BRANCH   3  30
ATOM     30  C   UNL     1       5.588  10.145   0.631  0.00  0.00    +0.317 C 
ATOM     31  O   UNL     1       6.782  10.179   0.398  0.00  0.00    -0.250 OA
BRANCH  30  32
ATOM     32  O   UNL     1       4.852  11.273   0.552  0.00  0.00    -0.461 OA
BRANCH  32  33
ATOM     33  C   UNL     1       5.522  12.455   0.110  0.00  0.00    +0.176 C 
ATOM     34  C   UNL     1       6.018  13.268   1.324  0.00  0.00    +0.044 C 
ATOM     35  C   UNL     1       5.813  14.744   0.902  0.00  0.00    +0.004 C 
ATOM     36  C   UNL     1       4.477  14.693   0.121  0.00  0.00    +0.004 C 
ATOM     37  C   UNL     1       4.542  13.362  -0.655  0.00  0.00    +0.044 C 
ENDBRANCH  32  33
ENDBRANCH  30  32
ENDBRANCH   3  30
TORSDOF 8
