REMARK  Name = ZINC42445275
REMARK  11 active torsions:
REMARK  status: ('A' for Active; 'I' for Inactive)
REMARK    1  A    between atoms: C_1  and  C_2
REMARK    2  A    between atoms: C_2  and  N_3
REMARK    3  A    between atoms: N_3  and  C_4
REMARK    4  A    between atoms: N_3  and  C_14
REMARK    5  A    between atoms: C_4  and  C_5
REMARK    6  A    between atoms: C_5  and  O_6
REMARK    7  A    between atoms: O_6  and  C_7
REMARK    8  A    between atoms: C_14  and  C_15
REMARK    9  A    between atoms: C_15  and  C_17
REMARK   10  A    between atoms: C_15  and  C_18
REMARK   11  A    between atoms: N_19  and  O_20
REMARK                            x       y       z     vdW  Elec       q    Type
REMARK                         _______ _______ _______ _____ _____    ______ ____
ROOT
ATOM      1  N   UNL     1       1.015  -0.465  -1.233  0.00  0.00    +0.382 N 
ATOM      2  H   UNL     1       0.575   0.038  -1.988  0.00  0.00    -0.082 HD
ENDROOT
BRANCH   1   4
ATOM      3  C   UNL     1      -0.906   0.126   0.166  0.00  0.00    -0.017 C 
ATOM      4  C   UNL     1       0.620   0.132   0.050  0.00  0.00    -0.082 C 
ENDBRANCH   1   4
BRANCH   1   5
ATOM      5  C   UNL     1       2.475  -0.388  -1.379  0.00  0.00    -0.037 C 
BRANCH   5   6
ATOM      6  C   UNL     1       2.896   1.075  -1.529  0.00  0.00    +0.210 C 
BRANCH   6   7
ATOM      7  O   UNL     1       2.687   1.760  -0.292  0.00  0.00    -0.494 OA
BRANCH   7   8
ATOM      8  C   UNL     1       2.924   3.098  -0.280  0.00  0.00    +0.120 A 
ATOM      9  C   UNL     1       3.344   3.740  -1.436  0.00  0.00    +0.047 A 
ATOM     10  C   UNL     1       3.585   5.100  -1.421  0.00  0.00    +0.019 A 
ATOM     11  C   UNL     1       3.407   5.822  -0.254  0.00  0.00    +0.018 A 
ATOM     12  C   UNL     1       2.989   5.184   0.900  0.00  0.00    +0.019 A 
ATOM     13  C   UNL     1       2.741   3.825   0.888  0.00  0.00    +0.047 A 
ATOM     14 BR   UNL     1       3.737   7.684  -0.237  0.00  0.00    -0.050 Br
ENDBRANCH   7   8
ENDBRANCH   6   7
ENDBRANCH   5   6
ENDBRANCH   1   5
BRANCH   1  15
ATOM     15  C   UNL     1       0.593  -1.871  -1.270  0.00  0.00    -0.068 C 
BRANCH  15  16
ATOM     16  C   UNL     1       0.919  -2.466  -2.641  0.00  0.00    +0.036 C 
ATOM     17  C   UNL     1       0.118  -1.732  -3.719  0.00  0.00    +0.013 C 
BRANCH  16  18
ATOM     18  C   UNL     1       0.556  -3.929  -2.654  0.00  0.00    +0.133 C 
ATOM     19  N   UNL     1      -0.594  -4.305  -3.107  0.00  0.00    -0.077 NA
ATOM     20  N   UNL     1       1.450  -4.864  -2.183  0.00  0.00    -0.344 N 
ATOM     21  H   UNL     1       2.313  -4.582  -1.842  0.00  0.00    +0.144 HD
ATOM     22  H   UNL     1       1.216  -5.806  -2.191  0.00  0.00    +0.144 HD
BRANCH  19  23
ATOM     23  O   UNL     1      -0.935  -5.679  -3.119  0.00  0.00    -0.408 OA
ATOM     24  H   UNL     1      -1.815  -5.863  -3.475  0.00  0.00    +0.328 HD
ENDBRANCH  19  23
ENDBRANCH  16  18
ENDBRANCH  15  16
ENDBRANCH   1  15
TORSDOF 9
