REMARK  Name = ZINC05749420
REMARK  4 active torsions:
REMARK  status: ('A' for Active; 'I' for Inactive)
REMARK    1  A    between atoms: C_3  and  O_17
REMARK    2  A    between atoms: C_4  and  O_16
REMARK    3  A    between atoms: C_6  and  C_7
REMARK    4  A    between atoms: C_7  and  C_8
REMARK                            x       y       z     vdW  Elec       q    Type
REMARK                         _______ _______ _______ _____ _____    ______ ____
ROOT
ATOM      1  C   UNL     1       2.399   0.034  -0.021  0.00  0.00    +0.007 A 
ATOM      2  C   UNL     1       1.213  -0.677  -0.013  0.00  0.00    +0.049 A 
ATOM      3  C   UNL     1       0.002  -0.004   0.002  0.00  0.00    +0.158 A 
ATOM      4  C   UNL     1      -0.017   1.388   0.010  0.00  0.00    +0.158 A 
ATOM      5  C   UNL     1       1.175   2.094   0.002  0.00  0.00    +0.053 A 
ATOM      6  C   UNL     1       2.380   1.415  -0.013  0.00  0.00    -0.041 A 
ENDROOT
BRANCH   4   7
ATOM      7  O   UNL     1      -1.203   2.053   0.019  0.00  0.00    -0.503 OA
ATOM      8  H   UNL     1      -1.542   2.241   0.905  0.00  0.00    +0.292 HD
ENDBRANCH   4   7
BRANCH   3   9
ATOM      9  O   UNL     1      -1.165  -0.702   0.009  0.00  0.00    -0.503 OA
ATOM     10  H   UNL     1      -1.511  -0.898  -0.872  0.00  0.00    +0.292 HD
ENDBRANCH   3   9
BRANCH   6  11
ATOM     11  C   UNL     1       3.676   2.185  -0.021  0.00  0.00    +0.067 C 
BRANCH  11  12
ATOM     12  C   UNL     1       4.101   2.453  -1.466  0.00  0.00    +0.165 C 
ATOM     13  C   UNL     1       5.393   3.245  -1.504  0.00  0.00    +0.241 C 
ATOM     14  O   UNL     1       6.471   2.908  -1.065  0.00  0.00    -0.273 OA
ATOM     15  N   UNL     1       5.093   4.402  -2.128  0.00  0.00    -0.239 N 
ATOM     16  C   UNL     1       3.805   4.450  -2.485  0.00  0.00    +0.307 C 
ATOM     17  O   UNL     1       3.299   5.393  -3.061  0.00  0.00    -0.252 OA
ATOM     18  N   UNL     1       3.132   3.339  -2.135  0.00  0.00    -0.287 N 
ATOM     19  H   UNL     1       5.733   5.111  -2.296  0.00  0.00    +0.159 HD
ATOM     20  H   UNL     1       2.192   3.157  -2.293  0.00  0.00    +0.151 HD
ENDBRANCH  11  12
ENDBRANCH   6  11
TORSDOF 4
