REMARK  Name = ZINC21129317
REMARK  9 active torsions:
REMARK  status: ('A' for Active; 'I' for Inactive)
REMARK    1  A    between atoms: C_1  and  C_2
REMARK    2  A    between atoms: C_2  and  C_4
REMARK    3  A    between atoms: C_2  and  S_14
REMARK    4  A    between atoms: N_6  and  C_7
REMARK    5  A    between atoms: S_14  and  C_15
REMARK    6  A    between atoms: C_18  and  C_21
REMARK    7  A    between atoms: N_19  and  N_20
REMARK    8  A    between atoms: C_24  and  O_27
REMARK    9  A    between atoms: O_27  and  C_28
REMARK                            x       y       z     vdW  Elec       q    Type
REMARK                         _______ _______ _______ _____ _____    ______ ____
ROOT
ATOM      1  C   UNL     1       2.294   0.895  -1.449  0.00  0.00    +0.209 A 
ATOM      2  N   UNL     1       1.619   0.081  -2.229  0.00  0.00    -0.121 NA
ATOM      3  N   UNL     1       2.369  -0.334  -3.187  0.00  0.00    -0.127 NA
ATOM      4  C   UNL     1       3.567   0.190  -3.078  0.00  0.00    +0.182 A 
ATOM      5  N   UNL     1       3.555   0.997  -1.964  0.00  0.00    -0.224 N 
ENDROOT
BRANCH   4   6
ATOM      6  C   UNL     1       4.713  -0.040  -3.983  0.00  0.00    +0.021 A 
ATOM      7  C   UNL     1       6.001   0.327  -3.590  0.00  0.00    +0.015 A 
ATOM      8  C   UNL     1       7.067   0.106  -4.436  0.00  0.00    +0.046 A 
ATOM      9  C   UNL     1       6.859  -0.470  -5.682  0.00  0.00    +0.127 A 
ATOM     10  C   UNL     1       5.578  -0.831  -6.080  0.00  0.00    +0.046 A 
ATOM     11  C   UNL     1       4.508  -0.619  -5.237  0.00  0.00    +0.015 A 
BRANCH   9  12
ATOM     12  O   UNL     1       7.911  -0.680  -6.516  0.00  0.00    -0.434 OA
BRANCH  12  13
ATOM     13  C   UNL     1       9.201  -0.285  -6.044  0.00  0.00    +0.541 C 
ATOM     14  F   UNL     1       9.200   1.089  -5.779  0.00  0.00    -0.166 F 
ATOM     15  F   UNL     1       9.504  -0.986  -4.872  0.00  0.00    -0.166 F 
ENDBRANCH  12  13
ENDBRANCH   9  12
ENDBRANCH   4   6
BRANCH   5  16
ATOM     16  N   UNL     1       4.589   1.743  -1.474  0.00  0.00    -0.295 N 
ATOM     17  H   UNL     1       5.562   1.739  -1.986  0.00  0.00    +0.163 HD
ATOM     18  H   UNL     1       4.449   2.349  -0.566  0.00  0.00    +0.163 HD
ENDBRANCH   5  16
BRANCH   1  19
ATOM     19  S   UNL     1       1.683   1.710  -0.010  0.00  0.00    -0.072 S 
BRANCH  19  21
ATOM     20  C   UNL     1      -0.759   1.606  -1.230  0.00  0.00    +0.029 C 
ATOM     21  C   UNL     1      -0.017   1.089   0.004  0.00  0.00    +0.137 C 
BRANCH  21  22
ATOM     22  C   UNL     1      -0.717   1.571   1.249  0.00  0.00    +0.230 C 
ATOM     23  O   UNL     1      -0.341   2.582   1.803  0.00  0.00    -0.274 OA
ATOM     24  N   UNL     1      -1.761   0.878   1.746  0.00  0.00    -0.285 N 
ATOM     25  H   UNL     1      -2.150   0.005   1.202  0.00  0.00    +0.155 HD
BRANCH  24  26
ATOM     26  C   UNL     1      -2.349   1.270   2.954  0.00  0.00    +0.033 A 
ATOM     27  C   UNL     1      -2.852   0.312   3.825  0.00  0.00    +0.024 A 
ATOM     28  C   UNL     1      -3.426   0.702   5.019  0.00  0.00    +0.017 A 
ATOM     29  C   UNL     1      -3.512   2.044   5.342  0.00  0.00    +0.018 A 
ATOM     30  C   UNL     1      -3.018   3.000   4.473  0.00  0.00    +0.017 A 
ATOM     31  C   UNL     1      -2.437   2.617   3.280  0.00  0.00    +0.024 A 
ATOM     32 BR   UNL     1      -4.306   2.573   6.975  0.00  0.00    -0.050 Br
ENDBRANCH  24  26
ENDBRANCH  21  22
ENDBRANCH  19  21
ENDBRANCH   1  19
TORSDOF 8
