REMARK  Name = ZINC38639850
REMARK  9 active torsions:
REMARK  status: ('A' for Active; 'I' for Inactive)
REMARK    1  A    between atoms: C_1  and  C_2
REMARK    2  A    between atoms: C_2  and  O_3
REMARK    3  A    between atoms: O_3  and  C_4
REMARK    4  A    between atoms: C_4  and  C_6
REMARK    5  A    between atoms: C_7  and  C_25
REMARK    6  A    between atoms: C_8  and  C_13
REMARK    7  A    between atoms: C_10  and  C_12
REMARK    8  A    between atoms: N_15  and  C_16
REMARK    9  A    between atoms: C_19  and  N_23
REMARK                            x       y       z     vdW  Elec       q    Type
REMARK                         _______ _______ _______ _____ _____    ______ ____
ROOT
ATOM      1  C   UNL     1       2.736  -5.024  -4.757  0.00  0.00    +0.266 C 
ATOM      2  O   UNL     1       2.454  -6.082  -4.232  0.00  0.00    -0.268 OA
ATOM      3  N   UNL     1       3.399  -5.008  -5.930  0.00  0.00    -0.280 N 
ATOM      4  H   UNL     1       3.565  -4.166  -6.382  0.00  0.00    +0.155 HD
ENDROOT
BRANCH   3   5
ATOM      5  C   UNL     1       3.848  -6.207  -6.496  0.00  0.00    +0.037 A 
ATOM      6  C   UNL     1       5.049  -6.239  -7.192  0.00  0.00    +0.045 A 
ATOM      7  C   UNL     1       5.493  -7.422  -7.751  0.00  0.00    +0.065 A 
ATOM      8  C   UNL     1       4.736  -8.580  -7.617  0.00  0.00    +0.062 A 
ATOM      9  C   UNL     1       3.534  -8.547  -6.921  0.00  0.00    +0.065 A 
ATOM     10  C   UNL     1       3.094  -7.365  -6.357  0.00  0.00    +0.045 A 
ATOM     11 CL   UNL     1       2.588  -9.993  -6.754  0.00  0.00    -0.082 Cl
ATOM     12 CL   UNL     1       6.994  -7.462  -8.621  0.00  0.00    -0.082 Cl
BRANCH   8  13
ATOM     13  N   UNL     1       5.185  -9.779  -8.184  0.00  0.00    -0.356 N 
ATOM     14  H   UNL     1       6.024  -9.802  -8.670  0.00  0.00    +0.142 HD
ATOM     15  H   UNL     1       4.657 -10.587  -8.090  0.00  0.00    +0.142 HD
ENDBRANCH   8  13
ENDBRANCH   3   5
BRANCH   1  18
ATOM     16  C   UNL     1       1.438  -2.345  -2.528  0.00  0.00    +0.066 C 
ATOM     17  C   UNL     1       1.626  -3.646  -2.829  0.00  0.00    -0.008 C 
ATOM     18  C   UNL     1       2.349  -3.745  -4.104  0.00  0.00    +0.124 C 
ATOM     19  N   UNL     1       2.605  -2.569  -4.585  0.00  0.00    -0.271 NA
ATOM     20  C   UNL     1       2.062  -1.563  -3.663  0.00  0.00    +0.140 C 
ATOM     21  C   UNL     1       1.001  -0.715  -4.366  0.00  0.00    +0.038 C 
ATOM     22  C   UNL     1       1.169  -4.812  -1.991  0.00  0.00    +0.047 C 
BRANCH  16  23
ATOM     23  C   UNL     1       0.761  -1.799  -1.343  0.00  0.00    +0.338 C 
ATOM     24  O   UNL     1       0.304  -2.550  -0.505  0.00  0.00    -0.245 OA
BRANCH  23  25
ATOM     25  O   UNL     1       0.648  -0.465  -1.187  0.00  0.00    -0.462 OA
BRANCH  25  27
ATOM     26  C   UNL     1      -0.053   1.526  -0.010  0.00  0.00    +0.048 C 
ATOM     27  C   UNL     1      -0.022  -0.003  -0.013  0.00  0.00    +0.229 C 
ENDBRANCH  25  27
ENDBRANCH  23  25
ENDBRANCH  16  23
ENDBRANCH   1  18
TORSDOF 6
