REMARK  Name = ZINC11727820
REMARK  5 active torsions:
REMARK  status: ('A' for Active; 'I' for Inactive)
REMARK    1  A    between atoms: C_1  and  C_2
REMARK    2  A    between atoms: C_6  and  C_15
REMARK    3  A    between atoms: C_13  and  C_14
REMARK    4  A    between atoms: C_15  and  C_17
REMARK    5  A    between atoms: C_15  and  O_18
REMARK                            x       y       z     vdW  Elec       q    Type
REMARK                         _______ _______ _______ _____ _____    ______ ____
ROOT
ATOM      1  C   UNL     1       2.471   3.924  -0.002  0.00  0.00    +0.044 C 
ATOM      2  C   UNL     1       1.165   3.172   0.007  0.00  0.00    -0.047 A 
ATOM      3  C   UNL     1      -0.014   3.863   0.021  0.00  0.00    +0.013 A 
ATOM      4  C   UNL     1      -1.226   3.165   0.030  0.00  0.00    -0.001 A 
ATOM      5  C   UNL     1      -2.507   3.874   0.045  0.00  0.00    +0.021 A 
ATOM      6  C   UNL     1      -3.650   3.145   0.035  0.00  0.00    +0.045 A 
ATOM      7  C   UNL     1      -3.594   1.735   0.028  0.00  0.00    +0.255 A 
ATOM      8  O   UNL     1      -4.634   1.099   0.030  0.00  0.00    -0.268 OA
ATOM      9  N   UNL     1      -2.423   1.075   0.019  0.00  0.00    -0.322 N 
ATOM     10  H   UNL     1      -2.420   0.105   0.014  0.00  0.00    +0.169 HD
ATOM     11  C   UNL     1      -1.225   1.757   0.017  0.00  0.00    +0.049 A 
ATOM     12  C   UNL     1      -0.013   1.076   0.008  0.00  0.00    +0.030 A 
ATOM     13  C   UNL     1       1.170   1.784   0.001  0.00  0.00    -0.046 A 
ATOM     14  C   UNL     1       2.482   1.043  -0.015  0.00  0.00    +0.044 C 
ENDROOT
BRANCH   6  15
ATOM     15  C   UNL     1      -4.986   3.843   0.045  0.00  0.00    +0.147 C 
ATOM     16  C   UNL     1      -5.727   3.545  -1.260  0.00  0.00    +0.043 C 
BRANCH  15  17
ATOM     17  O   UNL     1      -5.760   3.374   1.151  0.00  0.00    -0.387 OA
ATOM     18  H   UNL     1      -6.635   3.781   1.220  0.00  0.00    +0.210 HD
ENDBRANCH  15  17
ENDBRANCH   6  15
TORSDOF 2
