REMARK  Name = ZINC17961177
REMARK  12 active torsions:
REMARK  status: ('A' for Active; 'I' for Inactive)
REMARK    1  A    between atoms: C_1  and  C_2
REMARK    2  A    between atoms: C_5  and  S_9
REMARK    3  A    between atoms: C_7  and  C_8
REMARK    4  A    between atoms: S_9  and  N_12
REMARK    5  A    between atoms: N_12  and  C_13
REMARK    6  A    between atoms: C_16  and  C_19
REMARK    7  A    between atoms: N_21  and  C_22
REMARK    8  A    between atoms: C_22  and  C_23
REMARK    9  A    between atoms: N_25  and  C_26
REMARK   10  A    between atoms: C_27  and  C_34
REMARK   11  A    between atoms: C_29  and  C_33
REMARK   12  A    between atoms: C_31  and  C_32
REMARK                            x       y       z     vdW  Elec       q    Type
REMARK                         _______ _______ _______ _____ _____    ______ ____
ROOT
ATOM      1  C   UNL     1       3.319   1.028  -4.050  0.00  0.00    +0.048 A 
ATOM      2  C   UNL     1       4.454   0.771  -3.286  0.00  0.00    +0.025 A 
ATOM      3  C   UNL     1       5.159   1.812  -2.725  0.00  0.00    +0.015 A 
ATOM      4  C   UNL     1       4.727   3.128  -2.915  0.00  0.00    +0.037 A 
ATOM      5  C   UNL     1       3.583   3.382  -3.678  0.00  0.00    +0.015 A 
ATOM      6  C   UNL     1       2.886   2.337  -4.240  0.00  0.00    +0.025 A 
ENDROOT
BRANCH   4   7
ATOM      7  C   UNL     1       5.477   4.246  -2.311  0.00  0.00    +0.244 C 
ATOM      8  O   UNL     1       5.100   5.390  -2.477  0.00  0.00    -0.270 OA
ATOM      9  N   UNL     1       6.579   3.999  -1.576  0.00  0.00    -0.303 N 
ATOM     10  H   UNL     1       6.879   3.086  -1.443  0.00  0.00    +0.150 HD
BRANCH   9  11
ATOM     11  C   UNL     1       7.323   5.109  -0.976  0.00  0.00    +0.200 C 
BRANCH  11  12
ATOM     12  C   UNL     1       8.503   4.567  -0.211  0.00  0.00    +0.234 C 
ATOM     13  O   UNL     1       8.703   3.372  -0.171  0.00  0.00    -0.274 OA
ATOM     14  N   UNL     1       9.337   5.412   0.428  0.00  0.00    -0.284 N 
ATOM     15  H   UNL     1       9.220   6.370   0.337  0.00  0.00    +0.155 HD
BRANCH  14  16
ATOM     16  C   UNL     1      10.371   4.905   1.223  0.00  0.00    +0.039 A 
ATOM     17  C   UNL     1      11.676   5.339   1.027  0.00  0.00    -0.029 A 
ATOM     18  C   UNL     1      12.694   4.841   1.817  0.00  0.00    +0.008 A 
ATOM     19  C   UNL     1      12.416   3.904   2.795  0.00  0.00    -0.050 A 
ATOM     20  C   UNL     1      11.119   3.466   2.989  0.00  0.00    +0.008 A 
ATOM     21  C   UNL     1      10.096   3.964   2.206  0.00  0.00    -0.029 A 
ATOM     22  C   UNL     1       8.682   3.486   2.418  0.00  0.00    +0.045 C 
ATOM     23  C   UNL     1      13.530   3.358   3.651  0.00  0.00    +0.044 C 
ATOM     24  C   UNL     1      11.980   6.355  -0.043  0.00  0.00    +0.045 C 
ENDBRANCH  14  16
ENDBRANCH  11  12
ENDBRANCH   9  11
ENDBRANCH   4   7
BRANCH   1  25
ATOM     25  N   UNL     1       2.613  -0.026  -4.619  0.00  0.00    -0.216 N 
ATOM     26  H   UNL     1       1.646  -0.054  -4.552  0.00  0.00    +0.174 HD
BRANCH  25  27
ATOM     27  S   UNL     1       3.423  -1.228  -5.419  0.00  0.00    +0.072 S 
ATOM     28  O   UNL     1       4.433  -1.695  -4.536  0.00  0.00    -0.150 OA
ATOM     29  O   UNL     1       2.433  -2.088  -5.968  0.00  0.00    -0.150 OA
BRANCH  27  34
ATOM     30  C   UNL     1       6.263   1.331 -10.087  0.00  0.00    +0.044 C 
ATOM     31  C   UNL     1       5.554   0.692  -8.921  0.00  0.00    -0.047 A 
ATOM     32  C   UNL     1       4.231   0.308  -9.043  0.00  0.00    +0.005 A 
ATOM     33  C   UNL     1       3.582  -0.282  -7.975  0.00  0.00    +0.029 A 
ATOM     34  C   UNL     1       4.252  -0.481  -6.782  0.00  0.00    +0.109 A 
ATOM     35  C   UNL     1       5.574  -0.098  -6.661  0.00  0.00    +0.032 A 
ATOM     36  C   UNL     1       6.226   0.488  -7.730  0.00  0.00    -0.046 A 
ATOM     37  C   UNL     1       7.667   0.906  -7.598  0.00  0.00    +0.044 C 
ENDBRANCH  27  34
ENDBRANCH  25  27
ENDBRANCH   1  25
TORSDOF 7
