REMARK  Name = ZINC63710176
REMARK  6 active torsions:
REMARK  status: ('A' for Active; 'I' for Inactive)
REMARK    1  A    between atoms: C_1  and  C_2
REMARK    2  A    between atoms: C_7  and  C_8
REMARK    3  A    between atoms: C_8  and  S_9
REMARK    4  A    between atoms: S_9  and  C_10
REMARK    5  A    between atoms: N_20  and  C_21
REMARK    6  A    between atoms: C_26  and  C_27
REMARK                            x       y       z     vdW  Elec       q    Type
REMARK                         _______ _______ _______ _____ _____    ______ ____
ROOT
ATOM      1  C   UNL     1      -1.854   1.177   5.131  0.00  0.00    +0.261 C 
ATOM      2  N   UNL     1      -1.121   0.195   5.932  0.00  0.00    -0.230 NA
ATOM      3  C   UNL     1       0.109   0.409   6.273  0.00  0.00    +0.186 C 
ATOM      4  C   UNL     1       0.795   1.661   5.854  0.00  0.00    +0.103 C 
ATOM      5  C   UNL     1       2.047   1.561   6.372  0.00  0.00    +0.151 C 
ATOM      6  N   UNL     1       2.138   0.393   7.035  0.00  0.00    -0.155 NA
ATOM      7  N   UNL     1       1.045  -0.282   6.993  0.00  0.00    -0.129 NA
ATOM      8  C   UNL     1       0.079   2.657   5.051  0.00  0.00    +0.258 C 
ATOM      9  O   UNL     1       0.633   3.683   4.704  0.00  0.00    -0.269 OA
ATOM     10  N   UNL     1      -1.204   2.419   4.702  0.00  0.00    -0.235 N 
ENDROOT
BRANCH  10  11
ATOM     11  C   UNL     1      -1.908   3.353   3.937  0.00  0.00    +0.042 A 
ATOM     12  C   UNL     1      -2.753   4.266   4.556  0.00  0.00    +0.024 A 
ATOM     13  C   UNL     1      -3.447   5.187   3.797  0.00  0.00    +0.002 A 
ATOM     14  C   UNL     1      -3.302   5.202   2.422  0.00  0.00    +0.000 A 
ATOM     15  C   UNL     1      -2.463   4.295   1.802  0.00  0.00    +0.005 A 
ATOM     16  C   UNL     1      -1.760   3.375   2.556  0.00  0.00    -0.029 A 
ATOM     17  C   UNL     1      -0.840   2.391   1.881  0.00  0.00    +0.045 C 
ENDBRANCH  10  11
BRANCH   1  18
ATOM     18  S   UNL     1      -2.429   0.328   3.634  0.00  0.00    -0.110 S 
BRANCH  18  19
ATOM     19  C   UNL     1      -3.601  -0.909   4.255  0.00  0.00    +0.108 C 
BRANCH  19  26
ATOM     20  C   UNL     1      -2.268  -3.411   3.697  0.00  0.00    +0.044 C 
ATOM     21  C   UNL     1      -3.432  -2.971   2.847  0.00  0.00    -0.046 A 
ATOM     22  C   UNL     1      -3.865  -3.768   1.803  0.00  0.00    +0.003 A 
ATOM     23  C   UNL     1      -4.932  -3.365   1.023  0.00  0.00    +0.000 A 
ATOM     24  C   UNL     1      -5.567  -2.165   1.287  0.00  0.00    +0.000 A 
ATOM     25  C   UNL     1      -5.134  -1.369   2.331  0.00  0.00    +0.005 A 
ATOM     26  C   UNL     1      -4.069  -1.775   3.114  0.00  0.00    -0.035 A 
ENDBRANCH  19  26
ENDBRANCH  18  19
ENDBRANCH   1  18
TORSDOF 4
