REMARK  Name = ZINC43794243
REMARK  10 active torsions:
REMARK  status: ('A' for Active; 'I' for Inactive)
REMARK    1  A    between atoms: C_1  and  C_2
REMARK    2  A    between atoms: C_4  and  O_31
REMARK    3  A    between atoms: C_6  and  O_30
REMARK    4  A    between atoms: C_9  and  C_10
REMARK    5  A    between atoms: C_9  and  C_11
REMARK    6  A    between atoms: C_14  and  O_29
REMARK    7  A    between atoms: C_18  and  C_28
REMARK    8  A    between atoms: C_21  and  O_27
REMARK    9  A    between atoms: C_23  and  C_25
REMARK   10  A    between atoms: C_25  and  O_26
REMARK                            x       y       z     vdW  Elec       q    Type
REMARK                         _______ _______ _______ _____ _____    ______ ____
ROOT
ATOM      1  C   UNL     1       1.383   0.919   2.471  0.00  0.00    +0.013 C 
ATOM      2  C   UNL     1       1.120  -0.556   2.725  0.00  0.00    +0.050 C 
ATOM      3  C   UNL     1       0.320  -1.185   1.610  0.00  0.00    +0.152 C 
ATOM      4  C   UNL     1      -1.097  -1.595   1.948  0.00  0.00    +0.102 C 
ATOM      5  C   UNL     1      -1.571  -1.581   3.389  0.00  0.00    +0.042 C 
ATOM      6  C   UNL     1      -2.131  -0.570   2.410  0.00  0.00    +0.003 C 
ATOM      7  C   UNL     1      -1.764   0.900   2.558  0.00  0.00    +0.014 C 
ATOM      8  C   UNL     1      -3.579  -0.804   1.933  0.00  0.00    +0.014 C 
ATOM      9  C   UNL     1      -0.622  -1.261   4.514  0.00  0.00    +0.051 C 
ATOM     10  C   UNL     1       0.799  -0.944   4.144  0.00  0.00    +0.087 C 
ATOM     11  C   UNL     1       1.382   0.051   5.151  0.00  0.00    +0.084 C 
ATOM     12  C   UNL     1       0.491   1.285   5.199  0.00  0.00    -0.011 C 
ATOM     13  C   UNL     1      -0.271   1.278   6.289  0.00  0.00    -0.009 C 
ATOM     14  C   UNL     1      -0.002   0.100   7.115  0.00  0.00    +0.191 C 
ATOM     15  O   UNL     1      -0.667  -0.335   8.031  0.00  0.00    -0.289 OA
ATOM     16  C   UNL     1       1.321  -0.439   6.606  0.00  0.00    +0.140 C 
ATOM     17  C   UNL     1       1.413  -1.939   6.761  0.00  0.00    +0.076 C 
ATOM     18  C   UNL     1       0.136  -2.655   6.458  0.00  0.00    -0.045 C 
ATOM     19  C   UNL     1      -0.708  -2.372   5.526  0.00  0.00    -0.019 C 
ATOM     20  C   UNL     1      -1.279   2.348   6.626  0.00  0.00    +0.047 C 
ENDROOT
BRANCH  16  21
ATOM     21  O   UNL     1       2.388   0.181   7.358  0.00  0.00    -0.380 OA
ATOM     22  H   UNL     1       2.416  -0.079   8.289  0.00  0.00    +0.211 HD
ENDBRANCH  16  21
BRANCH  10  23
ATOM     23  O   UNL     1       1.528  -2.198   4.301  0.00  0.00    -0.387 OA
ATOM     24  H   UNL     1       2.483  -2.116   4.172  0.00  0.00    +0.210 HD
ENDBRANCH  10  23
BRANCH   4  25
ATOM     25  O   UNL     1      -1.605  -2.675   1.133  0.00  0.00    -0.385 OA
ATOM     26  H   UNL     1      -1.284  -2.664   0.220  0.00  0.00    +0.210 HD
ENDBRANCH   4  25
BRANCH   3  27
ATOM     27  O   UNL     1       1.035  -2.337   1.113  0.00  0.00    -0.389 OA
ATOM     28  H   UNL     1       1.913  -2.133   0.762  0.00  0.00    +0.210 HD
ENDBRANCH   3  27
BRANCH  18  29
ATOM     29  C   UNL     1      -0.205  -3.844   7.335  0.00  0.00    +0.186 C 
BRANCH  29  30
ATOM     30  O   UNL     1      -1.448  -4.408   6.912  0.00  0.00    -0.391 OA
ATOM     31  H   UNL     1      -1.728  -5.174   7.430  0.00  0.00    +0.210 HD
ENDBRANCH  29  30
ENDBRANCH  18  29
TORSDOF 6
