REMARK  Name = ZINC20324640
REMARK  8 active torsions:
REMARK  status: ('A' for Active; 'I' for Inactive)
REMARK    1  A    between atoms: C_1  and  C_2
REMARK    2  A    between atoms: C_2  and  C_3
REMARK    3  A    between atoms: C_4  and  C_17
REMARK    4  A    between atoms: N_12  and  C_13
REMARK    5  A    between atoms: C_13  and  C_14
REMARK    6  A    between atoms: C_14  and  C_15
REMARK    7  A    between atoms: C_15  and  N_16
REMARK    8  A    between atoms: C_20  and  C_23
REMARK                            x       y       z     vdW  Elec       q    Type
REMARK                         _______ _______ _______ _____ _____    ______ ____
ROOT
ATOM      1  C   UNL     1       4.854   1.053   0.298  0.00  0.00    -0.000 A 
ATOM      2  C   UNL     1       3.841   1.908   0.024  0.00  0.00    +0.005 A 
ATOM      3  C   UNL     1       2.523   1.361  -0.282  0.00  0.00    +0.055 A 
ATOM      4  C   UNL     1       1.313   2.034  -0.599  0.00  0.00    +0.131 A 
ATOM      5  N   UNL     1       0.224   1.324  -0.844  0.00  0.00    -0.220 NA
ATOM      6  C   UNL     1       0.223   0.003  -0.804  0.00  0.00    +0.224 A 
ATOM      7  N   UNL     1       1.315  -0.677  -0.516  0.00  0.00    -0.228 NA
ATOM      8  C   UNL     1       2.445  -0.047  -0.258  0.00  0.00    +0.114 A 
ATOM      9  S   UNL     1       4.092  -0.552   0.160  0.00  0.00    -0.073 S 
ATOM     10  N   UNL     1       1.274   3.416  -0.650  0.00  0.00    -0.329 N 
ATOM     11  H   UNL     1       2.201   3.997  -0.535  0.00  0.00    +0.147 HD
ENDROOT
BRANCH   2  12
ATOM     12  C   UNL     1       4.066   3.373   0.035  0.00  0.00    -0.016 A 
ATOM     13  C   UNL     1       4.773   3.980  -1.003  0.00  0.00    +0.009 A 
ATOM     14  C   UNL     1       4.974   5.345  -0.990  0.00  0.00    +0.004 A 
ATOM     15  C   UNL     1       4.485   6.110   0.054  0.00  0.00    -0.050 A 
ATOM     16  C   UNL     1       3.788   5.513   1.089  0.00  0.00    +0.004 A 
ATOM     17  C   UNL     1       3.576   4.149   1.085  0.00  0.00    +0.009 A 
ATOM     18  C   UNL     1       4.714   7.599   0.065  0.00  0.00    +0.044 C 
ENDBRANCH   2  12
BRANCH   1  20
ATOM     19  C   UNL     1       6.426   1.533   2.155  0.00  0.00    +0.009 C 
ATOM     20  C   UNL     1       6.285   1.381   0.639  0.00  0.00    +0.040 C 
ENDBRANCH   1  20
BRANCH  10  21
ATOM     21  C   UNL     1      -0.002   4.105  -0.859  0.00  0.00    +0.101 C 
BRANCH  21  22
ATOM     22  C   UNL     1       0.232   5.617  -0.875  0.00  0.00    -0.001 C 
BRANCH  22  23
ATOM     23  C   UNL     1      -1.100   6.337  -1.093  0.00  0.00    -0.085 C 
BRANCH  23  24
ATOM     24  N   UNL     1      -0.875   7.789  -1.108  0.00  0.00    +0.378 N 
ATOM     25  H   UNL     1      -1.833   8.306  -1.265  0.00  0.00    -0.090 HD
ATOM     26  H   UNL     1      -0.183   8.044  -1.924  0.00  0.00    -0.090 HD
ATOM     27  H   UNL     1      -0.441   8.103  -0.147  0.00  0.00    -0.090 HD
ENDBRANCH  23  24
ENDBRANCH  22  23
ENDBRANCH  21  22
ENDBRANCH  10  21
TORSDOF 6
