REMARK  Name = ZINC12412654
REMARK  9 active torsions:
REMARK  status: ('A' for Active; 'I' for Inactive)
REMARK    1  A    between atoms: C_1  and  C_2
REMARK    2  A    between atoms: C_2  and  O_3
REMARK    3  A    between atoms: O_3  and  C_4
REMARK    4  A    between atoms: C_4  and  C_6
REMARK    5  A    between atoms: C_7  and  C_23
REMARK    6  A    between atoms: C_12  and  C_14
REMARK    7  A    between atoms: C_18  and  N_20
REMARK    8  A    between atoms: C_23  and  S_24
REMARK    9  A    between atoms: S_24  and  C_25
REMARK                            x       y       z     vdW  Elec       q    Type
REMARK                         _______ _______ _______ _____ _____    ______ ____
ROOT
ATOM      1  C   UNL     1       2.765   0.746  -1.493  0.00  0.00    +0.079 C 
ATOM      2  C   UNL     1       2.922  -0.550  -1.841  0.00  0.00    +0.034 C 
ATOM      3  N   UNL     1       2.876  -1.542  -0.903  0.00  0.00    -0.272 N 
ATOM      4  C   UNL     1       2.677  -1.320   0.403  0.00  0.00    +0.304 C 
ATOM      5  O   UNL     1       2.652  -2.269   1.162  0.00  0.00    -0.252 OA
ATOM      6  N   UNL     1       2.504  -0.080   0.902  0.00  0.00    -0.288 N 
ATOM      7  C   UNL     1       2.537   1.060  -0.029  0.00  0.00    +0.144 C 
ATOM      8  H   UNL     1       2.993  -2.458  -1.199  0.00  0.00    +0.156 HD
ATOM      9  H   UNL     1       2.362   0.057   1.851  0.00  0.00    +0.151 HD
ENDROOT
BRANCH   7  10
ATOM     10  C   UNL     1       1.226   1.794   0.090  0.00  0.00    -0.020 A 
ATOM     11  C   UNL     1       0.047   1.086   0.223  0.00  0.00    +0.006 A 
ATOM     12  C   UNL     1      -1.156   1.759   0.326  0.00  0.00    +0.003 A 
ATOM     13  C   UNL     1      -1.179   3.141   0.307  0.00  0.00    +0.033 A 
ATOM     14  C   UNL     1       0.001   3.850   0.174  0.00  0.00    +0.127 A 
ATOM     15  C   UNL     1       1.203   3.176   0.065  0.00  0.00    +0.038 A 
BRANCH  14  16
ATOM     16  N   UNL     1      -0.024   5.329   0.149  0.00  0.00    +0.056 N 
ATOM     17  O   UNL     1       1.015   5.954   0.032  0.00  0.00    -0.126 OA
ATOM     18  O   UNL     1      -1.083   5.923   0.245  0.00  0.00    -0.126 OA
ENDBRANCH  14  16
ENDBRANCH   7  10
BRANCH   1  19
ATOM     19  C   UNL     1       2.812   1.774  -2.464  0.00  0.00    +0.339 C 
ATOM     20  O   UNL     1       3.822   2.440  -2.595  0.00  0.00    -0.245 OA
BRANCH  19  21
ATOM     21  O   UNL     1       1.738   2.015  -3.243  0.00  0.00    -0.462 OA
BRANCH  21  23
ATOM     22  C   UNL     1       0.547   3.193  -4.987  0.00  0.00    +0.048 C 
ATOM     23  C   UNL     1       1.855   3.069  -4.202  0.00  0.00    +0.229 C 
ENDBRANCH  21  23
ENDBRANCH  19  21
ENDBRANCH   1  19
BRANCH   2  24
ATOM     24  C   UNL     1       3.153  -0.907  -3.287  0.00  0.00    +0.127 C 
BRANCH  24  25
ATOM     25  S   UNL     1       4.899  -1.331  -3.534  0.00  0.00    -0.091 S 
BRANCH  25  26
ATOM     26  C   UNL     1       5.005  -1.719  -5.249  0.00  0.00    +0.160 A 
ATOM     27  N   UNL     1       4.057  -1.719  -6.166  0.00  0.00    -0.133 NA
ATOM     28  N   UNL     1       4.361  -2.054  -7.465  0.00  0.00    -0.125 NA
ATOM     29  C   UNL     1       5.597  -2.385  -7.785  0.00  0.00    +0.180 A 
ATOM     30  S   UNL     1       6.423  -2.225  -6.210  0.00  0.00    -0.025 S 
ATOM     31  N   UNL     1       6.117  -2.759  -9.019  0.00  0.00    -0.336 N 
ATOM     32  H   UNL     1       7.058  -2.977  -9.102  0.00  0.00    +0.144 HD
ATOM     33  H   UNL     1       5.539  -2.802  -9.796  0.00  0.00    +0.144 HD
ENDBRANCH  25  26
ENDBRANCH  24  25
ENDBRANCH   2  24
TORSDOF 8
