REMARK  Name = ZINC22024024
REMARK  7 active torsions:
REMARK  status: ('A' for Active; 'I' for Inactive)
REMARK    1  A    between atoms: C_1  and  C_2
REMARK    2  A    between atoms: C_2  and  C_4
REMARK    3  A    between atoms: C_2  and  N_16
REMARK    4  A    between atoms: N_6  and  C_7
REMARK    5  A    between atoms: C_10  and  N_14
REMARK    6  A    between atoms: N_16  and  S_17
REMARK    7  A    between atoms: S_17  and  C_20
REMARK                            x       y       z     vdW  Elec       q    Type
REMARK                         _______ _______ _______ _____ _____    ______ ____
ROOT
ATOM      1  C   UNL     1      -2.373   1.369   3.027  0.00  0.00    +0.236 C 
ATOM      2  O   UNL     1      -1.812   0.618   3.796  0.00  0.00    -0.274 OA
ATOM      3  N   UNL     1      -2.711   2.612   3.426  0.00  0.00    -0.284 N 
ATOM      4  H   UNL     1      -3.146   3.321   2.707  0.00  0.00    +0.155 HD
ENDROOT
BRANCH   3   5
ATOM      5  C   UNL     1      -2.506   3.001   4.757  0.00  0.00    +0.036 A 
ATOM      6  C   UNL     1      -3.405   3.860   5.374  0.00  0.00    +0.045 A 
ATOM      7  C   UNL     1      -3.207   4.240   6.688  0.00  0.00    +0.065 A 
ATOM      8  C   UNL     1      -2.102   3.770   7.388  0.00  0.00    +0.062 A 
ATOM      9  C   UNL     1      -1.200   2.914   6.768  0.00  0.00    +0.065 A 
ATOM     10  C   UNL     1      -1.403   2.531   5.455  0.00  0.00    +0.045 A 
ATOM     11 CL   UNL     1       0.180   2.326   7.641  0.00  0.00    -0.082 Cl
ATOM     12 CL   UNL     1      -4.334   5.309   7.462  0.00  0.00    -0.082 Cl
BRANCH   8  13
ATOM     13  N   UNL     1      -1.898   4.159   8.717  0.00  0.00    -0.356 N 
ATOM     14  H   UNL     1      -1.024   3.787   9.271  0.00  0.00    +0.142 HD
ATOM     15  H   UNL     1      -2.612   4.836   9.208  0.00  0.00    +0.142 HD
ENDBRANCH   8  13
ENDBRANCH   3   5
BRANCH   1  17
ATOM     16  C   UNL     1      -4.206   0.976   1.404  0.00  0.00    +0.035 C 
ATOM     17  C   UNL     1      -2.694   0.914   1.627  0.00  0.00    +0.159 C 
BRANCH  17  18
ATOM     18  N   UNL     1      -2.228  -0.463   1.443  0.00  0.00    -0.178 NA
ATOM     19  H   UNL     1      -2.171  -1.144   2.305  0.00  0.00    +0.149 HD
BRANCH  18  20
ATOM     20  S   UNL     1      -1.558  -0.924   0.001  0.00  0.00    +0.062 S 
ATOM     21  O   UNL     1      -1.279  -2.313   0.108  0.00  0.00    -0.153 OA
ATOM     22  O   UNL     1      -0.553   0.033  -0.305  0.00  0.00    -0.153 OA
BRANCH  20  23
ATOM     23  C   UNL     1      -2.806  -0.755  -1.232  0.00  0.00    +0.140 A 
ATOM     24  C   UNL     1      -2.647   0.161  -2.255  0.00  0.00    +0.031 A 
ATOM     25  C   UNL     1      -3.626   0.293  -3.222  0.00  0.00    +0.002 A 
ATOM     26  C   UNL     1      -4.764  -0.490  -3.168  0.00  0.00    +0.003 A 
ATOM     27  C   UNL     1      -4.924  -1.406  -2.146  0.00  0.00    +0.040 A 
ATOM     28  C   UNL     1      -3.945  -1.540  -1.176  0.00  0.00    +0.150 A 
ATOM     29  F   UNL     1      -4.098  -2.439  -0.180  0.00  0.00    -0.203 F 
ENDBRANCH  20  23
ENDBRANCH  18  20
ENDBRANCH  17  18
ENDBRANCH   1  17
TORSDOF 6
