REMARK  Name = ZINC56604186
REMARK  9 active torsions:
REMARK  status: ('A' for Active; 'I' for Inactive)
REMARK    1  A    between atoms: C_1  and  C_2
REMARK    2  A    between atoms: C_2  and  C_3
REMARK    3  A    between atoms: C_2  and  C_4
REMARK    4  A    between atoms: C_2  and  C_20
REMARK    5  A    between atoms: C_4  and  N_5
REMARK    6  A    between atoms: N_8  and  C_9
REMARK    7  A    between atoms: C_14  and  S_15
REMARK    8  A    between atoms: S_15  and  C_16
REMARK    9  A    between atoms: C_16  and  C_17
REMARK                            x       y       z     vdW  Elec       q    Type
REMARK                         _______ _______ _______ _____ _____    ______ ____
ROOT
ATOM      1  N   UNL     1      -2.114  -0.076   1.226  0.00  0.00    -0.298 N 
ATOM      2  C   UNL     1      -3.401  -0.411   1.445  0.00  0.00    +0.304 C 
ATOM      3  O   UNL     1      -3.992  -1.111   0.645  0.00  0.00    -0.253 OA
ATOM      4  N   UNL     1      -4.034   0.029   2.551  0.00  0.00    -0.268 N 
ATOM      5  H   UNL     1      -1.643   0.482   1.864  0.00  0.00    +0.150 HD
ATOM      6  H   UNL     1      -3.545   0.533   3.221  0.00  0.00    +0.156 HD
ENDROOT
BRANCH   4   7
ATOM      7  C   UNL     1      -5.397  -0.240   2.733  0.00  0.00    +0.048 A 
ATOM      8  C   UNL     1      -5.935  -1.437   2.284  0.00  0.00    +0.024 A 
ATOM      9  C   UNL     1      -7.281  -1.700   2.464  0.00  0.00    +0.002 A 
ATOM     10  C   UNL     1      -8.094  -0.774   3.091  0.00  0.00    +0.001 A 
ATOM     11  C   UNL     1      -7.566   0.421   3.542  0.00  0.00    +0.016 A 
ATOM     12  C   UNL     1      -6.216   0.692   3.371  0.00  0.00    +0.030 A 
BRANCH  12  13
ATOM     13  S   UNL     1      -5.538   2.211   3.952  0.00  0.00    -0.114 S 
BRANCH  13  14
ATOM     14  C   UNL     1      -6.955   3.069   4.691  0.00  0.00    +0.169 C 
BRANCH  14  15
ATOM     15  C   UNL     1      -6.508   4.402   5.234  0.00  0.00    +0.221 C 
ATOM     16  O   UNL     1      -5.348   4.740   5.132  0.00  0.00    -0.275 OA
ATOM     17  N   UNL     1      -7.398   5.218   5.832  0.00  0.00    -0.329 N 
ATOM     18  H   UNL     1      -8.326   4.948   5.914  0.00  0.00    +0.145 HD
ATOM     19  H   UNL     1      -7.110   6.076   6.182  0.00  0.00    +0.145 HD
ENDBRANCH  14  15
ENDBRANCH  13  14
ENDBRANCH  12  13
ENDBRANCH   4   7
BRANCH   1  20
ATOM     20  C   UNL     1      -1.427  -0.554   0.024  0.00  0.00    +0.116 C 
BRANCH  20  22
ATOM     21  C   UNL     1       0.002   1.496   0.025  0.00  0.00    +0.017 C 
ATOM     22  C   UNL     1       0.012  -0.035   0.018  0.00  0.00    +0.006 C 
ATOM     23  C   UNL     1       0.744  -0.545   1.262  0.00  0.00    +0.017 C 
BRANCH  22  24
ATOM     24  C   UNL     1       0.719  -0.527  -1.218  0.00  0.00    -0.040 A 
ATOM     25  C   UNL     1       0.046  -1.318  -2.130  0.00  0.00    +0.005 A 
ATOM     26  C   UNL     1       0.694  -1.769  -3.264  0.00  0.00    +0.020 A 
ATOM     27  C   UNL     1       2.017  -1.430  -3.487  0.00  0.00    +0.041 A 
ATOM     28  C   UNL     1       2.690  -0.639  -2.573  0.00  0.00    +0.020 A 
ATOM     29  C   UNL     1       2.039  -0.183  -1.442  0.00  0.00    +0.005 A 
ATOM     30 CL   UNL     1       2.831  -1.998  -4.911  0.00  0.00    -0.084 Cl
ENDBRANCH  22  24
ENDBRANCH  20  22
ENDBRANCH   1  20
TORSDOF 7
