REMARK  Name = ZINC04144332
REMARK  7 active torsions:
REMARK  status: ('A' for Active; 'I' for Inactive)
REMARK    1  A    between atoms: C_4  and  O_7
REMARK    2  A    between atoms: O_7  and  C_8
REMARK    3  A    between atoms: C_12  and  C_14
REMARK    4  A    between atoms: C_16  and  C_28
REMARK    5  A    between atoms: C_18  and  C_23
REMARK    6  A    between atoms: C_18  and  O_27
REMARK    7  A    between atoms: C_28  and  C_30
REMARK                            x       y       z     vdW  Elec       q    Type
REMARK                         _______ _______ _______ _____ _____    ______ ____
ROOT
ATOM      1  C   UNL     1      -1.270  -1.204   0.311  0.00  0.00    +0.120 C 
ATOM      2  C   UNL     1      -1.928  -1.282  -1.071  0.00  0.00    +0.144 C 
ATOM      3  C   UNL     1      -3.353  -1.821  -0.903  0.00  0.00    +0.243 C 
ATOM      4  N   UNL     1      -4.077  -0.975   0.048  0.00  0.00    -0.264 N 
ATOM      5  C   UNL     1      -3.436  -0.323   1.029  0.00  0.00    +0.302 C 
ATOM      6  O   UNL     1      -4.086   0.358   1.798  0.00  0.00    -0.253 OA
ATOM      7  N   UNL     1      -2.107  -0.393   1.197  0.00  0.00    -0.292 N 
ATOM      8  H   UNL     1      -5.039  -0.885  -0.034  0.00  0.00    +0.153 HD
ATOM      9  H   UNL     1      -1.691   0.104   1.919  0.00  0.00    +0.151 HD
ENDROOT
BRANCH   1  14
ATOM     10  C   UNL     1       2.469  -0.785  -0.038  0.00  0.00    +0.129 A 
ATOM     11  C   UNL     1       2.591   0.598  -0.045  0.00  0.00    +0.046 A 
ATOM     12  C   UNL     1       1.464   1.389   0.063  0.00  0.00    +0.004 A 
ATOM     13  C   UNL     1       0.216   0.805   0.178  0.00  0.00    +0.006 A 
ATOM     14  C   UNL     1       0.092  -0.571   0.185  0.00  0.00    -0.023 A 
ATOM     15  C   UNL     1       1.216  -1.368   0.078  0.00  0.00    +0.051 A 
BRANCH  10  16
ATOM     16  O   UNL     1       3.576  -1.566  -0.143  0.00  0.00    -0.456 OA
BRANCH  16  20
ATOM     17  C   UNL     1       4.372  -3.316  -3.793  0.00  0.00    +0.000 A 
ATOM     18  C   UNL     1       5.146  -3.633  -2.692  0.00  0.00    +0.004 A 
ATOM     19  C   UNL     1       4.882  -3.048  -1.469  0.00  0.00    +0.046 A 
ATOM     20  C   UNL     1       3.838  -2.142  -1.345  0.00  0.00    +0.128 A 
ATOM     21  C   UNL     1       3.059  -1.830  -2.450  0.00  0.00    +0.046 A 
ATOM     22  C   UNL     1       3.331  -2.413  -3.672  0.00  0.00    +0.004 A 
ENDBRANCH  16  20
ENDBRANCH  10  16
ENDBRANCH   1  14
BRANCH   3  23
ATOM     23  C   UNL     1      -4.070  -1.800  -2.255  0.00  0.00    +0.436 C 
ATOM     24  F   UNL     1      -3.303  -2.490  -3.200  0.00  0.00    -0.166 F 
ATOM     25  F   UNL     1      -5.320  -2.415  -2.129  0.00  0.00    -0.166 F 
ATOM     26  F   UNL     1      -4.242  -0.475  -2.671  0.00  0.00    -0.166 F 
ENDBRANCH   3  23
BRANCH   3  27
ATOM     27  O   UNL     1      -3.302  -3.160  -0.409  0.00  0.00    -0.364 OA
ATOM     28  H   UNL     1      -4.171  -3.564  -0.278  0.00  0.00    +0.212 HD
ENDBRANCH   3  27
BRANCH   2  29
ATOM     29  C   UNL     1      -1.975   0.092  -1.688  0.00  0.00    +0.173 C 
ATOM     30  O   UNL     1      -2.646   0.963  -1.176  0.00  0.00    -0.292 OA
BRANCH  29  31
ATOM     31  C   UNL     1      -1.209   0.376  -2.909  0.00  0.00    +0.018 A 
ATOM     32  C   UNL     1      -0.530  -0.655  -3.569  0.00  0.00    +0.014 A 
ATOM     33  C   UNL     1       0.181  -0.383  -4.717  0.00  0.00    +0.039 A 
ATOM     34  C   UNL     1       0.236   0.912  -5.212  0.00  0.00    +0.123 A 
ATOM     35  C   UNL     1      -0.429   1.940  -4.560  0.00  0.00    +0.039 A 
ATOM     36  C   UNL     1      -1.149   1.680  -3.415  0.00  0.00    +0.014 A 
ATOM     37  F   UNL     1       0.941   1.173  -6.335  0.00  0.00    -0.205 F 
ENDBRANCH  29  31
ENDBRANCH   2  29
TORSDOF 7
