REMARK  Name = ZINC67290765
REMARK  4 active torsions:
REMARK  status: ('A' for Active; 'I' for Inactive)
REMARK    1  A    between atoms: C_4  and  N_8
REMARK    2  A    between atoms: N_11  and  C_12
REMARK    3  A    between atoms: C_12  and  C_13
REMARK    4  A    between atoms: N_15  and  C_16
REMARK                            x       y       z     vdW  Elec       q    Type
REMARK                         _______ _______ _______ _____ _____    ______ ____
ROOT
ATOM      1  N   UNL     1       3.623  -0.652  -0.037  0.00  0.00    -0.268 N 
ATOM      2  C   UNL     1       3.646  -1.997   0.057  0.00  0.00    +0.304 C 
ATOM      3  O   UNL     1       2.604  -2.623   0.064  0.00  0.00    -0.252 OA
ATOM      4  N   UNL     1       4.824  -2.646   0.143  0.00  0.00    -0.291 N 
ATOM      5  H   UNL     1       4.453  -0.158  -0.126  0.00  0.00    +0.156 HD
ATOM      6  H   UNL     1       5.655  -2.146   0.137  0.00  0.00    +0.151 HD
ENDROOT
BRANCH   1  10
ATOM      7  C   UNL     1      -0.015   1.381   0.049  0.00  0.00    +0.017 A 
ATOM      8  C   UNL     1       1.082   1.956  -0.567  0.00  0.00    +0.023 A 
ATOM      9  C   UNL     1       2.289   1.284  -0.597  0.00  0.00    +0.062 A 
ATOM     10  C   UNL     1       2.401   0.031  -0.008  0.00  0.00    +0.054 A 
ATOM     11  C   UNL     1       1.298  -0.543   0.610  0.00  0.00    +0.040 A 
ATOM     12  C   UNL     1       0.093   0.134   0.636  0.00  0.00    +0.020 A 
ATOM     13 BR   UNL     1      -1.410  -0.648   1.477  0.00  0.00    -0.050 Br
ATOM     14 CL   UNL     1       3.666   2.006  -1.371  0.00  0.00    -0.082 Cl
ENDBRANCH   1  10
BRANCH   4  15
ATOM     15  C   UNL     1       4.848  -4.107   0.245  0.00  0.00    +0.201 C 
BRANCH  15  16
ATOM     16  C   UNL     1       6.277  -4.581   0.328  0.00  0.00    +0.230 C 
ATOM     17  O   UNL     1       7.185  -3.777   0.303  0.00  0.00    -0.274 OA
ATOM     18  N   UNL     1       6.546  -5.897   0.428  0.00  0.00    -0.311 N 
ATOM     19  H   UNL     1       5.820  -6.540   0.448  0.00  0.00    +0.149 HD
BRANCH  18  20
ATOM     20  C   UNL     1       7.934  -6.358   0.508  0.00  0.00    +0.073 C 
ATOM     21  C   UNL     1       8.507  -6.498  -0.903  0.00  0.00    +0.022 C 
ATOM     22  C   UNL     1       9.957  -6.979  -0.820  0.00  0.00    +0.002 C 
ATOM     23  C   UNL     1      10.005  -8.335  -0.112  0.00  0.00    +0.000 C 
ATOM     24  C   UNL     1       9.432  -8.194   1.299  0.00  0.00    +0.002 C 
ATOM     25  C   UNL     1       7.982  -7.713   1.216  0.00  0.00    +0.022 C 
ENDBRANCH  18  20
ENDBRANCH  15  16
ENDBRANCH   4  15
TORSDOF 4
