REMARK  Name = ZINC46927484
REMARK  4 active torsions:
REMARK  status: ('A' for Active; 'I' for Inactive)
REMARK    1  A    between atoms: C_1  and  C_2
REMARK    2  A    between atoms: C_5  and  S_8
REMARK    3  A    between atoms: S_8  and  N_11
REMARK    4  A    between atoms: C_12  and  C_14
REMARK                            x       y       z     vdW  Elec       q    Type
REMARK                         _______ _______ _______ _____ _____    ______ ____
ROOT
ATOM      1  S   UNL     1       0.063  -4.530  -0.023  0.00  0.00    +0.102 S 
ATOM      2  O   UNL     1      -0.476  -4.950   1.223  0.00  0.00    -0.146 OA
ATOM      3  O   UNL     1      -0.490  -4.937  -1.267  0.00  0.00    -0.146 OA
ENDROOT
BRANCH   1   8
ATOM      4  C   UNL     1      -0.018   1.503   0.010  0.00  0.00    +0.044 C 
ATOM      5  C   UNL     1       0.002  -0.004   0.002  0.00  0.00    -0.050 A 
ATOM      6  C   UNL     1       0.006  -0.689  -1.199  0.00  0.00    +0.005 A 
ATOM      7  C   UNL     1       0.025  -2.071  -1.206  0.00  0.00    +0.029 A 
ATOM      8  C   UNL     1       0.040  -2.768  -0.013  0.00  0.00    +0.113 A 
ATOM      9  C   UNL     1       0.037  -2.084   1.188  0.00  0.00    +0.029 A 
ATOM     10  C   UNL     1       0.023  -0.702   1.195  0.00  0.00    +0.005 A 
ENDBRANCH   1   8
BRANCH   1  11
ATOM     11  N   UNL     1       1.651  -4.999  -0.034  0.00  0.00    -0.085 NA
ATOM     12  C   UNL     1       1.956  -6.268  -0.043  0.00  0.00    +0.302 C 
ATOM     13  O   UNL     1       0.975  -7.200  -0.043  0.00  0.00    -0.263 OA
BRANCH  12  14
ATOM     14  C   UNL     1       3.365  -6.684  -0.053  0.00  0.00    +0.081 A 
ATOM     15  C   UNL     1       3.897  -7.962  -0.069  0.00  0.00    +0.022 A 
ATOM     16  C   UNL     1       5.271  -8.038  -0.075  0.00  0.00    +0.024 A 
ATOM     17  C   UNL     1       5.994  -6.891  -0.067  0.00  0.00    +0.056 A 
ATOM     18  S   UNL     1       4.835  -5.675  -0.056  0.00  0.00    -0.077 S 
ATOM     19 BR   UNL     1       7.875  -6.703  -0.072  0.00  0.00    -0.043 Br
ENDBRANCH  12  14
ENDBRANCH   1  11
TORSDOF 3
