REMARK  Name = ZINC00756253
REMARK  8 active torsions:
REMARK  status: ('A' for Active; 'I' for Inactive)
REMARK    1  A    between atoms: C_1  and  C_2
REMARK    2  A    between atoms: C_2  and  O_3
REMARK    3  A    between atoms: O_3  and  C_4
REMARK    4  A    between atoms: C_4  and  C_6
REMARK    5  A    between atoms: C_7  and  C_26
REMARK    6  A    between atoms: C_9  and  N_25
REMARK    7  A    between atoms: C_10  and  C_23
REMARK    8  A    between atoms: C_16  and  C_19
REMARK                            x       y       z     vdW  Elec       q    Type
REMARK                         _______ _______ _______ _____ _____    ______ ____
ROOT
ATOM      1  C   UNL     1       2.349   4.233   0.111  0.00  0.00    +0.104 C 
ATOM      2  C   UNL     1       1.171   3.562   0.038  0.00  0.00    +0.149 C 
ATOM      3  O   UNL     1      -0.005   4.210  -0.049  0.00  0.00    -0.440 OA
ATOM      4  C   UNL     1      -0.087   5.510   0.285  0.00  0.00    +0.199 C 
ATOM      5  C   UNL     1       1.016   6.295   0.367  0.00  0.00    +0.110 C 
ATOM      6  C   UNL     1       2.379   5.734   0.086  0.00  0.00    +0.149 C 
ATOM      7  C   UNL     1       2.894   6.235  -1.240  0.00  0.00    +0.013 A 
ATOM      8  C   UNL     1       4.053   6.951  -0.960  0.00  0.00    +0.039 A 
ATOM      9  C   UNL     1       4.753   7.539  -2.011  0.00  0.00    +0.024 A 
ATOM     10  C   UNL     1       4.298   7.407  -3.307  0.00  0.00    +0.006 A 
ATOM     11  C   UNL     1       3.144   6.693  -3.574  0.00  0.00    -0.036 A 
ATOM     12  C   UNL     1       2.442   6.106  -2.534  0.00  0.00    +0.027 A 
ATOM     13 BR   UNL     1       0.864   5.128  -2.892  0.00  0.00    -0.050 Br
ATOM     14  C   UNL     1       2.653   6.553  -4.991  0.00  0.00    +0.045 C 
ATOM     15  N   UNL     1       4.306   6.941   0.412  0.00  0.00    -0.284 N 
ATOM     16  C   UNL     1       3.377   6.250   1.097  0.00  0.00    +0.238 C 
ATOM     17  O   UNL     1       3.345   6.077   2.296  0.00  0.00    -0.274 OA
ATOM     18  H   UNL     1       5.066   7.381   0.825  0.00  0.00    +0.155 HD
ENDROOT
BRANCH   2  19
ATOM     19  C   UNL     1       1.181   2.087   0.062  0.00  0.00    +0.018 A 
ATOM     20  C   UNL     1       1.599   1.406   1.208  0.00  0.00    +0.011 A 
ATOM     21  C   UNL     1       1.605   0.027   1.222  0.00  0.00    +0.001 A 
ATOM     22  C   UNL     1       1.198  -0.682   0.106  0.00  0.00    +0.000 A 
ATOM     23  C   UNL     1       0.783  -0.014  -1.033  0.00  0.00    +0.001 A 
ATOM     24  C   UNL     1       0.772   1.365  -1.062  0.00  0.00    +0.011 A 
ENDBRANCH   2  19
BRANCH   4  25
ATOM     25  N   UNL     1      -1.318   6.056   0.551  0.00  0.00    -0.328 N 
ATOM     26  H   UNL     1      -2.115   5.506   0.496  0.00  0.00    +0.145 HD
ATOM     27  H   UNL     1      -1.391   6.993   0.793  0.00  0.00    +0.145 HD
ENDBRANCH   4  25
BRANCH   1  28
ATOM     28  C   UNL     1       3.557   3.512   0.204  0.00  0.00    +0.340 C 
ATOM     29  O   UNL     1       3.552   2.299   0.103  0.00  0.00    -0.245 OA
BRANCH  28  30
ATOM     30  O   UNL     1       4.720   4.167   0.407  0.00  0.00    -0.462 OA
BRANCH  30  32
ATOM     31  C   UNL     1       7.114   4.285   0.721  0.00  0.00    +0.048 C 
ATOM     32  C   UNL     1       5.906   3.374   0.491  0.00  0.00    +0.229 C 
ENDBRANCH  30  32
ENDBRANCH  28  30
ENDBRANCH   1  28
BRANCH   5  33
ATOM     33  C   UNL     1       0.878   7.675   0.724  0.00  0.00    +0.102 C 
ATOM     34  N   UNL     1       0.768   8.769   1.008  0.00  0.00    -0.191 NA
ENDBRANCH   5  33
TORSDOF 6
