REMARK  Name = ZINC39097174
REMARK  6 active torsions:
REMARK  status: ('A' for Active; 'I' for Inactive)
REMARK    1  A    between atoms: C_2  and  C_10
REMARK    2  A    between atoms: N_5  and  O_9
REMARK    3  A    between atoms: C_6  and  O_8
REMARK    4  A    between atoms: C_10  and  C_11
REMARK    5  A    between atoms: C_11  and  P_12
REMARK    6  A    between atoms: P_12  and  O_15
REMARK                            x       y       z     vdW  Elec       q    Type
REMARK                         _______ _______ _______ _____ _____    ______ ____
ROOT
ATOM      1  C   UNL     1      -0.019   1.536   0.011  0.00  0.00    +0.054 C 
ATOM      2  C   UNL     1       1.468   1.960  -0.001  0.00  0.00    +0.010 C 
ATOM      3  C   UNL     1       2.191   0.705   0.550  0.00  0.00    +0.121 C 
ATOM      4  N   UNL     1       1.421  -0.418  -0.044  0.00  0.00    -0.162 NA
ATOM      5  C   UNL     1       0.002  -0.004   0.002  0.00  0.00    +0.210 C 
ENDROOT
BRANCH   5   6
ATOM      6  O   UNL     1      -0.686  -0.494  -1.151  0.00  0.00    -0.375 OA
ATOM      7  H   UNL     1      -0.708  -1.458  -1.215  0.00  0.00    +0.212 HD
ENDBRANCH   5   6
BRANCH   4   8
ATOM      8  O   UNL     1       1.631  -1.654   0.711  0.00  0.00    -0.310 OA
ATOM      9  H   UNL     1       1.149  -2.416   0.360  0.00  0.00    +0.237 HD
ENDBRANCH   4   8
BRANCH   2  10
ATOM     10  C   UNL     1       1.694   3.165   0.913  0.00  0.00    +0.017 C 
BRANCH  10  11
ATOM     11  C   UNL     1       3.144   3.637   0.785  0.00  0.00    +0.130 C 
BRANCH  11  12
ATOM     12  P   UNL     1       3.414   5.074   1.875  0.00  0.00    +0.358 P 
ATOM     13  O   UNL     1       2.377   6.171   1.547  0.00  0.00    -0.256 OA
ATOM     14  O   UNL     1       3.255   4.639   3.349  0.00  0.00    -0.141 OA
BRANCH  12  15
ATOM     15  O   UNL     1       4.899   5.652   1.643  0.00  0.00    -0.322 OA
ATOM     16  H   UNL     1       5.112   6.419   2.192  0.00  0.00    +0.220 HD
ENDBRANCH  12  15
ENDBRANCH  11  12
ENDBRANCH  10  11
ENDBRANCH   2  10
TORSDOF 6
