REMARK  Name = ZINC04180578
REMARK  7 active torsions:
REMARK  status: ('A' for Active; 'I' for Inactive)
REMARK    1  A    between atoms: C_1  and  C_2
REMARK    2  A    between atoms: C_7  and  N_8
REMARK    3  A    between atoms: C_12  and  N_13
REMARK    4  A    between atoms: N_13  and  C_14
REMARK    5  A    between atoms: C_17  and  C_20
REMARK    6  A    between atoms: C_23  and  N_26
REMARK    7  A    between atoms: C_27  and  C_29
REMARK                            x       y       z     vdW  Elec       q    Type
REMARK                         _______ _______ _______ _____ _____    ______ ____
ROOT
ATOM      1  N   UNL     1      -0.196   1.584   6.575  0.00  0.00    -0.320 N 
ATOM      2  H   UNL     1       0.494   2.200   6.285  0.00  0.00    +0.152 HD
ENDROOT
BRANCH   1   7
ATOM      3  N   UNL     1      -0.271   0.376   2.146  0.00  0.00    -0.156 N 
ATOM      4  C   UNL     1      -0.826  -0.109   3.275  0.00  0.00    +0.273 C 
ATOM      5  O   UNL     1      -1.520  -1.106   3.382  0.00  0.00    -0.268 OA
ATOM      6  C   UNL     1      -0.424   0.807   4.350  0.00  0.00    +0.075 C 
ATOM      7  C   UNL     1      -0.750   0.726   5.693  0.00  0.00    +0.087 C 
ATOM      8  C   UNL     1       0.400   1.830   3.689  0.00  0.00    +0.070 C 
ATOM      9  N   UNL     1       0.459   1.530   2.427  0.00  0.00    -0.176 NA
ATOM     10  C   UNL     1       1.060   3.009   4.356  0.00  0.00    +0.068 C 
BRANCH   3  17
ATOM     11  C   UNL     1      -1.249   2.004   0.026  0.00  0.00    +0.046 C 
ATOM     12  C   UNL     1      -0.877   0.559  -0.186  0.00  0.00    -0.027 A 
ATOM     13  C   UNL     1      -1.001  -0.010  -1.439  0.00  0.00    +0.005 A 
ATOM     14  C   UNL     1      -0.660  -1.336  -1.634  0.00  0.00    +0.000 A 
ATOM     15  C   UNL     1      -0.193  -2.096  -0.577  0.00  0.00    +0.002 A 
ATOM     16  C   UNL     1      -0.066  -1.533   0.677  0.00  0.00    +0.026 A 
ATOM     17  C   UNL     1      -0.403  -0.200   0.876  0.00  0.00    +0.063 A 
ENDBRANCH   3  17
ENDBRANCH   1   7
BRANCH   1  18
ATOM     18  C   UNL     1      -0.617   1.585   7.907  0.00  0.00    +0.031 A 
ATOM     19  C   UNL     1      -1.603   0.697   8.324  0.00  0.00    +0.024 A 
ATOM     20  C   UNL     1      -2.019   0.697   9.638  0.00  0.00    +0.010 A 
ATOM     21  C   UNL     1      -1.452   1.586  10.549  0.00  0.00    -0.018 A 
ATOM     22  C   UNL     1      -0.463   2.475  10.129  0.00  0.00    +0.010 A 
ATOM     23  C   UNL     1      -0.046   2.469   8.815  0.00  0.00    +0.024 A 
BRANCH  21  24
ATOM     24  C   UNL     1      -1.899   1.588  11.963  0.00  0.00    -0.018 A 
ATOM     25  C   UNL     1      -2.884   0.695  12.385  0.00  0.00    +0.010 A 
ATOM     26  C   UNL     1      -3.298   0.698  13.700  0.00  0.00    +0.023 A 
ATOM     27  C   UNL     1      -2.734   1.590  14.605  0.00  0.00    +0.025 A 
ATOM     28  C   UNL     1      -1.752   2.480  14.187  0.00  0.00    +0.023 A 
ATOM     29  C   UNL     1      -1.331   2.478  12.874  0.00  0.00    +0.010 A 
BRANCH  27  30
ATOM     30  N   UNL     1      -3.155   1.591  15.936  0.00  0.00    -0.358 N 
ATOM     31  H   UNL     1      -3.840   0.970  16.229  0.00  0.00    +0.142 HD
ATOM     32  H   UNL     1      -2.762   2.213  16.569  0.00  0.00    +0.142 HD
ENDBRANCH  27  30
ENDBRANCH  21  24
ENDBRANCH   1  18
TORSDOF 5
