REMARK  Name = ZINC41028351
REMARK  2 active torsions:
REMARK  status: ('A' for Active; 'I' for Inactive)
REMARK    1  A    between atoms: C_2  and  C_9
REMARK    2  A    between atoms: C_15  and  N_18
REMARK                            x       y       z     vdW  Elec       q    Type
REMARK                         _______ _______ _______ _____ _____    ______ ____
ROOT
ATOM      1  C   UNL     1       1.292  -0.741  -0.015  0.00  0.00    +0.247 C 
ATOM      2  O   UNL     1       2.338  -0.132  -0.116  0.00  0.00    -0.270 OA
ATOM      3  N   UNL     1       1.301  -2.085   0.080  0.00  0.00    -0.299 N 
ATOM      4  C   UNL     1       0.043  -2.844   0.084  0.00  0.00    +0.108 C 
ATOM      5  C   UNL     1       0.110  -3.915  -1.010  0.00  0.00    +0.017 C 
ATOM      6  C   UNL     1       1.362  -4.771  -0.804  0.00  0.00    -0.013 C 
ATOM      7  C   UNL     1       2.608  -3.890  -0.914  0.00  0.00    -0.057 C 
ATOM      8  C   UNL     1       2.570  -2.820   0.175  0.00  0.00    +0.092 C 
ENDROOT
BRANCH   1  10
ATOM      9  C   UNL     1      -0.701   0.162   1.200  0.00  0.00    +0.083 A 
ATOM     10  C   UNL     1       0.002  -0.004   0.005  0.00  0.00    +0.047 A 
ATOM     11  C   UNL     1      -0.525   0.534  -1.170  0.00  0.00    +0.083 A 
ATOM     12  C   UNL     1      -1.732   1.219  -1.126  0.00  0.00    +0.252 A 
ATOM     13  N   UNL     1      -2.395   1.367   0.043  0.00  0.00    -0.290 N 
ATOM     14  C   UNL     1      -1.907   0.850   1.193  0.00  0.00    +0.252 A 
ATOM     15  O   UNL     1      -2.586   1.012   2.336  0.00  0.00    -0.268 OA
ATOM     16  O   UNL     1      -2.243   1.738  -2.250  0.00  0.00    -0.268 OA
ATOM     17  H   UNL     1      -3.237   1.849   0.057  0.00  0.00    +0.172 HD
ENDBRANCH   1  10
BRANCH   7  18
ATOM     18  N   UNL     1       3.810  -4.719  -0.749  0.00  0.00    +0.381 N 
ATOM     19  H   UNL     1       3.833  -5.425  -1.469  0.00  0.00    -0.090 HD
ATOM     20  H   UNL     1       4.632  -4.138  -0.821  0.00  0.00    -0.090 HD
ATOM     21  H   UNL     1       3.791  -5.162   0.157  0.00  0.00    -0.090 HD
ENDBRANCH   7  18
TORSDOF 2
