REMARK  Name = ZINC35671613
REMARK  4 active torsions:
REMARK  status: ('A' for Active; 'I' for Inactive)
REMARK    1  A    between atoms: C_3  and  C_6
REMARK    2  A    between atoms: C_6  and  C_8
REMARK    3  A    between atoms: C_6  and  N_24
REMARK    4  A    between atoms: C_8  and  N_9
REMARK                            x       y       z     vdW  Elec       q    Type
REMARK                         _______ _______ _______ _____ _____    ______ ____
ROOT
ATOM      1  N   UNL     1       3.424   2.700   2.099  0.00  0.00    -0.300 N 
ATOM      2  C   UNL     1       3.970   3.935   2.260  0.00  0.00    +0.202 A 
ATOM      3  N   UNL     1       3.441   4.852   3.005  0.00  0.00    -0.235 NA
ATOM      4  C   UNL     1       2.272   4.641   3.697  0.00  0.00    +0.107 A 
ATOM      5  C   UNL     1       1.596   5.550   4.537  0.00  0.00    +0.081 A 
ATOM      6  C   UNL     1       0.435   5.106   5.126  0.00  0.00    +0.070 A 
ATOM      7  S   UNL     1       0.229   3.450   4.552  0.00  0.00    -0.073 S 
ATOM      8  C   UNL     1       1.688   3.368   3.543  0.00  0.00    +0.105 A 
ATOM      9  C   UNL     1       2.267   2.397   2.735  0.00  0.00    +0.268 A 
ATOM     10  O   UNL     1       1.750   1.300   2.605  0.00  0.00    -0.266 OA
ATOM     11  S   UNL     1      -0.562   6.057   6.210  0.00  0.00    -0.107 S 
ATOM     12  C   UNL     1       0.658   7.239   6.874  0.00  0.00    +0.171 C 
ATOM     13  C   UNL     1       1.595   7.648   5.773  0.00  0.00    +0.227 C 
ATOM     14  O   UNL     1       1.975   8.800   5.781  0.00  0.00    -0.275 OA
ATOM     15  N   UNL     1       2.050   6.874   4.791  0.00  0.00    -0.282 N 
ATOM     16  H   UNL     1       2.736   7.237   4.210  0.00  0.00    +0.155 HD
ENDROOT
BRANCH   1  17
ATOM     17  C   UNL     1       4.077   1.710   1.240  0.00  0.00    +0.116 C 
BRANCH  17  18
ATOM     18  C   UNL     1       3.665   1.945  -0.215  0.00  0.00    -0.011 C 
BRANCH  18  19
ATOM     19  N   UNL     1       4.384   1.005  -1.085  0.00  0.00    +0.386 N 
ATOM     20  C   UNL     1       5.825   1.271  -1.005  0.00  0.00    -0.078 C 
ATOM     21  C   UNL     1       6.585   0.243  -1.847  0.00  0.00    -0.019 C 
ATOM     22  C   UNL     1       6.125   0.345  -3.304  0.00  0.00    -0.004 C 
ATOM     23  C   UNL     1       4.609   0.140  -3.367  0.00  0.00    -0.019 C 
ATOM     24  C   UNL     1       3.923   1.171  -2.469  0.00  0.00    -0.078 C 
ATOM     25  H   UNL     1       4.201   0.060  -0.782  0.00  0.00    -0.081 HD
ENDBRANCH  18  19
BRANCH  18  28
ATOM     26  C   UNL     1      -0.121   2.209  -0.544  0.00  0.00    +0.008 A 
ATOM     27  C   UNL     1       1.184   2.644  -0.407  0.00  0.00    +0.009 A 
ATOM     28  C   UNL     1       2.180   1.727  -0.357  0.00  0.00    -0.022 A 
ATOM     29  S   UNL     1       1.278   0.193  -0.505  0.00  0.00    -0.103 S 
ATOM     30  C   UNL     1      -0.366   0.879  -0.624  0.00  0.00    +0.045 A 
ENDBRANCH  18  28
ENDBRANCH  17  18
ENDBRANCH   1  17
TORSDOF 4
