REMARK  Name = ZINC22925386
REMARK  15 active torsions:
REMARK  status: ('A' for Active; 'I' for Inactive)
REMARK    1  A    between atoms: C_1  and  C_2
REMARK    2  A    between atoms: C_2  and  O_3
REMARK    3  A    between atoms: O_3  and  C_4
REMARK    4  A    between atoms: C_4  and  C_6
REMARK    5  A    between atoms: C_7  and  C_32
REMARK    6  A    between atoms: C_10  and  N_11
REMARK    7  A    between atoms: C_12  and  C_14
REMARK    8  A    between atoms: C_14  and  N_15
REMARK    9  A    between atoms: N_18  and  C_21
REMARK   10  A    between atoms: C_21  and  C_22
REMARK   11  A    between atoms: C_24  and  O_30
REMARK   12  A    between atoms: C_27  and  O_28
REMARK   13  A    between atoms: O_28  and  C_29
REMARK   14  A    between atoms: O_30  and  C_31
REMARK   15  A    between atoms: C_35  and  C_37
REMARK                            x       y       z     vdW  Elec       q    Type
REMARK                         _______ _______ _______ _____ _____    ______ ____
ROOT
ATOM      1  N   UNL     1       3.743  -2.429   1.399  0.00  0.00    -0.278 N 
ATOM      2  C   UNL     1       5.046  -2.740   1.551  0.00  0.00    +0.232 C 
ATOM      3  O   UNL     1       5.442  -3.197   2.602  0.00  0.00    -0.274 OA
ATOM      4  H   UNL     1       3.427  -2.063   0.558  0.00  0.00    +0.155 HD
ENDROOT
BRANCH   1   9
ATOM      5  C   UNL     1       1.496  -2.370   2.465  0.00  0.00    +0.098 A 
ATOM      6  C   UNL     1       0.793  -2.684   3.698  0.00  0.00    +0.040 A 
ATOM      7  C   UNL     1       1.565  -3.195   4.695  0.00  0.00    +0.059 A 
ATOM      8  S   UNL     1       3.189  -3.244   3.970  0.00  0.00    -0.080 S 
ATOM      9  C   UNL     1       2.857  -2.631   2.445  0.00  0.00    +0.087 A 
BRANCH   6  10
ATOM     10  C   UNL     1      -0.658  -2.463   3.858  0.00  0.00    +0.137 A 
ATOM     11  C   UNL     1      -1.557  -3.369   4.328  0.00  0.00    +0.050 A 
ATOM     12  C   UNL     1      -2.818  -2.737   4.312  0.00  0.00    +0.045 A 
ATOM     13  C   UNL     1      -2.628  -1.491   3.839  0.00  0.00    +0.103 A 
ATOM     14  O   UNL     1      -1.321  -1.326   3.570  0.00  0.00    -0.460 OA
ATOM     15  C   UNL     1      -3.702  -0.451   3.647  0.00  0.00    +0.086 C 
ENDBRANCH   6  10
BRANCH   5  16
ATOM     16  C   UNL     1       0.801  -1.814   1.305  0.00  0.00    +0.342 C 
ATOM     17  O   UNL     1       0.321  -2.558   0.470  0.00  0.00    -0.245 OA
BRANCH  16  18
ATOM     18  O   UNL     1       0.693  -0.477   1.160  0.00  0.00    -0.461 OA
BRANCH  18  20
ATOM     19  C   UNL     1      -0.019   1.526   0.010  0.00  0.00    +0.048 C 
ATOM     20  C   UNL     1       0.002  -0.004   0.002  0.00  0.00    +0.229 C 
ENDBRANCH  18  20
ENDBRANCH  16  18
ENDBRANCH   5  16
ENDBRANCH   1   9
BRANCH   2  21
ATOM     21  C   UNL     1       6.011  -2.520   0.414  0.00  0.00    +0.180 C 
BRANCH  21  22
ATOM     22  N   UNL     1       7.358  -2.934   0.828  0.00  0.00    -0.298 NA
ATOM     23  C   UNL     1       7.874  -2.061   1.891  0.00  0.00    +0.066 C 
ATOM     24  C   UNL     1       9.251  -2.561   2.334  0.00  0.00    -0.063 C 
ATOM     25  N   UNL     1      10.166  -2.557   1.186  0.00  0.00    +0.384 N 
ATOM     26  C   UNL     1       9.650  -3.452   0.142  0.00  0.00    -0.063 C 
ATOM     27  C   UNL     1       8.277  -2.959  -0.319  0.00  0.00    +0.066 C 
ATOM     28  H   UNL     1      10.240  -1.620   0.818  0.00  0.00    -0.081 HD
BRANCH  25  29
ATOM     29  C   UNL     1      11.493  -3.019   1.615  0.00  0.00    -0.039 C 
BRANCH  29  30
ATOM     30  C   UNL     1      12.463  -2.899   0.468  0.00  0.00    -0.019 A 
ATOM     31  C   UNL     1      12.784  -4.012  -0.284  0.00  0.00    +0.051 A 
ATOM     32  C   UNL     1      13.676  -3.901  -1.340  0.00  0.00    +0.121 A 
ATOM     33  C   UNL     1      14.246  -2.672  -1.640  0.00  0.00    +0.049 A 
ATOM     34  C   UNL     1      13.925  -1.560  -0.888  0.00  0.00    +0.049 A 
ATOM     35  C   UNL     1      13.028  -1.670   0.165  0.00  0.00    +0.122 A 
BRANCH  35  36
ATOM     36  O   UNL     1      12.708  -0.573   0.902  0.00  0.00    -0.495 OA
ATOM     37  C   UNL     1      13.328   0.661   0.534  0.00  0.00    +0.277 C 
ENDBRANCH  35  36
BRANCH  32  38
ATOM     38  O   UNL     1      13.993  -4.997  -2.081  0.00  0.00    -0.495 OA
ATOM     39  C   UNL     1      14.919  -4.809  -3.153  0.00  0.00    +0.277 C 
ENDBRANCH  32  38
ENDBRANCH  29  30
ENDBRANCH  25  29
ENDBRANCH  21  22
ENDBRANCH   2  21
TORSDOF 11
