REMARK  Name = ZINC36759230
REMARK  4 active torsions:
REMARK  status: ('A' for Active; 'I' for Inactive)
REMARK    1  A    between atoms: C_1  and  C_2
REMARK    2  A    between atoms: C_4  and  N_14
REMARK    3  A    between atoms: N_5  and  C_7
REMARK    4  A    between atoms: C_15  and  C_17
REMARK                            x       y       z     vdW  Elec       q    Type
REMARK                         _______ _______ _______ _____ _____    ______ ____
ROOT
ATOM      1  C   UNL     1      -0.018   1.503   0.010  0.00  0.00    +0.067 C 
ATOM      2  C   UNL     1       0.002  -0.004   0.002  0.00  0.00    +0.062 A 
ATOM      3  C   UNL     1       0.008  -0.815  -1.137  0.00  0.00    +0.068 A 
ATOM      4  C   UNL     1       0.028  -2.112  -0.726  0.00  0.00    +0.129 A 
ATOM      5  N   UNL     1       0.034  -2.109   0.635  0.00  0.00    -0.218 N 
ATOM      6  N   UNL     1       0.023  -0.774   1.060  0.00  0.00    -0.170 NA
ENDROOT
BRANCH   5   7
ATOM      7  C   UNL     1       0.053  -3.240   1.463  0.00  0.00    +0.068 A 
ATOM      8  C   UNL     1      -0.617  -4.394   1.081  0.00  0.00    +0.028 A 
ATOM      9  C   UNL     1      -0.597  -5.506   1.899  0.00  0.00    +0.003 A 
ATOM     10  C   UNL     1       0.091  -5.473   3.098  0.00  0.00    +0.015 A 
ATOM     11  C   UNL     1       0.761  -4.324   3.482  0.00  0.00    +0.020 A 
ATOM     12  C   UNL     1       0.748  -3.209   2.665  0.00  0.00    +0.043 A 
ATOM     13 BR   UNL     1       1.700  -4.283   5.122  0.00  0.00    -0.050 Br
ENDBRANCH   5   7
BRANCH   4  14
ATOM     14  N   UNL     1       0.039  -3.238  -1.549  0.00  0.00    -0.270 N 
ATOM     15  C   UNL     1       0.031  -3.093  -2.889  0.00  0.00    +0.222 C 
ATOM     16  O   UNL     1       0.014  -1.984  -3.379  0.00  0.00    -0.275 OA
ATOM     17  H   UNL     1       0.053  -4.125  -1.157  0.00  0.00    +0.156 HD
BRANCH  15  18
ATOM     18  C   UNL     1       0.043  -4.310  -3.778  0.00  0.00    +0.079 C 
ATOM     19  C   UNL     1       0.041  -3.874  -5.248  0.00  0.00    +0.017 C 
ATOM     20  C   UNL     1      -0.127  -5.119  -6.122  0.00  0.00    +0.027 C 
ATOM     21  C   UNL     1       0.848  -6.180  -5.702  0.00  0.00    -0.031 C 
ATOM     22  C   UNL     1       1.470  -6.185  -4.567  0.00  0.00    -0.030 C 
ATOM     23  C   UNL     1       1.309  -5.128  -3.513  0.00  0.00    +0.039 C 
ENDBRANCH  15  18
ENDBRANCH   4  14
TORSDOF 3
