REMARK  Name = ZINC19514438
REMARK  3 active torsions:
REMARK  status: ('A' for Active; 'I' for Inactive)
REMARK    1  A    between atoms: C_9  and  C_13
REMARK    2  A    between atoms: C_13  and  C_14
REMARK    3  A    between atoms: C_14  and  C_15
REMARK                            x       y       z     vdW  Elec       q    Type
REMARK                         _______ _______ _______ _____ _____    ______ ____
ROOT
ATOM      1  C   UNL     1      -0.060   0.172   0.631  0.00  0.00    +0.005 C 
ATOM      2  C   UNL     1       0.800  -0.174   1.850  0.00  0.00    +0.005 C 
ATOM      3  C   UNL     1       2.273   0.080   1.500  0.00  0.00    +0.043 C 
ATOM      4  C   UNL     1       2.383   1.428   0.856  0.00  0.00    -0.004 A 
ATOM      5  C   UNL     1       1.377   2.182   0.357  0.00  0.00    -0.025 A 
ATOM      6  C   UNL     1       1.747   3.462  -0.223  0.00  0.00    +0.051 A 
ATOM      7  C   UNL     1       0.876   4.426  -0.807  0.00  0.00    +0.128 A 
ATOM      8  N   UNL     1       1.459   5.529  -1.272  0.00  0.00    -0.217 NA
ATOM      9  C   UNL     1       2.757   5.755  -1.217  0.00  0.00    +0.133 A 
ATOM     10  N   UNL     1       3.623   4.901  -0.686  0.00  0.00    -0.225 NA
ATOM     11  C   UNL     1       3.129   3.779  -0.200  0.00  0.00    +0.114 A 
ATOM     12  S   UNL     1       3.859   2.377   0.582  0.00  0.00    -0.073 S 
ATOM     13  N   UNL     1      -0.491   4.229  -0.886  0.00  0.00    -0.343 N 
ATOM     14  C   UNL     1      -0.065   1.685   0.412  0.00  0.00    +0.037 C 
ATOM     15  H   UNL     1      -1.132   4.996  -1.345  0.00  0.00    +0.144 HD
ATOM     16  H   UNL     1      -0.937   3.304  -0.491  0.00  0.00    +0.144 HD
ENDROOT
BRANCH   9  17
ATOM     17  C   UNL     1       3.283   7.049  -1.783  0.00  0.00    +0.087 C 
BRANCH  17  18
ATOM     18  C   UNL     1       3.627   6.856  -3.261  0.00  0.00    +0.133 C 
BRANCH  18  19
ATOM     19  C   UNL     1       4.153   8.149  -3.828  0.00  0.00    +0.356 C 
ATOM     20  O   UNL     1       4.243   9.125  -3.122  0.00  0.00    -0.246 OA
ATOM     21  O   UNL     1       4.521   8.217  -5.117  0.00  0.00    -0.246 OA
ENDBRANCH  18  19
ENDBRANCH  17  18
ENDBRANCH   9  17
TORSDOF 3
