REMARK  Name = ZINC48837975
REMARK  4 active torsions:
REMARK  status: ('A' for Active; 'I' for Inactive)
REMARK    1  A    between atoms: C_4  and  N_8
REMARK    2  A    between atoms: C_5  and  N_7
REMARK    3  A    between atoms: C_9  and  C_11
REMARK    4  A    between atoms: C_17  and  C_19
REMARK                            x       y       z     vdW  Elec       q    Type
REMARK                         _______ _______ _______ _____ _____    ______ ____
ROOT
ATOM      1  N   UNL     1       3.721  -0.501   0.559  0.00  0.00    -0.284 N 
ATOM      2  C   UNL     1       4.762   0.007  -0.130  0.00  0.00    +0.221 C 
ATOM      3  O   UNL     1       4.666   1.093  -0.660  0.00  0.00    -0.275 OA
ATOM      4  H   UNL     1       3.823  -1.331   1.051  0.00  0.00    +0.155 HD
ENDROOT
BRANCH   1   8
ATOM      5  C   UNL     1       0.057   1.496   0.576  0.00  0.00    +0.002 A 
ATOM      6  C   UNL     1       0.941   1.679  -0.471  0.00  0.00    +0.002 A 
ATOM      7  C   UNL     1       2.156   1.018  -0.479  0.00  0.00    +0.025 A 
ATOM      8  C   UNL     1       2.490   0.170   0.565  0.00  0.00    +0.054 A 
ATOM      9  C   UNL     1       1.598  -0.015   1.621  0.00  0.00    +0.046 A 
ATOM     10  C   UNL     1       0.382   0.652   1.621  0.00  0.00    +0.024 A 
BRANCH   9  11
ATOM     11  N   UNL     1       1.929  -0.870   2.678  0.00  0.00    -0.357 N 
ATOM     12  H   UNL     1       2.780  -1.335   2.677  0.00  0.00    +0.142 HD
ATOM     13  H   UNL     1       1.307  -0.997   3.412  0.00  0.00    +0.142 HD
ENDBRANCH   9  11
ENDBRANCH   1   8
BRANCH   2  14
ATOM     14  C   UNL     1       6.045  -0.775  -0.241  0.00  0.00    +0.093 C 
ATOM     15  C   UNL     1       6.060  -1.556  -1.557  0.00  0.00    +0.040 C 
ATOM     16  C   UNL     1       7.426  -2.123  -1.806  0.00  0.00    -0.030 C 
ATOM     17  C   UNL     1       8.500  -1.720  -1.206  0.00  0.00    -0.030 C 
ATOM     18  C   UNL     1       8.526  -0.635  -0.169  0.00  0.00    +0.042 C 
ATOM     19  C   UNL     1       7.239   0.188  -0.229  0.00  0.00    +0.118 C 
BRANCH  19  20
ATOM     20  C   UNL     1       7.151   1.089   0.976  0.00  0.00    +0.360 C 
ATOM     21  O   UNL     1       8.168   1.445   1.546  0.00  0.00    -0.246 OA
ATOM     22  O   UNL     1       6.063   1.461   1.381  0.00  0.00    -0.246 OA
ENDBRANCH  19  20
ENDBRANCH   2  14
TORSDOF 4
