REMARK  Name = ZINC03991728
REMARK  6 active torsions:
REMARK  status: ('A' for Active; 'I' for Inactive)
REMARK    1  A    between atoms: C_1  and  O_2
REMARK    2  A    between atoms: O_2  and  C_3
REMARK    3  A    between atoms: C_6  and  N_9
REMARK    4  A    between atoms: N_20  and  S_21
REMARK    5  A    between atoms: S_21  and  C_24
REMARK    6  A    between atoms: C_27  and  N_30
REMARK                            x       y       z     vdW  Elec       q    Type
REMARK                         _______ _______ _______ _____ _____    ______ ____
ROOT
ATOM      1  N   UNL     1      -0.069   4.446   0.026  0.00  0.00    -0.297 N 
ATOM      2  C   UNL     1       1.140   3.791  -0.158  0.00  0.00    +0.165 A 
ATOM      3  C   UNL     1       1.181   2.375  -0.154  0.00  0.00    +0.179 A 
ATOM      4  N   UNL     1       2.323   1.742  -0.323  0.00  0.00    -0.226 NA
ATOM      5  C   UNL     1       3.452   2.441  -0.510  0.00  0.00    +0.091 A 
ATOM      6  C   UNL     1       4.681   1.788  -0.697  0.00  0.00    +0.030 A 
ATOM      7  C   UNL     1       5.815   2.520  -0.879  0.00  0.00    +0.002 A 
ATOM      8  C   UNL     1       5.775   3.912  -0.884  0.00  0.00    +0.002 A 
ATOM      9  C   UNL     1       4.600   4.578  -0.705  0.00  0.00    +0.030 A 
ATOM     10  C   UNL     1       3.411   3.856  -0.514  0.00  0.00    +0.091 A 
ATOM     11  N   UNL     1       2.243   4.489  -0.336  0.00  0.00    -0.227 NA
ATOM     12  N   UNL     1       0.013   1.653   0.035  0.00  0.00    -0.197 N 
ATOM     13  H   UNL     1      -0.893   3.937   0.077  0.00  0.00    +0.154 HD
ATOM     14  H   UNL     1      -0.829   2.116   0.160  0.00  0.00    +0.175 HD
ENDROOT
BRANCH   1  18
ATOM     15  C   UNL     1      -0.158   8.599   0.364  0.00  0.00    +0.120 A 
ATOM     16  C   UNL     1      -1.215   7.930  -0.235  0.00  0.00    +0.047 A 
ATOM     17  C   UNL     1      -1.186   6.554  -0.347  0.00  0.00    +0.027 A 
ATOM     18  C   UNL     1      -0.099   5.840   0.140  0.00  0.00    +0.033 A 
ATOM     19  C   UNL     1       0.957   6.511   0.745  0.00  0.00    +0.027 A 
ATOM     20  C   UNL     1       0.929   7.888   0.851  0.00  0.00    +0.047 A 
BRANCH  15  22
ATOM     21  C   UNL     1       0.935  10.579   1.102  0.00  0.00    +0.277 C 
ATOM     22  O   UNL     1      -0.187   9.954   0.474  0.00  0.00    -0.495 OA
ENDBRANCH  15  22
ENDBRANCH   1  18
BRANCH  12  23
ATOM     23  S   UNL     1       0.056  -0.003   0.041  0.00  0.00    +0.074 S 
ATOM     24  O   UNL     1      -1.274  -0.443   0.280  0.00  0.00    -0.150 OA
ATOM     25  O   UNL     1       0.792  -0.394  -1.110  0.00  0.00    -0.150 OA
BRANCH  23  26
ATOM     26  C   UNL     1       1.008  -0.495   1.439  0.00  0.00    +0.109 A 
ATOM     27  C   UNL     1       2.375  -0.670   1.316  0.00  0.00    +0.030 A 
ATOM     28  C   UNL     1       3.125  -1.050   2.412  0.00  0.00    +0.024 A 
ATOM     29  C   UNL     1       2.504  -1.267   3.635  0.00  0.00    +0.025 A 
ATOM     30  C   UNL     1       1.131  -1.096   3.753  0.00  0.00    +0.024 A 
ATOM     31  C   UNL     1       0.387  -0.710   2.655  0.00  0.00    +0.030 A 
BRANCH  29  32
ATOM     32  N   UNL     1       3.259  -1.656   4.744  0.00  0.00    -0.358 N 
ATOM     33  H   UNL     1       2.825  -1.808   5.598  0.00  0.00    +0.142 HD
ATOM     34  H   UNL     1       4.218  -1.776   4.660  0.00  0.00    +0.142 HD
ENDBRANCH  29  32
ENDBRANCH  23  26
ENDBRANCH  12  23
TORSDOF 5
