REMARK  Name = ZINC08138548
REMARK  11 active torsions:
REMARK  status: ('A' for Active; 'I' for Inactive)
REMARK    1  A    between atoms: C_1  and  C_2
REMARK    2  A    between atoms: C_2  and  C_3
REMARK    3  A    between atoms: C_2  and  C_4
REMARK    4  A    between atoms: C_7  and  N_10
REMARK    5  A    between atoms: N_10  and  C_11
REMARK    6  A    between atoms: C_11  and  N_13
REMARK    7  A    between atoms: N_13  and  N_14
REMARK    8  A    between atoms: C_15  and  C_17
REMARK    9  A    between atoms: C_17  and  N_25
REMARK   10  A    between atoms: C_18  and  C_19
REMARK   11  A    between atoms: C_26  and  C_28
REMARK                            x       y       z     vdW  Elec       q    Type
REMARK                         _______ _______ _______ _____ _____    ______ ____
ROOT
ATOM      1  N   UNL     1       2.110  -0.641   0.011  0.00  0.00    -0.230 N 
ATOM      2  C   UNL     1       3.295  -1.198   0.329  0.00  0.00    +0.274 C 
ATOM      3  O   UNL     1       4.178  -0.515   0.813  0.00  0.00    -0.267 OA
ATOM      4  H   UNL     1       1.381  -1.198  -0.305  0.00  0.00    +0.173 HD
ENDROOT
BRANCH   1   5
ATOM      5  N   UNL     1       1.930   0.743   0.136  0.00  0.00    -0.245 N 
ATOM      6  H   UNL     1       2.631   1.290   0.524  0.00  0.00    +0.172 HD
BRANCH   5   7
ATOM      7  C   UNL     1       0.784   1.314  -0.283  0.00  0.00    +0.151 C 
ATOM      8  S   UNL     1       0.613   3.017  -0.248  0.00  0.00    -0.017 S 
BRANCH   7   9
ATOM      9  N   UNL     1      -0.229   0.545  -0.730  0.00  0.00    -0.296 N 
ATOM     10  H   UNL     1      -0.980   0.346  -0.148  0.00  0.00    +0.154 HD
BRANCH   9  14
ATOM     11  C   UNL     1      -0.126  -0.994  -4.599  0.00  0.00    -0.045 A 
ATOM     12  C   UNL     1      -1.236  -1.204  -3.803  0.00  0.00    +0.006 A 
ATOM     13  C   UNL     1      -1.274  -0.695  -2.519  0.00  0.00    +0.023 A 
ATOM     14  C   UNL     1      -0.194   0.028  -2.029  0.00  0.00    +0.033 A 
ATOM     15  C   UNL     1       0.918   0.242  -2.833  0.00  0.00    +0.023 A 
ATOM     16  C   UNL     1       0.951  -0.274  -4.114  0.00  0.00    +0.006 A 
BRANCH  11  18
ATOM     17  C   UNL     1       0.072  -0.404  -7.000  0.00  0.00    +0.012 C 
ATOM     18  C   UNL     1      -0.088  -1.550  -5.999  0.00  0.00    +0.013 C 
ATOM     19  C   UNL     1       1.093  -2.514  -6.134  0.00  0.00    +0.012 C 
ENDBRANCH  11  18
ENDBRANCH   9  14
ENDBRANCH   7   9
ENDBRANCH   5   7
ENDBRANCH   1   5
BRANCH   2  20
ATOM     20  C   UNL     1       3.521  -2.631   0.091  0.00  0.00    +0.098 C 
ATOM     21  C   UNL     1       4.739  -3.172   0.325  0.00  0.00    +0.036 C 
BRANCH  21  22
ATOM     22  C   UNL     1       4.924  -4.629   0.245  0.00  0.00    -0.023 A 
ATOM     23  C   UNL     1       3.841  -5.488   0.456  0.00  0.00    +0.008 A 
ATOM     24  C   UNL     1       4.021  -6.853   0.372  0.00  0.00    +0.001 A 
ATOM     25  C   UNL     1       5.274  -7.373   0.095  0.00  0.00    +0.000 A 
ATOM     26  C   UNL     1       6.352  -6.530  -0.109  0.00  0.00    +0.001 A 
ATOM     27  C   UNL     1       6.186  -5.163  -0.035  0.00  0.00    +0.008 A 
ENDBRANCH  21  22
BRANCH  20  28
ATOM     28  N   UNL     1       2.477  -3.436  -0.376  0.00  0.00    -0.282 N 
ATOM     29  C   UNL     1       1.320  -3.506   0.312  0.00  0.00    +0.214 C 
ATOM     30  O   UNL     1       1.149  -2.801   1.284  0.00  0.00    -0.276 OA
ATOM     31  C   UNL     1       0.240  -4.461  -0.126  0.00  0.00    +0.109 C 
ATOM     32  H   UNL     1       2.585  -3.943  -1.196  0.00  0.00    +0.155 HD
ENDBRANCH  20  28
ENDBRANCH   2  20
TORSDOF 8
