REMARK  Name = ZINC11456127
REMARK  9 active torsions:
REMARK  status: ('A' for Active; 'I' for Inactive)
REMARK    1  A    between atoms: C_4  and  O_7
REMARK    2  A    between atoms: O_7  and  C_8
REMARK    3  A    between atoms: C_12  and  C_14
REMARK    4  A    between atoms: C_14  and  O_16
REMARK    5  A    between atoms: O_16  and  C_17
REMARK    6  A    between atoms: C_17  and  C_18
REMARK    7  A    between atoms: N_20  and  C_21
REMARK    8  A    between atoms: C_25  and  S_27
REMARK    9  A    between atoms: S_27  and  N_30
REMARK                            x       y       z     vdW  Elec       q    Type
REMARK                         _______ _______ _______ _____ _____    ______ ____
ROOT
ATOM      1  C   UNL     1      -3.158  -6.524   0.331  0.00  0.00    +0.328 C 
ENDROOT
BRANCH   1   2
ATOM      2  C   UNL     1      -4.522  -7.164   0.353  0.00  0.00    +0.255 C 
ATOM      3  O   UNL     1      -5.517  -6.472   0.314  0.00  0.00    -0.272 OA
ATOM      4  N   UNL     1      -4.635  -8.505   0.417  0.00  0.00    -0.283 N 
ATOM      5  H   UNL     1      -3.842  -9.055   0.513  0.00  0.00    +0.155 HD
BRANCH   4   6
ATOM      6  C   UNL     1      -5.898  -9.104   0.346  0.00  0.00    +0.035 A 
ATOM      7  C   UNL     1      -6.998  -8.481   0.921  0.00  0.00    +0.023 A 
ATOM      8  C   UNL     1      -8.243  -9.072   0.845  0.00  0.00    +0.004 A 
ATOM      9  C   UNL     1      -8.394 -10.289   0.206  0.00  0.00    +0.028 A 
ATOM     10  C   UNL     1      -7.300 -10.916  -0.363  0.00  0.00    +0.107 A 
ATOM     11  C   UNL     1      -6.053 -10.327  -0.294  0.00  0.00    +0.051 A 
BRANCH  10  12
ATOM     12  S   UNL     1      -7.498 -12.467  -1.175  0.00  0.00    +0.056 S 
ATOM     13  O   UNL     1      -8.859 -12.544  -1.578  0.00  0.00    -0.153 OA
ATOM     14  O   UNL     1      -6.423 -12.582  -2.097  0.00  0.00    -0.153 OA
BRANCH  12  15
ATOM     15  N   UNL     1      -7.274 -13.648  -0.037  0.00  0.00    -0.204 NA
ATOM     16  H   UNL     1      -7.074 -13.405   0.881  0.00  0.00    +0.144 HD
ATOM     17  H   UNL     1      -7.342 -14.582  -0.287  0.00  0.00    +0.144 HD
ENDBRANCH  12  15
ENDBRANCH  10  12
ENDBRANCH   4   6
ENDBRANCH   1   2
BRANCH   1  18
ATOM     18  O   UNL     1      -3.301  -5.080   0.261  0.00  0.00    -0.452 OA
BRANCH  18  19
ATOM     19  C   UNL     1      -2.167  -4.354   0.232  0.00  0.00    +0.340 C 
ATOM     20  O   UNL     1      -1.088  -4.910   0.266  0.00  0.00    -0.245 OA
BRANCH  19  25
ATOM     21  C   UNL     1      -1.137  -0.743   0.064  0.00  0.00    +0.129 A 
ATOM     22  C   UNL     1      -2.374  -0.113   0.025  0.00  0.00    +0.046 A 
ATOM     23  C   UNL     1      -3.537  -0.860   0.055  0.00  0.00    +0.004 A 
ATOM     24  C   UNL     1      -3.476  -2.237   0.122  0.00  0.00    +0.015 A 
ATOM     25  C   UNL     1      -2.237  -2.880   0.161  0.00  0.00    +0.062 A 
ATOM     26  C   UNL     1      -1.063  -2.124   0.126  0.00  0.00    +0.061 A 
BRANCH  21  27
ATOM     27  O   UNL     1       0.003  -0.003   0.035  0.00  0.00    -0.456 OA
BRANCH  27  31
ATOM     28  C   UNL     1       1.110   1.985   3.475  0.00  0.00    +0.000 A 
ATOM     29  C   UNL     1       1.942   2.002   2.371  0.00  0.00    +0.004 A 
ATOM     30  C   UNL     1       1.573   1.337   1.217  0.00  0.00    +0.046 A 
ATOM     31  C   UNL     1       0.368   0.651   1.168  0.00  0.00    +0.128 A 
ATOM     32  C   UNL     1      -0.467   0.640   2.276  0.00  0.00    +0.046 A 
ATOM     33  C   UNL     1      -0.091   1.303   3.429  0.00  0.00    +0.004 A 
ENDBRANCH  27  31
ENDBRANCH  21  27
ENDBRANCH  19  25
ENDBRANCH  18  19
ENDBRANCH   1  18
TORSDOF 9
