REMARK  Name = ZINC12070514
REMARK  15 active torsions:
REMARK  status: ('A' for Active; 'I' for Inactive)
REMARK    1  A    between atoms: C_1  and  C_2
REMARK    2  A    between atoms: C_2  and  O_3
REMARK    3  A    between atoms: O_3  and  C_4
REMARK    4  A    between atoms: C_4  and  C_6
REMARK    5  A    between atoms: N_14  and  C_15
REMARK    6  A    between atoms: C_15  and  C_17
REMARK    7  A    between atoms: C_17  and  C_18
REMARK    8  A    between atoms: C_21  and  S_24
REMARK    9  A    between atoms: S_24  and  C_27
REMARK   10  A    between atoms: C_27  and  C_28
REMARK   11  A    between atoms: C_27  and  C_29
REMARK   12  A    between atoms: N_30  and  C_31
REMARK   13  A    between atoms: C_31  and  C_32
REMARK   14  A    between atoms: C_32  and  S_33
REMARK   15  A    between atoms: S_33  and  C_34
REMARK                            x       y       z     vdW  Elec       q    Type
REMARK                         _______ _______ _______ _____ _____    ______ ____
ROOT
ATOM      1  C   UNL     1       1.511   1.287 -13.658  0.00  0.00    +0.060 A 
ATOM      2  C   UNL     1       2.201   0.601 -12.652  0.00  0.00    +0.017 A 
ATOM      3  C   UNL     1       1.677   0.466 -11.405  0.00  0.00    +0.028 A 
ATOM      4  C   UNL     1       0.422   1.011 -11.081  0.00  0.00    +0.058 A 
ATOM      5  C   UNL     1      -0.258   1.696 -12.103  0.00  0.00    +0.040 A 
ATOM      6  C   UNL     1       0.260   1.839 -13.364  0.00  0.00    +0.032 A 
ATOM      7  S   UNL     1      -1.760   2.217 -11.313  0.00  0.00    -0.052 S 
ATOM      8  C   UNL     1      -1.462   1.550  -9.741  0.00  0.00    +0.166 A 
ATOM      9  N   UNL     1      -2.240   1.600  -8.662  0.00  0.00    -0.156 NA
ATOM     10  N   UNL     1      -0.241   0.967  -9.873  0.00  0.00    -0.320 N 
ENDROOT
BRANCH   1  11
ATOM     11  C   UNL     1       2.094   1.425 -15.006  0.00  0.00    +0.339 C 
ATOM     12  O   UNL     1       1.486   2.023 -15.872  0.00  0.00    -0.245 OA
BRANCH  11  13
ATOM     13  O   UNL     1       3.300   0.889 -15.277  0.00  0.00    -0.461 OA
BRANCH  13  15
ATOM     14  C   UNL     1       5.181   0.393 -16.742  0.00  0.00    +0.048 C 
ATOM     15  C   UNL     1       3.811   1.064 -16.625  0.00  0.00    +0.229 C 
ENDBRANCH  13  15
ENDBRANCH  11  13
ENDBRANCH   1  11
BRANCH   9  16
ATOM     16  C   UNL     1      -1.771   1.197  -7.485  0.00  0.00    +0.243 C 
ATOM     17  O   UNL     1      -0.790   1.732  -7.006  0.00  0.00    -0.273 OA
BRANCH  16  18
ATOM     18  C   UNL     1      -2.456   0.077  -6.745  0.00  0.00    +0.133 C 
BRANCH  18  19
ATOM     19  C   UNL     1      -1.733  -0.184  -5.449  0.00  0.00    -0.038 A 
ATOM     20  C   UNL     1      -2.105   0.491  -4.302  0.00  0.00    +0.006 A 
ATOM     21  C   UNL     1      -1.442   0.251  -3.113  0.00  0.00    +0.027 A 
ATOM     22  C   UNL     1      -0.407  -0.664  -3.071  0.00  0.00    +0.088 A 
ATOM     23  C   UNL     1      -0.032  -1.336  -4.219  0.00  0.00    +0.027 A 
ATOM     24  C   UNL     1      -0.697  -1.099  -5.407  0.00  0.00    +0.006 A 
BRANCH  22  25
ATOM     25  S   UNL     1       0.438  -0.970  -1.555  0.00  0.00    -0.001 S 
ATOM     26  O   UNL     1       0.279   0.225  -0.804  0.00  0.00    -0.169 OA
ATOM     27  O   UNL     1       1.730  -1.415  -1.944  0.00  0.00    -0.169 OA
BRANCH  25  28
ATOM     28  C   UNL     1      -0.482  -2.325  -0.774  0.00  0.00    +0.130 C 
ATOM     29  C   UNL     1      -1.956  -1.937  -0.651  0.00  0.00    +0.032 C 
ATOM     30  C   UNL     1       0.093  -2.595   0.618  0.00  0.00    +0.032 C 
ENDBRANCH  25  28
ENDBRANCH  22  25
ENDBRANCH  18  19
ENDBRANCH  16  18
ENDBRANCH   9  16
BRANCH  10  31
ATOM     31  C   UNL     1       0.371   0.286  -8.729  0.00  0.00    +0.135 C 
BRANCH  31  32
ATOM     32  C   UNL     1       1.387   1.219  -8.065  0.00  0.00    +0.090 C 
BRANCH  32  33
ATOM     33  S   UNL     1       2.046   0.428  -6.571  0.00  0.00    -0.162 S 
ATOM     34  C   UNL     1       3.218   1.645  -5.912  0.00  0.00    +0.084 C 
ENDBRANCH  32  33
ENDBRANCH  31  32
ENDBRANCH  10  31
TORSDOF 11
