REMARK  Name = ZINC49121960
REMARK  4 active torsions:
REMARK  status: ('A' for Active; 'I' for Inactive)
REMARK    1  A    between atoms: C_1  and  C_2
REMARK    2  A    between atoms: C_3  and  C_9
REMARK    3  A    between atoms: C_7  and  N_8
REMARK    4  A    between atoms: N_13  and  C_14
REMARK                            x       y       z     vdW  Elec       q    Type
REMARK                         _______ _______ _______ _____ _____    ______ ____
ROOT
ATOM      1  C   UNL     1      -0.038   0.043  -2.489  0.00  0.00    +0.187 A 
ATOM      2  N   UNL     1      -0.132   1.348  -2.638  0.00  0.00    -0.108 NA
ATOM      3  N   UNL     1      -0.082   1.665  -3.881  0.00  0.00    -0.022 NA
ATOM      4  N   UNL     1       0.046   0.611  -4.612  0.00  0.00    -0.039 NA
ATOM      5  N   UNL     1       0.086  -0.490  -3.739  0.00  0.00    -0.192 N 
ENDROOT
BRANCH   5   6
ATOM      6  C   UNL     1       0.221  -1.843  -4.079  0.00  0.00    +0.084 A 
ATOM      7  C   UNL     1      -0.643  -2.786  -3.538  0.00  0.00    +0.044 A 
ATOM      8  C   UNL     1      -0.507  -4.119  -3.876  0.00  0.00    +0.020 A 
ATOM      9  C   UNL     1       0.489  -4.515  -4.750  0.00  0.00    +0.016 A 
ATOM     10  C   UNL     1       1.351  -3.579  -5.290  0.00  0.00    +0.018 A 
ATOM     11  C   UNL     1       1.217  -2.243  -4.961  0.00  0.00    +0.043 A 
ATOM     12 BR   UNL     1       2.392  -0.962  -5.705  0.00  0.00    -0.048 Br
ATOM     13 BR   UNL     1      -1.684  -5.404  -3.140  0.00  0.00    -0.050 Br
ENDBRANCH   5   6
BRANCH   1  16
ATOM     14  C   UNL     1      -2.087   0.614  -0.530  0.00  0.00    +0.046 C 
ATOM     15  C   UNL     1      -1.039  -0.435  -0.260  0.00  0.00    -0.019 A 
ATOM     16  C   UNL     1      -0.056  -0.702  -1.211  0.00  0.00    +0.026 A 
ATOM     17  C   UNL     1       0.911  -1.674  -0.954  0.00  0.00    +0.012 A 
ATOM     18  C   UNL     1       0.892  -2.369   0.239  0.00  0.00    +0.002 A 
ATOM     19  C   UNL     1      -0.083  -2.105   1.182  0.00  0.00    +0.023 A 
ATOM     20  C   UNL     1      -1.047  -1.134   0.938  0.00  0.00    +0.028 A 
BRANCH  20  21
ATOM     21  N   UNL     1      -2.027  -0.866   1.897  0.00  0.00    -0.358 N 
ATOM     22  H   UNL     1      -2.702  -0.191   1.724  0.00  0.00    +0.142 HD
ATOM     23  H   UNL     1      -2.033  -1.355   2.734  0.00  0.00    +0.142 HD
ENDBRANCH  20  21
ENDBRANCH   1  16
TORSDOF 3
