REMARK  Name = ZINC12500874
REMARK  6 active torsions:
REMARK  status: ('A' for Active; 'I' for Inactive)
REMARK    1  A    between atoms: C_6  and  O_27
REMARK    2  A    between atoms: C_7  and  C_11
REMARK    3  A    between atoms: N_13  and  N_14
REMARK    4  A    between atoms: N_14  and  C_15
REMARK    5  A    between atoms: C_15  and  N_17
REMARK    6  A    between atoms: C_18  and  C_20
REMARK                            x       y       z     vdW  Elec       q    Type
REMARK                         _______ _______ _______ _____ _____    ______ ____
ROOT
ATOM      1  C   UNL     1      -3.721   2.070   0.051  0.00  0.00    +0.264 C 
ATOM      2  O   UNL     1      -4.758   1.436   0.058  0.00  0.00    -0.269 OA
ATOM      3  N   UNL     1      -3.754   3.417   0.058  0.00  0.00    -0.231 N 
ATOM      4  H   UNL     1      -2.927   3.923   0.052  0.00  0.00    +0.173 HD
ENDROOT
BRANCH   1  11
ATOM      5  C   UNL     1       2.376   1.436  -0.013  0.00  0.00    +0.001 A 
ATOM      6  C   UNL     1       2.394   0.042  -0.021  0.00  0.00    +0.001 A 
ATOM      7  C   UNL     1       1.238  -0.675  -0.013  0.00  0.00    +0.008 A 
ATOM      8  C   UNL     1       0.002  -0.004   0.002  0.00  0.00    -0.014 A 
ATOM      9  C   UNL     1      -1.208  -0.718   0.010  0.00  0.00    +0.054 A 
ATOM     10  C   UNL     1      -2.395  -0.047   0.026  0.00  0.00    +0.130 A 
ATOM     11  C   UNL     1      -2.425   1.364   0.034  0.00  0.00    +0.080 A 
ATOM     12  C   UNL     1      -1.246   2.091   0.031  0.00  0.00    +0.025 A 
ATOM     13  C   UNL     1      -0.017   1.415   0.010  0.00  0.00    -0.017 A 
ATOM     14  C   UNL     1       1.200   2.120   0.002  0.00  0.00    +0.008 A 
BRANCH  10  15
ATOM     15  O   UNL     1      -3.560  -0.743   0.034  0.00  0.00    -0.506 OA
ATOM     16  H   UNL     1      -3.889  -0.949   0.920  0.00  0.00    +0.292 HD
ENDBRANCH  10  15
ENDBRANCH   1  11
BRANCH   3  17
ATOM     17  N   UNL     1      -4.984   4.088   0.074  0.00  0.00    -0.245 N 
ATOM     18  H   UNL     1      -5.812   3.582   0.080  0.00  0.00    +0.172 HD
BRANCH  17  19
ATOM     19  C   UNL     1      -5.018   5.435   0.082  0.00  0.00    +0.153 C 
ATOM     20  S   UNL     1      -6.521   6.254   0.102  0.00  0.00    -0.017 S 
BRANCH  19  21
ATOM     21  N   UNL     1      -3.868   6.138   0.074  0.00  0.00    -0.263 N 
ATOM     22  C   UNL     1      -3.901   7.485   0.082  0.00  0.00    +0.251 C 
ATOM     23  O   UNL     1      -4.969   8.066   0.096  0.00  0.00    -0.270 OA
ATOM     24  H   UNL     1      -3.016   5.674   0.063  0.00  0.00    +0.157 HD
BRANCH  22  25
ATOM     25  C   UNL     1      -2.641   8.255   0.073  0.00  0.00    +0.051 A 
ATOM     26  C   UNL     1      -1.413   7.590   0.062  0.00  0.00    +0.014 A 
ATOM     27  C   UNL     1      -0.240   8.316   0.049  0.00  0.00    +0.001 A 
ATOM     28  C   UNL     1      -0.277   9.699   0.056  0.00  0.00    +0.001 A 
ATOM     29  C   UNL     1      -1.489  10.365   0.072  0.00  0.00    +0.016 A 
ATOM     30  C   UNL     1      -2.672   9.652   0.080  0.00  0.00    +0.030 A 
ATOM     31 BR   UNL     1      -4.329  10.563   0.103  0.00  0.00    -0.050 Br
ENDBRANCH  22  25
ENDBRANCH  19  21
ENDBRANCH  17  19
ENDBRANCH   3  17
TORSDOF 6
