REMARK  Name = ZINC18198993
REMARK  9 active torsions:
REMARK  status: ('A' for Active; 'I' for Inactive)
REMARK    1  A    between atoms: C_1  and  O_2
REMARK    2  A    between atoms: O_2  and  C_3
REMARK    3  A    between atoms: C_6  and  C_11
REMARK    4  A    between atoms: C_8  and  O_9
REMARK    5  A    between atoms: O_9  and  C_10
REMARK    6  A    between atoms: C_16  and  C_25
REMARK    7  A    between atoms: C_28  and  O_33
REMARK    8  A    between atoms: C_29  and  O_31
REMARK    9  A    between atoms: O_31  and  C_32
REMARK                            x       y       z     vdW  Elec       q    Type
REMARK                         _______ _______ _______ _____ _____    ______ ____
ROOT
ATOM      1  C   UNL     1      -5.035   1.284   3.490  0.00  0.00    +0.032 C 
ATOM      2  C   UNL     1      -5.142   2.446   2.502  0.00  0.00    +0.060 C 
ATOM      3  C   UNL     1      -4.393   2.106   1.235  0.00  0.00    +0.020 C 
ATOM      4  C   UNL     1      -3.298   1.317   1.268  0.00  0.00    +0.041 C 
ATOM      5  C   UNL     1      -2.513   0.978   0.020  0.00  0.00    +0.176 C 
ATOM      6  N   UNL     1      -3.286   1.326  -1.165  0.00  0.00    -0.219 N 
ATOM      7  C   UNL     1      -4.391   2.111  -1.131  0.00  0.00    +0.220 A 
ATOM      8  N   UNL     1      -4.840   2.233  -2.350  0.00  0.00    -0.180 NA
ATOM      9  C   UNL     1      -4.056   1.541  -3.188  0.00  0.00    +0.233 A 
ATOM     10  N   UNL     1      -3.092   0.970  -2.499  0.00  0.00    -0.132 NA
ATOM     11  N   UNL     1      -4.233   1.442  -4.569  0.00  0.00    -0.326 N 
ATOM     12  N   UNL     1      -4.870   2.633   0.059  0.00  0.00    -0.287 N 
ATOM     13  C   UNL     1      -2.839   0.770   2.480  0.00  0.00    +0.164 C 
ATOM     14  O   UNL     1      -1.844   0.072   2.478  0.00  0.00    -0.292 OA
ATOM     15  C   UNL     1      -3.551   1.030   3.778  0.00  0.00    +0.088 C 
ATOM     16  H   UNL     1      -4.974   1.898  -4.997  0.00  0.00    +0.145 HD
ATOM     17  H   UNL     1      -3.614   0.917  -5.101  0.00  0.00    +0.145 HD
ATOM     18  H   UNL     1      -5.524   3.350   0.063  0.00  0.00    +0.155 HD
ENDROOT
BRANCH   1  22
ATOM     19  C   UNL     1      -7.053   2.294   7.123  0.00  0.00    +0.161 A 
ATOM     20  C   UNL     1      -6.005   3.078   6.668  0.00  0.00    +0.049 A 
ATOM     21  C   UNL     1      -5.354   2.749   5.494  0.00  0.00    +0.008 A 
ATOM     22  C   UNL     1      -5.747   1.638   4.771  0.00  0.00    -0.040 A 
ATOM     23  C   UNL     1      -6.795   0.854   5.216  0.00  0.00    +0.053 A 
ATOM     24  C   UNL     1      -7.447   1.175   6.396  0.00  0.00    +0.162 A 
BRANCH  19  26
ATOM     25  C   UNL     1      -7.234   3.778   8.973  0.00  0.00    +0.277 C 
ATOM     26  O   UNL     1      -7.693   2.616   8.279  0.00  0.00    -0.491 OA
ENDBRANCH  19  26
BRANCH  24  27
ATOM     27  O   UNL     1      -8.475   0.402   6.838  0.00  0.00    -0.491 OA
ATOM     28  C   UNL     1      -8.826  -0.730   6.040  0.00  0.00    +0.277 C 
ENDBRANCH  24  27
ENDBRANCH   1  22
BRANCH   5  29
ATOM     29  C   UNL     1      -1.219   1.751   0.017  0.00  0.00    -0.015 A 
ATOM     30  C   UNL     1      -1.241   3.133   0.030  0.00  0.00    +0.010 A 
ATOM     31  C   UNL     1      -0.057   3.846   0.022  0.00  0.00    +0.049 A 
ATOM     32  C   UNL     1       1.155   3.176   0.008  0.00  0.00    +0.158 A 
ATOM     33  C   UNL     1       1.178   1.785   0.000  0.00  0.00    +0.162 A 
ATOM     34  C   UNL     1      -0.013   1.076   0.008  0.00  0.00    +0.055 A 
BRANCH  33  35
ATOM     35  O   UNL     1       2.365   1.123  -0.014  0.00  0.00    -0.491 OA
ATOM     36  C   UNL     1       2.312  -0.305  -0.020  0.00  0.00    +0.277 C 
ENDBRANCH  33  35
BRANCH  32  37
ATOM     37  O   UNL     1       2.321   3.877  -0.000  0.00  0.00    -0.503 OA
ATOM     38  H   UNL     1       2.650   4.084  -0.886  0.00  0.00    +0.292 HD
ENDBRANCH  32  37
ENDBRANCH   5  29
TORSDOF 6
