REMARK  Name = ZINC00412074
REMARK  5 active torsions:
REMARK  status: ('A' for Active; 'I' for Inactive)
REMARK    1  A    between atoms: C_1  and  C_2
REMARK    2  A    between atoms: C_4  and  C_25
REMARK    3  A    between atoms: C_7  and  C_14
REMARK    4  A    between atoms: C_14  and  N_15
REMARK    5  A    between atoms: N_15  and  C_16
REMARK                            x       y       z     vdW  Elec       q    Type
REMARK                         _______ _______ _______ _____ _____    ______ ____
ROOT
ATOM      1  C   UNL     1      -1.297  -0.767   0.010  0.00  0.00    +0.044 C 
ATOM      2  C   UNL     1       0.002  -0.004   0.002  0.00  0.00    -0.048 A 
ATOM      3  C   UNL     1       1.206  -0.696  -0.013  0.00  0.00    +0.007 A 
ATOM      4  C   UNL     1       2.394  -0.024  -0.021  0.00  0.00    -0.041 A 
ATOM      5  C   UNL     1       2.400   1.375  -0.014  0.00  0.00    +0.002 A 
ATOM      6  C   UNL     1       3.655   2.128  -0.023  0.00  0.00    +0.020 A 
ATOM      7  C   UNL     1       3.599   3.482  -0.016  0.00  0.00    +0.034 A 
ATOM      8  C   UNL     1       2.351   4.142  -0.000  0.00  0.00    +0.254 A 
ATOM      9  O   UNL     1       2.322   5.360   0.005  0.00  0.00    -0.268 OA
ATOM     10  N   UNL     1       1.192   3.459   0.008  0.00  0.00    -0.322 N 
ATOM     11  H   UNL     1       0.326   3.958   0.019  0.00  0.00    +0.169 HD
ATOM     12  C   UNL     1       1.182   2.080   0.002  0.00  0.00    +0.050 A 
ATOM     13  C   UNL     1      -0.017   1.374   0.010  0.00  0.00    +0.029 A 
ATOM     14  C   UNL     1       3.695  -0.785  -0.037  0.00  0.00    +0.044 C 
ENDROOT
BRANCH   7  15
ATOM     15  C   UNL     1       4.873   4.287  -0.025  0.00  0.00    +0.142 C 
BRANCH  15  16
ATOM     16  N   UNL     1       5.207   4.656  -1.403  0.00  0.00    -0.339 N 
ATOM     17  H   UNL     1       4.632   4.378  -2.133  0.00  0.00    +0.146 HD
BRANCH  16  18
ATOM     18  C   UNL     1       6.356   5.411  -1.666  0.00  0.00    +0.031 A 
ATOM     19  C   UNL     1       7.176   5.815  -0.621  0.00  0.00    +0.027 A 
ATOM     20  C   UNL     1       8.313   6.556  -0.880  0.00  0.00    +0.051 A 
ATOM     21  C   UNL     1       8.633   6.907  -2.181  0.00  0.00    +0.166 A 
ATOM     22  C   UNL     1       7.810   6.508  -3.231  0.00  0.00    +0.168 A 
ATOM     23  C   UNL     1       6.673   5.761  -2.971  0.00  0.00    +0.072 A 
ATOM     24  O   UNL     1       8.337   6.974  -4.401  0.00  0.00    -0.453 OA
ATOM     25  C   UNL     1       9.266   8.006  -4.019  0.00  0.00    +0.466 C 
ATOM     26  O   UNL     1       9.677   7.624  -2.694  0.00  0.00    -0.453 OA
ENDBRANCH  16  18
ENDBRANCH  15  16
ENDBRANCH   7  15
TORSDOF 3
