REMARK  Name = ZINC20877791
REMARK  10 active torsions:
REMARK  status: ('A' for Active; 'I' for Inactive)
REMARK    1  A    between atoms: C_1  and  N_2
REMARK    2  A    between atoms: C_6  and  C_13
REMARK    3  A    between atoms: N_9  and  C_12
REMARK    4  A    between atoms: C_13  and  C_15
REMARK    5  A    between atoms: C_13  and  O_37
REMARK    6  A    between atoms: C_15  and  O_16
REMARK    7  A    between atoms: O_16  and  C_17
REMARK    8  A    between atoms: C_20  and  C_23
REMARK    9  A    between atoms: C_23  and  N_24
REMARK   10  A    between atoms: N_24  and  C_25
REMARK                            x       y       z     vdW  Elec       q    Type
REMARK                         _______ _______ _______ _____ _____    ______ ____
ROOT
ATOM      1  C   UNL     1       4.848   0.100  -2.681  0.00  0.00    +0.121 A 
ATOM      2  C   UNL     1       4.325   0.727  -3.802  0.00  0.00    +0.046 A 
ATOM      3  C   UNL     1       4.962   0.602  -5.022  0.00  0.00    +0.009 A 
ATOM      4  C   UNL     1       6.114  -0.155  -5.127  0.00  0.00    -0.030 A 
ATOM      5  C   UNL     1       6.635  -0.785  -4.012  0.00  0.00    +0.009 A 
ATOM      6  C   UNL     1       6.004  -0.659  -2.789  0.00  0.00    +0.046 A 
ENDROOT
BRANCH   1   7
ATOM      7  O   UNL     1       4.227   0.226  -1.479  0.00  0.00    -0.489 OA
BRANCH   7   8
ATOM      8  C   UNL     1       3.041   1.023  -1.442  0.00  0.00    +0.265 C 
BRANCH   8   9
ATOM      9  C   UNL     1       2.487   1.047  -0.015  0.00  0.00    +0.182 C 
BRANCH   9  15
ATOM     10  C   UNL     1      -3.064   4.920   0.056  0.00  0.00    +0.154 C 
ATOM     11  N   UNL     1      -2.573   3.540   0.044  0.00  0.00    -0.295 N 
ATOM     12  C   UNL     1      -1.236   3.151   0.030  0.00  0.00    +0.070 A 
ATOM     13  C   UNL     1      -0.040   3.853   0.023  0.00  0.00    +0.028 A 
ATOM     14  C   UNL     1       1.159   3.168   0.008  0.00  0.00    +0.008 A 
ATOM     15  C   UNL     1       1.173   1.784   0.000  0.00  0.00    -0.014 A 
ATOM     16  C   UNL     1      -0.013   1.076   0.008  0.00  0.00    +0.034 A 
ATOM     17  C   UNL     1      -1.222   1.754   0.017  0.00  0.00    +0.070 A 
ATOM     18  N   UNL     1      -2.551   1.339   0.021  0.00  0.00    -0.295 N 
ATOM     19  C   UNL     1      -3.337   2.432   0.030  0.00  0.00    +0.330 A 
ATOM     20  O   UNL     1      -4.554   2.419   0.036  0.00  0.00    -0.246 OA
ATOM     21  C   UNL     1      -3.015  -0.051   0.016  0.00  0.00    +0.154 C 
ENDBRANCH   9  15
BRANCH   9  22
ATOM     22  O   UNL     1       3.416   1.710   0.845  0.00  0.00    -0.384 OA
ATOM     23  H   UNL     1       4.435   1.314   0.963  0.00  0.00    +0.210 HD
ENDBRANCH   9  22
ENDBRANCH   8   9
ENDBRANCH   7   8
ENDBRANCH   1   7
BRANCH   4  24
ATOM     24  C   UNL     1       6.804  -0.294  -6.460  0.00  0.00    +0.137 C 
BRANCH  24  25
ATOM     25  N   UNL     1       6.266  -1.458  -7.169  0.00  0.00    -0.340 N 
ATOM     26  H   UNL     1       5.478  -2.069  -6.704  0.00  0.00    +0.146 HD
BRANCH  25  27
ATOM     27  C   UNL     1       6.755  -1.792  -8.437  0.00  0.00    +0.029 A 
ATOM     28  C   UNL     1       7.750  -1.018  -9.023  0.00  0.00    +0.025 A 
ATOM     29  C   UNL     1       8.236  -1.342 -10.273  0.00  0.00    +0.029 A 
ATOM     30  C   UNL     1       7.731  -2.443 -10.948  0.00  0.00    +0.067 A 
ATOM     31  C   UNL     1       6.731  -3.222 -10.363  0.00  0.00    +0.069 A 
ATOM     32  C   UNL     1       6.248  -2.897  -9.104  0.00  0.00    +0.050 A 
ATOM     33  N   UNL     1       6.431  -4.239 -11.266  0.00  0.00    -0.306 N 
ATOM     34  H   UNL     1       5.662  -4.986 -11.019  0.00  0.00    +0.170 HD
ATOM     35  C   UNL     1       7.213  -4.087 -12.352  0.00  0.00    +0.325 A 
ATOM     36  O   UNL     1       7.202  -4.811 -13.329  0.00  0.00    -0.247 OA
ATOM     37  N   UNL     1       8.008  -3.013 -12.191  0.00  0.00    -0.306 N 
ATOM     38  H   UNL     1       8.773  -2.565 -12.843  0.00  0.00    +0.170 HD
ENDBRANCH  25  27
ENDBRANCH  24  25
ENDBRANCH   4  24
TORSDOF 8
