REMARK  Name = ZINC57014141
REMARK  7 active torsions:
REMARK  status: ('A' for Active; 'I' for Inactive)
REMARK    1  A    between atoms: C_1  and  C_2
REMARK    2  A    between atoms: C_5  and  C_8
REMARK    3  A    between atoms: C_8  and  C_10
REMARK    4  A    between atoms: C_8  and  N_23
REMARK    5  A    between atoms: C_10  and  N_11
REMARK    6  A    between atoms: N_14  and  N_15
REMARK    7  A    between atoms: N_15  and  C_16
REMARK                            x       y       z     vdW  Elec       q    Type
REMARK                         _______ _______ _______ _____ _____    ______ ____
ROOT
ATOM      1  C   UNL     1      -1.074  -5.189   0.137  0.00  0.00    +0.129 C 
ENDROOT
BRANCH   1   2
ATOM      2  N   UNL     1      -0.539  -6.552   0.087  0.00  0.00    -0.296 N 
ATOM      3  C   UNL     1      -1.346  -7.602   0.341  0.00  0.00    +0.316 C 
ATOM      4  O   UNL     1      -2.517  -7.417   0.611  0.00  0.00    -0.251 OA
ATOM      5  N   UNL     1      -0.854  -8.856   0.296  0.00  0.00    -0.220 N 
ATOM      6  H   UNL     1       0.395  -6.699  -0.128  0.00  0.00    +0.150 HD
ATOM      7  H   UNL     1      -1.434  -9.611   0.479  0.00  0.00    +0.174 HD
BRANCH   5   8
ATOM      8  N   UNL     1       0.496  -9.068  -0.015  0.00  0.00    -0.263 N 
ATOM      9  H   UNL     1       1.076  -8.312  -0.198  0.00  0.00    +0.170 HD
BRANCH   8  10
ATOM     10  C   UNL     1       1.006 -10.369  -0.061  0.00  0.00    +0.045 A 
ATOM     11  C   UNL     1       0.175 -11.452   0.194  0.00  0.00    +0.027 A 
ATOM     12  C   UNL     1       0.681 -12.736   0.148  0.00  0.00    +0.040 A 
ATOM     13  C   UNL     1       2.016 -12.944  -0.154  0.00  0.00    +0.124 A 
ATOM     14  C   UNL     1       2.847 -11.866  -0.410  0.00  0.00    +0.040 A 
ATOM     15  C   UNL     1       2.344 -10.581  -0.370  0.00  0.00    +0.027 A 
ATOM     16  F   UNL     1       2.510 -14.201  -0.199  0.00  0.00    -0.205 F 
ENDBRANCH   8  10
ENDBRANCH   5   8
ENDBRANCH   1   2
BRANCH   1  17
ATOM     17  C   UNL     1       0.072  -4.186  -0.014  0.00  0.00    +0.104 C 
BRANCH  17  22
ATOM     18  C   UNL     1      -1.986   1.185   0.548  0.00  0.00    +0.044 C 
ATOM     19  C   UNL     1      -1.449  -0.216   0.402  0.00  0.00    -0.050 A 
ATOM     20  C   UNL     1      -0.429  -0.475  -0.494  0.00  0.00    +0.003 A 
ATOM     21  C   UNL     1       0.064  -1.760  -0.629  0.00  0.00    +0.005 A 
ATOM     22  C   UNL     1      -0.464  -2.785   0.133  0.00  0.00    -0.029 A 
ATOM     23  C   UNL     1      -1.484  -2.526   1.029  0.00  0.00    +0.005 A 
ATOM     24  C   UNL     1      -1.974  -1.241   1.167  0.00  0.00    +0.003 A 
ENDBRANCH  17  22
BRANCH  17  25
ATOM     25  N   UNL     1       1.081  -4.436   1.023  0.00  0.00    -0.290 NA
ATOM     26  C   UNL     1       2.042  -3.326   1.102  0.00  0.00    +0.113 C 
ATOM     27  C   UNL     1       3.107  -3.654   2.151  0.00  0.00    +0.175 C 
ATOM     28  O   UNL     1       2.470  -3.908   3.406  0.00  0.00    -0.377 OA
ATOM     29  C   UNL     1       1.529  -4.984   3.366  0.00  0.00    +0.175 C 
ATOM     30  C   UNL     1       0.447  -4.670   2.329  0.00  0.00    +0.113 C 
ENDBRANCH  17  25
ENDBRANCH   1  17
TORSDOF 6
