REMARK  Name = ZINC64788598
REMARK  7 active torsions:
REMARK  status: ('A' for Active; 'I' for Inactive)
REMARK    1  A    between atoms: C_1  and  O_2
REMARK    2  A    between atoms: O_2  and  C_3
REMARK    3  A    between atoms: C_8  and  N_9
REMARK    4  A    between atoms: C_21  and  C_24
REMARK    5  A    between atoms: C_27  and  O_31
REMARK    6  A    between atoms: C_28  and  O_30
REMARK    7  A    between atoms: O_31  and  C_32
REMARK                            x       y       z     vdW  Elec       q    Type
REMARK                         _______ _______ _______ _____ _____    ______ ____
ROOT
ATOM      1  N   UNL     1       0.095  -2.778  -0.110  0.00  0.00    -0.186 N 
ATOM      2  C   UNL     1      -1.194  -3.160  -0.213  0.00  0.00    +0.265 C 
ATOM      3  O   UNL     1      -1.867  -2.837  -1.174  0.00  0.00    -0.269 OA
ATOM      4  C   UNL     1      -1.766  -3.980   0.870  0.00  0.00    +0.118 C 
ATOM      5  C   UNL     1      -0.876  -4.324   1.993  0.00  0.00    +0.258 C 
ATOM      6  N   UNL     1       0.394  -3.871   1.961  0.00  0.00    -0.235 N 
ATOM      7  C   UNL     1       0.849  -3.132   0.940  0.00  0.00    +0.320 C 
ATOM      8  O   UNL     1       2.006  -2.759   0.970  0.00  0.00    -0.251 OA
ATOM      9  O   UNL     1      -1.276  -4.997   2.924  0.00  0.00    -0.270 OA
ATOM     10  C   UNL     1      -3.080  -4.409   0.833  0.00  0.00    +0.038 C 
ATOM     11  N   UNL     1      -3.969  -4.155  -0.145  0.00  0.00    -0.283 N 
ATOM     12  N   UNL     1      -5.202  -4.679   0.108  0.00  0.00    -0.235 NA
ATOM     13  C   UNL     1      -5.047  -5.724   1.147  0.00  0.00    +0.108 C 
ATOM     14  C   UNL     1      -3.774  -5.254   1.887  0.00  0.00    +0.077 C 
ATOM     15  H   UNL     1      -5.845  -3.962   0.410  0.00  0.00    +0.145 HD
ATOM     16  H   UNL     1       0.993  -4.088   2.693  0.00  0.00    +0.159 HD
ATOM     17  H   UNL     1      -3.755  -3.653  -0.947  0.00  0.00    +0.166 HD
ENDROOT
BRANCH   1  23
ATOM     18  C   UNL     1       0.606  -0.607  -1.056  0.00  0.00    +0.142 A 
ATOM     19  C   UNL     1       1.173   0.159  -2.062  0.00  0.00    +0.047 A 
ATOM     20  C   UNL     1       1.786  -0.456  -3.137  0.00  0.00    +0.004 A 
ATOM     21  C   UNL     1       1.837  -1.836  -3.213  0.00  0.00    +0.002 A 
ATOM     22  C   UNL     1       1.274  -2.607  -2.214  0.00  0.00    +0.028 A 
ATOM     23  C   UNL     1       0.662  -1.997  -1.129  0.00  0.00    +0.087 A 
BRANCH  18  25
ATOM     24  C   UNL     1      -0.017   1.425   0.010  0.00  0.00    +0.277 C 
ATOM     25  O   UNL     1       0.002  -0.004   0.002  0.00  0.00    -0.493 OA
ENDBRANCH  18  25
ENDBRANCH   1  23
BRANCH  13  26
ATOM     26  C   UNL     1      -6.237  -5.745   2.071  0.00  0.00    -0.025 A 
ATOM     27  C   UNL     1      -6.835  -4.559   2.454  0.00  0.00    +0.009 A 
ATOM     28  C   UNL     1      -7.926  -4.573   3.302  0.00  0.00    +0.050 A 
ATOM     29  C   UNL     1      -8.424  -5.778   3.771  0.00  0.00    +0.161 A 
ATOM     30  C   UNL     1      -7.822  -6.973   3.386  0.00  0.00    +0.159 A 
ATOM     31  C   UNL     1      -6.731  -6.952   2.531  0.00  0.00    +0.054 A 
BRANCH  30  32
ATOM     32  O   UNL     1      -8.306  -8.158   3.843  0.00  0.00    -0.503 OA
ATOM     33  H   UNL     1      -8.987  -8.549   3.279  0.00  0.00    +0.292 HD
ENDBRANCH  30  32
BRANCH  29  34
ATOM     34  O   UNL     1      -9.497  -5.794   4.606  0.00  0.00    -0.491 OA
ATOM     35  C   UNL     1     -10.063  -4.530   4.959  0.00  0.00    +0.277 C 
ENDBRANCH  29  34
ENDBRANCH  13  26
TORSDOF 5
