REMARK  Name = ZINC32087789
REMARK  10 active torsions:
REMARK  status: ('A' for Active; 'I' for Inactive)
REMARK    1  A    between atoms: C_1  and  C_2
REMARK    2  A    between atoms: C_2  and  O_3
REMARK    3  A    between atoms: O_3  and  C_4
REMARK    4  A    between atoms: C_6  and  C_12
REMARK    5  A    between atoms: C_9  and  O_10
REMARK    6  A    between atoms: C_12  and  C_14
REMARK    7  A    between atoms: C_12  and  N_16
REMARK    8  A    between atoms: C_14  and  N_15
REMARK    9  A    between atoms: C_18  and  C_25
REMARK   10  A    between atoms: C_21  and  C_24
REMARK                            x       y       z     vdW  Elec       q    Type
REMARK                         _______ _______ _______ _____ _____    ______ ____
ROOT
ATOM      1  C   UNL     1       0.689  -4.992   0.014  0.00  0.00    +0.070 C 
ENDROOT
BRANCH   1   2
ATOM      2  N   UNL     1       0.272  -6.113  -0.839  0.00  0.00    -0.297 NA
ATOM      3  C   UNL     1       1.199  -7.245  -0.711  0.00  0.00    +0.088 C 
ATOM      4  C   UNL     1       0.658  -8.441  -1.497  0.00  0.00    +0.000 C 
ATOM      5  C   UNL     1       0.502  -8.050  -2.969  0.00  0.00    +0.009 C 
ATOM      6  C   UNL     1      -0.430  -6.839  -3.071  0.00  0.00    +0.000 C 
ATOM      7  C   UNL     1       0.143  -5.689  -2.239  0.00  0.00    +0.088 C 
ATOM      8  C   UNL     1      -0.545  -6.404  -4.534  0.00  0.00    +0.009 C 
ATOM      9  C   UNL     1       1.634  -9.613  -1.380  0.00  0.00    +0.009 C 
ENDBRANCH   1   2
BRANCH   1  12
ATOM     10  C   UNL     1      -0.809  -1.534  -0.250  0.00  0.00    +0.163 A 
ATOM     11  C   UNL     1       0.114  -2.563  -0.147  0.00  0.00    +0.054 A 
ATOM     12  C   UNL     1      -0.317  -3.875  -0.098  0.00  0.00    -0.027 A 
ATOM     13  C   UNL     1      -1.667  -4.166  -0.152  0.00  0.00    +0.029 A 
ATOM     14  C   UNL     1      -2.594  -3.144  -0.256  0.00  0.00    +0.086 A 
ATOM     15  C   UNL     1      -2.168  -1.825  -0.298  0.00  0.00    +0.177 A 
ATOM     16 CL   UNL     1      -4.289  -3.512  -0.324  0.00  0.00    -0.080 Cl
BRANCH  15  17
ATOM     17  O   UNL     1      -3.078  -0.818  -0.394  0.00  0.00    -0.502 OA
ATOM     18  H   UNL     1      -3.300  -0.573  -1.302  0.00  0.00    +0.292 HD
ENDBRANCH  15  17
BRANCH  10  19
ATOM     19  O   UNL     1      -0.386  -0.242  -0.298  0.00  0.00    -0.489 OA
BRANCH  19  21
ATOM     20  C   UNL     1       1.305   1.484  -0.310  0.00  0.00    +0.048 C 
ATOM     21  C   UNL     1       1.024  -0.018  -0.244  0.00  0.00    +0.226 C 
ENDBRANCH  19  21
ENDBRANCH  10  19
ENDBRANCH   1  12
BRANCH   1  22
ATOM     22  C   UNL     1       0.770  -5.461   1.468  0.00  0.00    -0.063 C 
BRANCH  22  23
ATOM     23  N   UNL     1       1.252  -4.360   2.312  0.00  0.00    +0.379 N 
ATOM     24  H   UNL     1       1.401  -4.696   3.251  0.00  0.00    -0.090 HD
ATOM     25  H   UNL     1       2.121  -4.006   1.939  0.00  0.00    -0.090 HD
ATOM     26  H   UNL     1       0.566  -3.620   2.324  0.00  0.00    -0.090 HD
ENDBRANCH  22  23
ENDBRANCH   1  22
TORSDOF 7
