REMARK  Name = ZINC20692864
REMARK  6 active torsions:
REMARK  status: ('A' for Active; 'I' for Inactive)
REMARK    1  A    between atoms: C_1  and  C_2
REMARK    2  A    between atoms: C_5  and  N_27
REMARK    3  A    between atoms: C_9  and  C_18
REMARK    4  A    between atoms: C_21  and  O_26
REMARK    5  A    between atoms: C_22  and  O_24
REMARK    6  A    between atoms: O_24  and  C_25
REMARK                            x       y       z     vdW  Elec       q    Type
REMARK                         _______ _______ _______ _____ _____    ______ ____
ROOT
ATOM      1  C   UNL     1      -5.101   1.973  -2.795  0.00  0.00    +0.045 C 
ATOM      2  C   UNL     1      -4.974   1.435  -1.393  0.00  0.00    -0.029 A 
ATOM      3  C   UNL     1      -5.740   0.357  -1.006  0.00  0.00    +0.007 A 
ATOM      4  C   UNL     1      -5.634  -0.147   0.277  0.00  0.00    +0.033 A 
ATOM      5  C   UNL     1      -4.751   0.432   1.168  0.00  0.00    +0.132 A 
ATOM      6  C   UNL     1      -3.977   1.508   0.788  0.00  0.00    +0.011 A 
ATOM      7  C   UNL     1      -4.083   2.036  -0.502  0.00  0.00    +0.037 A 
ATOM      8  N   UNL     1      -3.370   3.146  -0.954  0.00  0.00    -0.336 N 
ATOM      9  C   UNL     1      -2.379   3.716  -0.028  0.00  0.00    +0.105 C 
ATOM     10  C   UNL     1      -2.981   3.659   1.361  0.00  0.00    +0.029 C 
ATOM     11  C   UNL     1      -3.012   2.139   1.714  0.00  0.00    +0.051 C 
ATOM     12  C   UNL     1      -3.199   2.140   3.186  0.00  0.00    -0.023 C 
ATOM     13  C   UNL     1      -2.671   3.255   3.678  0.00  0.00    -0.030 C 
ATOM     14  C   UNL     1      -2.114   4.115   2.540  0.00  0.00    +0.033 C 
ATOM     15  H   UNL     1      -3.518   3.596  -1.947  0.00  0.00    +0.147 HD
ENDROOT
BRANCH   9  16
ATOM     16  C   UNL     1      -1.109   2.904  -0.071  0.00  0.00    -0.023 A 
ATOM     17  C   UNL     1      -1.146   1.588  -0.493  0.00  0.00    +0.009 A 
ATOM     18  C   UNL     1       0.015   0.838  -0.530  0.00  0.00    +0.049 A 
ATOM     19  C   UNL     1       1.220   1.409  -0.153  0.00  0.00    +0.158 A 
ATOM     20  C   UNL     1       1.258   2.735   0.267  0.00  0.00    +0.162 A 
ATOM     21  C   UNL     1       0.090   3.479   0.306  0.00  0.00    +0.054 A 
BRANCH  20  22
ATOM     22  O   UNL     1       2.438   3.299   0.637  0.00  0.00    -0.491 OA
ATOM     23  C   UNL     1       2.402   4.665   1.056  0.00  0.00    +0.277 C 
ENDBRANCH  20  22
BRANCH  19  24
ATOM     24  O   UNL     1       2.364   0.674  -0.194  0.00  0.00    -0.503 OA
ATOM     25  H   UNL     1       3.320   1.128   0.105  0.00  0.00    +0.292 HD
ENDBRANCH  19  24
ENDBRANCH   9  16
BRANCH   5  26
ATOM     26  N   UNL     1      -4.635  -0.107   2.542  0.00  0.00    +0.057 N 
ATOM     27  O   UNL     1      -3.539  -0.385   2.996  0.00  0.00    -0.126 OA
ATOM     28  O   UNL     1      -5.634  -0.272   3.218  0.00  0.00    -0.126 OA
ENDBRANCH   5  26
TORSDOF 4
