REMARK  Name = ZINC39362774
REMARK  7 active torsions:
REMARK  status: ('A' for Active; 'I' for Inactive)
REMARK    1  A    between atoms: C_6  and  N_7
REMARK    2  A    between atoms: C_8  and  C_10
REMARK    3  A    between atoms: C_10  and  S_11
REMARK    4  A    between atoms: S_11  and  C_12
REMARK    5  A    between atoms: C_15  and  C_25
REMARK    6  A    between atoms: N_17  and  C_18
REMARK    7  A    between atoms: C_25  and  C_26
REMARK                            x       y       z     vdW  Elec       q    Type
REMARK                         _______ _______ _______ _____ _____    ______ ____
ROOT
ATOM      1  C   UNL     1      -3.746  -5.383  -0.218  0.00  0.00    +0.180 C 
ATOM      2  N   UNL     1      -4.846  -4.711  -0.275  0.00  0.00    -0.162 NA
ATOM      3  N   UNL     1      -5.920  -5.517  -0.669  0.00  0.00    -0.246 N 
ATOM      4  C   UNL     1      -5.366  -6.867  -0.875  0.00  0.00    +0.187 C 
ATOM      5  N   UNL     1      -3.934  -6.712  -0.569  0.00  0.00    -0.258 N 
ATOM      6  H   UNL     1      -6.843  -5.243  -0.784  0.00  0.00    +0.170 HD
ENDROOT
BRANCH   5   7
ATOM      7  C   UNL     1      -2.956  -7.710  -0.618  0.00  0.00    +0.038 A 
ATOM      8  C   UNL     1      -2.996  -8.769   0.279  0.00  0.00    +0.026 A 
ATOM      9  C   UNL     1      -2.029  -9.754   0.228  0.00  0.00    +0.040 A 
ATOM     10  C   UNL     1      -1.019  -9.686  -0.717  0.00  0.00    +0.124 A 
ATOM     11  C   UNL     1      -0.977  -8.630  -1.613  0.00  0.00    +0.040 A 
ATOM     12  C   UNL     1      -1.945  -7.646  -1.569  0.00  0.00    +0.026 A 
ATOM     13  F   UNL     1      -0.074 -10.649  -0.765  0.00  0.00    -0.205 F 
ENDBRANCH   5   7
BRANCH   1  14
ATOM     14  S   UNL     1      -2.191  -4.694   0.243  0.00  0.00    -0.079 S 
BRANCH  14  15
ATOM     15  C   UNL     1      -2.566  -2.952   0.583  0.00  0.00    +0.173 C 
BRANCH  15  17
ATOM     16  N   UNL     1      -1.342  -0.925   1.298  0.00  0.00    -0.285 N 
ATOM     17  C   UNL     1      -1.305  -2.237   0.994  0.00  0.00    +0.227 C 
ATOM     18  O   UNL     1      -0.256  -2.843   1.051  0.00  0.00    -0.275 OA
ATOM     19  H   UNL     1      -2.192  -0.457   1.325  0.00  0.00    +0.155 HD
BRANCH  16  25
ATOM     20  C   UNL     1       1.022  -0.593   0.928  0.00  0.00    +0.026 A 
ATOM     21  C   UNL     1       2.192   0.088   1.200  0.00  0.00    +0.040 A 
ATOM     22  C   UNL     1       2.192   1.127   2.117  0.00  0.00    +0.124 A 
ATOM     23  C   UNL     1       1.020   1.484   2.762  0.00  0.00    +0.040 A 
ATOM     24  C   UNL     1      -0.152   0.805   2.492  0.00  0.00    +0.026 A 
ATOM     25  C   UNL     1      -0.155  -0.236   1.573  0.00  0.00    +0.034 A 
ATOM     26  F   UNL     1       3.338   1.791   2.383  0.00  0.00    -0.205 F 
ENDBRANCH  16  25
ENDBRANCH  15  17
ENDBRANCH  14  15
ENDBRANCH   1  14
BRANCH   4  27
ATOM     27  C   UNL     1      -5.557  -7.310  -2.327  0.00  0.00    +0.097 C 
BRANCH  27  28
ATOM     28  C   UNL     1      -7.029  -7.364  -2.646  0.00  0.00    +0.029 A 
ATOM     29  N   UNL     1      -7.758  -8.482  -2.342  0.00  0.00    -0.311 N 
ATOM     30  C   UNL     1      -9.073  -8.540  -2.622  0.00  0.00    +0.327 A 
ATOM     31  O   UNL     1      -9.701  -9.543  -2.344  0.00  0.00    -0.247 OA
ATOM     32  N   UNL     1      -9.702  -7.503  -3.206  0.00  0.00    -0.275 N 
ATOM     33  C   UNL     1      -9.019  -6.384  -3.522  0.00  0.00    +0.254 A 
ATOM     34  O   UNL     1      -9.588  -5.446  -4.050  0.00  0.00    -0.268 OA
ATOM     35  C   UNL     1      -7.636  -6.308  -3.228  0.00  0.00    +0.091 A 
ATOM     36  H   UNL     1     -10.650  -7.562  -3.401  0.00  0.00    +0.173 HD
ATOM     37  H   UNL     1      -7.323  -9.239  -1.921  0.00  0.00    +0.170 HD
ENDBRANCH  27  28
ENDBRANCH   4  27
TORSDOF 7
