REMARK  Name = ZINC44963477
REMARK  8 active torsions:
REMARK  status: ('A' for Active; 'I' for Inactive)
REMARK    1  A    between atoms: C_1  and  C_2
REMARK    2  A    between atoms: C_9  and  O_32
REMARK    3  A    between atoms: C_16  and  O_31
REMARK    4  A    between atoms: C_19  and  C_30
REMARK    5  A    between atoms: C_24  and  C_25
REMARK    6  A    between atoms: C_24  and  O_29
REMARK    7  A    between atoms: C_25  and  C_27
REMARK    8  A    between atoms: C_27  and  O_28
REMARK                            x       y       z     vdW  Elec       q    Type
REMARK                         _______ _______ _______ _____ _____    ______ ____
ROOT
ATOM      1  C   UNL     1      -0.315   1.780  -0.314  0.00  0.00    +0.016 C 
ATOM      2  C   UNL     1      -0.362   0.238  -0.291  0.00  0.00    -0.002 C 
ATOM      3  C   UNL     1      -1.835  -0.108  -0.426  0.00  0.00    +0.019 C 
ATOM      4  C   UNL     1      -2.649   0.360   0.781  0.00  0.00    +0.080 C 
ATOM      5  C   UNL     1      -2.059  -0.282   2.018  0.00  0.00    +0.156 C 
ATOM      6  O   UNL     1      -2.776  -0.675   2.920  0.00  0.00    -0.293 OA
ATOM      7  C   UNL     1      -0.604  -0.408   2.098  0.00  0.00    +0.048 C 
ATOM      8  C   UNL     1       0.178  -0.145   1.047  0.00  0.00    -0.032 C 
ATOM      9  C   UNL     1       1.671  -0.219   1.280  0.00  0.00    +0.141 C 
ATOM     10  C   UNL     1       2.337  -0.912   0.108  0.00  0.00    +0.040 C 
ATOM     11  C   UNL     1       1.965  -0.294  -1.229  0.00  0.00    +0.002 C 
ATOM     12  C   UNL     1       0.470  -0.176  -1.468  0.00  0.00    +0.031 C 
ATOM     13  C   UNL     1      -0.025  -1.318  -2.336  0.00  0.00    +0.119 C 
ATOM     14  C   UNL     1       0.539  -1.165  -3.768  0.00  0.00    +0.041 C 
ATOM     15  C   UNL     1       1.999  -0.791  -3.699  0.00  0.00    +0.009 C 
ATOM     16  C   UNL     1       2.567  -1.175  -2.317  0.00  0.00    +0.002 C 
ATOM     17  C   UNL     1       4.077  -0.976  -2.523  0.00  0.00    +0.008 C 
ATOM     18  C   UNL     1       4.320  -1.464  -3.976  0.00  0.00    +0.043 C 
ATOM     19  C   UNL     1       2.926  -1.577  -4.642  0.00  0.00    +0.131 C 
ATOM     20  C   UNL     1       2.185   0.700  -3.990  0.00  0.00    +0.015 C 
ENDROOT
BRANCH  19  21
ATOM     21  C   UNL     1       2.943  -0.937  -6.004  0.00  0.00    +0.190 C 
ATOM     22  O   UNL     1       3.812  -0.149  -6.290  0.00  0.00    -0.292 OA
BRANCH  21  23
ATOM     23  C   UNL     1       1.876  -1.280  -7.011  0.00  0.00    +0.233 C 
BRANCH  23  24
ATOM     24  O   UNL     1       2.107  -0.551  -8.217  0.00  0.00    -0.387 OA
ATOM     25  H   UNL     1       1.457  -0.723  -8.912  0.00  0.00    +0.210 HD
ENDBRANCH  23  24
ENDBRANCH  21  23
ENDBRANCH  19  21
BRANCH  19  26
ATOM     26  O   UNL     1       2.523  -2.940  -4.725  0.00  0.00    -0.380 OA
ATOM     27  H   UNL     1       3.075  -3.478  -5.308  0.00  0.00    +0.211 HD
ENDBRANCH  19  26
BRANCH  13  28
ATOM     28  O   UNL     1      -1.445  -1.352  -2.469  0.00  0.00    -0.391 OA
ATOM     29  H   UNL     1      -1.772  -2.076  -3.020  0.00  0.00    +0.210 HD
ENDBRANCH  13  28
BRANCH   9  30
ATOM     30  O   UNL     1       2.210   1.094   1.449  0.00  0.00    -0.387 OA
ATOM     31  H   UNL     1       1.835   1.580   2.196  0.00  0.00    +0.210 HD
ENDBRANCH   9  30
TORSDOF 6
