REMARK  Name = ZINC00134451
REMARK  5 active torsions:
REMARK  status: ('A' for Active; 'I' for Inactive)
REMARK    1  A    between atoms: C_1  and  C_2
REMARK    2  A    between atoms: N_4  and  C_5
REMARK    3  A    between atoms: C_8  and  C_11
REMARK    4  A    between atoms: N_13  and  N_14
REMARK    5  A    between atoms: C_15  and  C_16
REMARK                            x       y       z     vdW  Elec       q    Type
REMARK                         _______ _______ _______ _____ _____    ______ ____
ROOT
ATOM      1  C   UNL     1      -5.056   3.485  -0.164  0.00  0.00    +0.263 C 
ATOM      2  O   UNL     1      -6.071   2.818  -0.094  0.00  0.00    -0.268 OA
ATOM      3  N   UNL     1      -5.136   4.825  -0.282  0.00  0.00    -0.203 N 
ATOM      4  H   UNL     1      -4.327   5.356  -0.338  0.00  0.00    +0.178 HD
ENDROOT
BRANCH   1   8
ATOM      5  C   UNL     1      -1.258   1.589  -0.035  0.00  0.00    +0.033 A 
ATOM      6  C   UNL     1      -1.339   2.973  -0.152  0.00  0.00    +0.024 A 
ATOM      7  C   UNL     1      -2.569   3.590  -0.199  0.00  0.00    +0.015 A 
ATOM      8  C   UNL     1      -3.736   2.826  -0.119  0.00  0.00    +0.038 A 
ATOM      9  C   UNL     1      -3.651   1.436   0.004  0.00  0.00    +0.015 A 
ATOM     10  C   UNL     1      -2.418   0.825   0.046  0.00  0.00    +0.024 A 
BRANCH   5  14
ATOM     11  C   UNL     1       2.347   0.861   0.748  0.00  0.00    +0.109 C 
ATOM     12  C   UNL     1       1.026   1.574   0.617  0.00  0.00    +0.214 C 
ATOM     13  O   UNL     1       0.895   2.696   1.060  0.00  0.00    -0.276 OA
ATOM     14  N   UNL     1      -0.011   0.966   0.007  0.00  0.00    -0.286 N 
ATOM     15  H   UNL     1       0.111   0.097  -0.405  0.00  0.00    +0.155 HD
ENDBRANCH   5  14
ENDBRANCH   1   8
BRANCH   3  16
ATOM     16  N   UNL     1      -6.389   5.450  -0.325  0.00  0.00    -0.187 NA
ATOM     17  C   UNL     1      -6.467   6.741  -0.440  0.00  0.00    +0.139 C 
BRANCH  17  18
ATOM     18  C   UNL     1      -7.785   7.399  -0.485  0.00  0.00    +0.013 A 
ATOM     19  C   UNL     1      -7.872   8.788  -0.602  0.00  0.00    +0.011 A 
ATOM     20  C   UNL     1      -9.109   9.397  -0.648  0.00  0.00    +0.001 A 
ATOM     21  C   UNL     1     -10.263   8.636  -0.568  0.00  0.00    +0.001 A 
ATOM     22  C   UNL     1     -10.185   7.261  -0.448  0.00  0.00    +0.020 A 
ATOM     23  C   UNL     1      -8.954   6.636  -0.405  0.00  0.00    +0.050 A 
ATOM     24 CL   UNL     1      -8.858   4.910  -0.252  0.00  0.00    -0.083 Cl
ENDBRANCH  17  18
ENDBRANCH   3  16
TORSDOF 4
