REMARK  Name = ZINC44973478
REMARK  7 active torsions:
REMARK  status: ('A' for Active; 'I' for Inactive)
REMARK    1  A    between atoms: C_1  and  C_2
REMARK    2  A    between atoms: C_2  and  C_3
REMARK    3  A    between atoms: C_3  and  S_4
REMARK    4  A    between atoms: S_4  and  C_5
REMARK    5  A    between atoms: C_14  and  C_16
REMARK    6  A    between atoms: C_25  and  C_27
REMARK    7  A    between atoms: C_25  and  C_28
REMARK                            x       y       z     vdW  Elec       q    Type
REMARK                         _______ _______ _______ _____ _____    ______ ____
ROOT
ATOM      1  C   UNL     1       1.589  -2.718  -2.758  0.00  0.00    +0.192 A 
ATOM      2  N   UNL     1       2.026  -1.740  -3.538  0.00  0.00    -0.207 NA
ATOM      3  C   UNL     1       2.672  -2.008  -4.671  0.00  0.00    +0.126 A 
ATOM      4  C   UNL     1       2.883  -3.338  -5.028  0.00  0.00    +0.044 A 
ATOM      5  C   UNL     1       2.407  -4.333  -4.186  0.00  0.00    +0.133 A 
ATOM      6  N   UNL     1       1.776  -3.994  -3.066  0.00  0.00    -0.206 NA
ATOM      7  N   UNL     1       2.596  -5.663  -4.521  0.00  0.00    -0.302 N 
ATOM      8  C   UNL     1       2.888  -6.021  -5.809  0.00  0.00    +0.017 C 
ATOM      9  C   UNL     1       3.371  -5.119  -6.689  0.00  0.00    +0.024 C 
ATOM     10  C   UNL     1       3.610  -3.684  -6.292  0.00  0.00    +0.090 C 
ATOM     11  C   UNL     1       3.675  -5.490  -8.011  0.00  0.00    +0.162 C 
ATOM     12  O   UNL     1       4.089  -4.650  -8.785  0.00  0.00    -0.292 OA
ATOM     13  C   UNL     1       3.500  -6.906  -8.486  0.00  0.00    +0.086 C 
ATOM     14  C   UNL     1       3.662  -7.856  -7.294  0.00  0.00    -0.023 C 
ATOM     15  C   UNL     1       2.650  -7.455  -6.218  0.00  0.00    +0.058 C 
ATOM     16  C   UNL     1       3.395  -9.294  -7.741  0.00  0.00    +0.011 C 
ATOM     17  C   UNL     1       5.081  -7.743  -6.734  0.00  0.00    +0.011 C 
ATOM     18  N   UNL     1       3.126  -0.981  -5.483  0.00  0.00    -0.343 N 
ATOM     19  H   UNL     1       2.521  -6.347  -3.837  0.00  0.00    +0.153 HD
ATOM     20  H   UNL     1       2.974  -0.057  -5.228  0.00  0.00    +0.144 HD
ATOM     21  H   UNL     1       3.595  -1.185  -6.307  0.00  0.00    +0.144 HD
ENDROOT
BRANCH  10  22
ATOM     22  C   UNL     1       5.087  -3.469  -6.085  0.00  0.00    -0.035 A 
ATOM     23  C   UNL     1       5.758  -4.178  -5.106  0.00  0.00    +0.004 A 
ATOM     24  C   UNL     1       7.114  -3.981  -4.917  0.00  0.00    +0.000 A 
ATOM     25  C   UNL     1       7.797  -3.075  -5.705  0.00  0.00    +0.000 A 
ATOM     26  C   UNL     1       7.126  -2.366  -6.684  0.00  0.00    +0.000 A 
ATOM     27  C   UNL     1       5.772  -2.567  -6.877  0.00  0.00    +0.004 A 
ENDBRANCH  10  22
BRANCH   1  28
ATOM     28  S   UNL     1       0.743  -2.311  -1.267  0.00  0.00    -0.086 S 
BRANCH  28  29
ATOM     29  C   UNL     1       0.718  -0.497  -1.257  0.00  0.00    +0.077 C 
BRANCH  29  31
ATOM     30  C   UNL     1      -0.019   1.526   0.010  0.00  0.00    +0.004 C 
ATOM     31  C   UNL     1       0.002  -0.004   0.002  0.00  0.00    +0.008 C 
ENDBRANCH  29  31
ENDBRANCH  28  29
ENDBRANCH   1  28
TORSDOF 4
