REMARK  Name = ZINC16361816
REMARK  11 active torsions:
REMARK  status: ('A' for Active; 'I' for Inactive)
REMARK    1  A    between atoms: C_1  and  C_2
REMARK    2  A    between atoms: C_2  and  O_3
REMARK    3  A    between atoms: O_3  and  C_4
REMARK    4  A    between atoms: C_6  and  C_12
REMARK    5  A    between atoms: C_9  and  O_10
REMARK    6  A    between atoms: C_14  and  C_21
REMARK    7  A    between atoms: C_15  and  C_20
REMARK    8  A    between atoms: N_23  and  C_24
REMARK    9  A    between atoms: C_29  and  C_30
REMARK   10  A    between atoms: C_30  and  O_32
REMARK   11  A    between atoms: O_32  and  C_33
REMARK                            x       y       z     vdW  Elec       q    Type
REMARK                         _______ _______ _______ _____ _____    ______ ____
ROOT
ATOM      1  C   UNL     1       2.521   0.236   0.042  0.00  0.00    +0.139 C 
ATOM      2  C   UNL     1       1.266  -0.614   0.026  0.00  0.00    +0.056 C 
ATOM      3  C   UNL     1       1.415  -1.954  -0.035  0.00  0.00    +0.017 C 
ATOM      4  N   UNL     1       2.655  -2.523  -0.092  0.00  0.00    -0.300 N 
ATOM      5  C   UNL     1       3.796  -1.822  -0.080  0.00  0.00    +0.135 C 
ATOM      6  S   UNL     1       5.285  -2.663  -0.149  0.00  0.00    -0.019 S 
ATOM      7  N   UNL     1       3.809  -0.476  -0.016  0.00  0.00    -0.315 N 
ATOM      8  C   UNL     1       0.193  -2.836  -0.046  0.00  0.00    +0.061 C 
ATOM      9  H   UNL     1       2.713  -3.491  -0.139  0.00  0.00    +0.154 HD
ATOM     10  H   UNL     1       4.647   0.012  -0.009  0.00  0.00    +0.149 HD
ENDROOT
BRANCH   1  13
ATOM     11  C   UNL     1       2.192   3.176   2.392  0.00  0.00    +0.163 A 
ATOM     12  C   UNL     1       2.207   2.413   1.235  0.00  0.00    +0.055 A 
ATOM     13  C   UNL     1       2.505   1.064   1.301  0.00  0.00    -0.018 A 
ATOM     14  C   UNL     1       2.783   0.473   2.519  0.00  0.00    +0.025 A 
ATOM     15  C   UNL     1       2.775   1.230   3.677  0.00  0.00    +0.063 A 
ATOM     16  C   UNL     1       2.477   2.583   3.617  0.00  0.00    +0.173 A 
ATOM     17 BR   UNL     1       3.163   0.420   5.341  0.00  0.00    -0.046 Br
BRANCH  16  18
ATOM     18  O   UNL     1       2.463   3.329   4.755  0.00  0.00    -0.503 OA
ATOM     19  H   UNL     1       1.602   3.361   5.194  0.00  0.00    +0.292 HD
ENDBRANCH  16  18
BRANCH  11  20
ATOM     20  O   UNL     1       1.898   4.503   2.328  0.00  0.00    -0.489 OA
BRANCH  20  22
ATOM     21  C   UNL     1       1.340   6.538   1.152  0.00  0.00    +0.048 C 
ATOM     22  C   UNL     1       1.508   5.021   1.055  0.00  0.00    +0.226 C 
ENDBRANCH  20  22
ENDBRANCH  11  20
ENDBRANCH   1  13
BRANCH   2  23
ATOM     23  C   UNL     1      -0.019  -0.021   0.079  0.00  0.00    +0.248 C 
ATOM     24  O   UNL     1      -0.553   0.367  -0.944  0.00  0.00    -0.270 OA
ATOM     25  N   UNL     1      -0.651   0.112   1.262  0.00  0.00    -0.281 N 
ATOM     26  H   UNL     1      -0.262  -0.267   2.066  0.00  0.00    +0.155 HD
BRANCH  25  27
ATOM     27  C   UNL     1      -1.860   0.797   1.331  0.00  0.00    +0.048 A 
ATOM     28  C   UNL     1      -2.169   1.764   0.383  0.00  0.00    +0.024 A 
ATOM     29  C   UNL     1      -3.369   2.442   0.454  0.00  0.00    +0.002 A 
ATOM     30  C   UNL     1      -4.273   2.167   1.468  0.00  0.00    +0.001 A 
ATOM     31  C   UNL     1      -3.984   1.211   2.417  0.00  0.00    +0.017 A 
ATOM     32  C   UNL     1      -2.775   0.511   2.356  0.00  0.00    +0.080 A 
BRANCH  32  33
ATOM     33  C   UNL     1      -2.462  -0.516   3.365  0.00  0.00    +0.341 C 
ATOM     34  O   UNL     1      -1.373  -1.055   3.365  0.00  0.00    -0.245 OA
BRANCH  33  35
ATOM     35  O   UNL     1      -3.383  -0.858   4.287  0.00  0.00    -0.464 OA
ATOM     36  C   UNL     1      -2.969  -1.794   5.317  0.00  0.00    +0.280 C 
ENDBRANCH  33  35
ENDBRANCH  32  33
ENDBRANCH  25  27
ENDBRANCH   2  23
TORSDOF 8
