REMARK  Name = ZINC14476366
REMARK  6 active torsions:
REMARK  status: ('A' for Active; 'I' for Inactive)
REMARK    1  A    between atoms: C_4  and  C_7
REMARK    2  A    between atoms: C_7  and  O_8
REMARK    3  A    between atoms: O_8  and  C_9
REMARK    4  A    between atoms: C_14  and  C_15
REMARK    5  A    between atoms: C_26  and  S_31
REMARK    6  A    between atoms: S_31  and  N_34
REMARK                            x       y       z     vdW  Elec       q    Type
REMARK                         _______ _______ _______ _____ _____    ______ ____
ROOT
ATOM      1  C   UNL     1      -2.557   3.865   0.047  0.00  0.00    +0.108 C 
ATOM      2  C   UNL     1      -2.938   4.205   1.491  0.00  0.00    +0.029 C 
ATOM      3  C   UNL     1      -1.671   4.795   2.177  0.00  0.00    +0.033 C 
ATOM      4  C   UNL     1      -0.885   3.562   2.582  0.00  0.00    -0.030 C 
ATOM      5  C   UNL     1      -1.675   2.519   2.659  0.00  0.00    -0.023 C 
ATOM      6  C   UNL     1      -3.092   2.909   2.312  0.00  0.00    +0.049 C 
ATOM      7  C   UNL     1      -3.790   1.821   1.560  0.00  0.00    -0.018 A 
ATOM      8  C   UNL     1      -4.219   0.700   2.256  0.00  0.00    +0.034 A 
ATOM      9  C   UNL     1      -4.872  -0.325   1.602  0.00  0.00    +0.105 A 
ATOM     10  C   UNL     1      -5.106  -0.246   0.241  0.00  0.00    +0.030 A 
ATOM     11  C   UNL     1      -4.683   0.864  -0.462  0.00  0.00    +0.025 A 
ATOM     12  C   UNL     1      -4.026   1.895   0.196  0.00  0.00    +0.031 A 
ATOM     13  N   UNL     1      -3.602   3.013  -0.531  0.00  0.00    -0.336 N 
ATOM     14  H   UNL     1      -3.989   3.219  -1.397  0.00  0.00    +0.147 HD
ENDROOT
BRANCH   1  20
ATOM     15  C   UNL     1      -0.054   3.838  -0.089  0.00  0.00    +0.126 A 
ATOM     16  C   UNL     1       1.157   3.159  -0.103  0.00  0.00    +0.046 A 
ATOM     17  C   UNL     1       1.176   1.782   0.001  0.00  0.00    +0.004 A 
ATOM     18  C   UNL     1      -0.009   1.080   0.119  0.00  0.00    +0.001 A 
ATOM     19  C   UNL     1      -1.216   1.753   0.128  0.00  0.00    +0.009 A 
ATOM     20  C   UNL     1      -1.241   3.131   0.031  0.00  0.00    +0.015 A 
BRANCH  15  21
ATOM     21  O   UNL     1      -0.076   5.193  -0.190  0.00  0.00    -0.487 OA
BRANCH  21  22
ATOM     22  C   UNL     1       1.185   5.855  -0.310  0.00  0.00    +0.264 C 
BRANCH  22  26
ATOM     23  C   UNL     1       0.559  10.071  -0.596  0.00  0.00    +0.000 A 
ATOM     24  C   UNL     1       0.725   9.479   0.642  0.00  0.00    +0.000 A 
ATOM     25  C   UNL     1       0.928   8.115   0.735  0.00  0.00    +0.007 A 
ATOM     26  C   UNL     1       0.964   7.342  -0.411  0.00  0.00    -0.010 A 
ATOM     27  C   UNL     1       0.803   7.935  -1.649  0.00  0.00    +0.007 A 
ATOM     28  C   UNL     1       0.595   9.298  -1.742  0.00  0.00    +0.000 A 
ENDBRANCH  22  26
ENDBRANCH  21  22
ENDBRANCH  15  21
ENDBRANCH   1  20
BRANCH   9  29
ATOM     29  S   UNL     1      -5.409  -1.740   2.504  0.00  0.00    +0.056 S 
ATOM     30  O   UNL     1      -5.555  -1.329   3.856  0.00  0.00    -0.153 OA
ATOM     31  O   UNL     1      -6.477  -2.313   1.763  0.00  0.00    -0.153 OA
BRANCH  29  32
ATOM     32  N   UNL     1      -4.170  -2.839   2.475  0.00  0.00    -0.204 NA
ATOM     33  H   UNL     1      -3.344  -2.626   2.011  0.00  0.00    +0.144 HD
ATOM     34  H   UNL     1      -4.269  -3.694   2.921  0.00  0.00    +0.144 HD
ENDBRANCH  29  32
ENDBRANCH   9  29
TORSDOF 6
