REMARK  Name = ZINC00146421
REMARK  3 active torsions:
REMARK  status: ('A' for Active; 'I' for Inactive)
REMARK    1  A    between atoms: C_1  and  C_2
REMARK    2  A    between atoms: C_2  and  C_17
REMARK    3  A    between atoms: N_7  and  C_8
REMARK                            x       y       z     vdW  Elec       q    Type
REMARK                         _______ _______ _______ _____ _____    ______ ____
ROOT
ATOM      1  C   UNL     1      -4.900   1.394  -0.465  0.00  0.00    +0.058 C 
ATOM      2  C   UNL     1      -3.665   1.760   0.360  0.00  0.00    +0.131 C 
ATOM      3  N   UNL     1      -3.357   3.184   0.185  0.00  0.00    -0.226 NA
ATOM      4  C   UNL     1      -2.119   3.599   0.204  0.00  0.00    +0.213 C 
ATOM      5  N   UNL     1      -1.086   2.751   0.344  0.00  0.00    -0.185 NA
ATOM      6  C   UNL     1      -1.254   1.449   0.204  0.00  0.00    +0.189 C 
ATOM      7  N   UNL     1      -2.509   0.977  -0.104  0.00  0.00    -0.248 N 
ATOM      8  N   UNL     1      -0.205   0.588   0.368  0.00  0.00    -0.331 N 
ATOM      9  N   UNL     1      -1.864   4.951   0.083  0.00  0.00    -0.328 N 
ATOM     10  C   UNL     1      -3.926   1.467   1.839  0.00  0.00    +0.058 C 
ATOM     11  H   UNL     1      -0.355  -0.370   0.345  0.00  0.00    +0.145 HD
ATOM     12  H   UNL     1       0.691   0.935   0.503  0.00  0.00    +0.145 HD
ATOM     13  H   UNL     1      -2.599   5.576  -0.016  0.00  0.00    +0.145 HD
ATOM     14  H   UNL     1      -0.950   5.275   0.095  0.00  0.00    +0.145 HD
ENDROOT
BRANCH   7  15
ATOM     15  C   UNL     1      -2.680  -0.205  -0.832  0.00  0.00    +0.039 A 
ATOM     16  C   UNL     1      -3.208  -1.332  -0.215  0.00  0.00    +0.024 A 
ATOM     17  C   UNL     1      -3.381  -2.496  -0.939  0.00  0.00    +0.017 A 
ATOM     18  C   UNL     1      -3.018  -2.544  -2.273  0.00  0.00    +0.018 A 
ATOM     19  C   UNL     1      -2.487  -1.424  -2.888  0.00  0.00    +0.017 A 
ATOM     20  C   UNL     1      -2.317  -0.256  -2.172  0.00  0.00    +0.024 A 
ATOM     21 BR   UNL     1      -3.250  -4.141  -3.257  0.00  0.00    -0.050 Br
ENDBRANCH   7  15
TORSDOF 1
