REMARK  Name = ZINC45521056
REMARK  7 active torsions:
REMARK  status: ('A' for Active; 'I' for Inactive)
REMARK    1  A    between atoms: C_4  and  C_7
REMARK    2  A    between atoms: C_7  and  C_8
REMARK    3  A    between atoms: C_8  and  C_10
REMARK    4  A    between atoms: C_8  and  N_26
REMARK    5  A    between atoms: N_12  and  C_13
REMARK    6  A    between atoms: C_17  and  C_19
REMARK    7  A    between atoms: C_20  and  C_21
REMARK                            x       y       z     vdW  Elec       q    Type
REMARK                         _______ _______ _______ _____ _____    ______ ____
ROOT
ATOM      1  C   UNL     1       5.422  -1.804   1.381  0.00  0.00    +0.238 C 
ATOM      2  O   UNL     1       6.507  -1.280   1.517  0.00  0.00    -0.273 OA
ATOM      3  N   UNL     1       5.334  -3.138   1.209  0.00  0.00    -0.284 N 
ATOM      4  H   UNL     1       4.465  -3.566   1.168  0.00  0.00    +0.155 HD
ENDROOT
BRANCH   3   5
ATOM      5  C   UNL     1       6.498  -3.906   1.090  0.00  0.00    +0.035 A 
ATOM      6  C   UNL     1       6.520  -5.008   0.243  0.00  0.00    +0.023 A 
ATOM      7  C   UNL     1       7.667  -5.771   0.121  0.00  0.00    +0.003 A 
ATOM      8  C   UNL     1       8.799  -5.444   0.839  0.00  0.00    +0.017 A 
ATOM      9  C   UNL     1       8.788  -4.337   1.693  0.00  0.00    +0.027 A 
ATOM     10  C   UNL     1       7.630  -3.564   1.812  0.00  0.00    +0.040 A 
BRANCH   9  11
ATOM     11  C   UNL     1       9.961  -3.994   2.440  0.00  0.00    -0.060 C 
ATOM     12  C   UNL     1      10.922  -3.713   3.053  0.00  0.00    -0.054 C 
BRANCH  12  13
ATOM     13  C   UNL     1      12.095  -3.371   3.799  0.00  0.00    +0.062 A 
ATOM     14  C   UNL     1      13.332  -3.993   3.816  0.00  0.00    +0.024 A 
ATOM     15  C   UNL     1      14.315  -3.471   4.625  0.00  0.00    +0.009 A 
ATOM     16  C   UNL     1      14.043  -2.373   5.377  0.00  0.00    +0.046 A 
ATOM     17  S   UNL     1      12.346  -2.026   4.947  0.00  0.00    -0.088 S 
ENDBRANCH  12  13
ENDBRANCH   9  11
ENDBRANCH   3   5
BRANCH   1  18
ATOM     18  C   UNL     1       4.171  -0.964   1.405  0.00  0.00    +0.165 C 
BRANCH  18  19
ATOM     19  N   UNL     1       4.454   0.315   2.060  0.00  0.00    -0.288 N 
ATOM     20  C   UNL     1       5.390   1.140   1.551  0.00  0.00    +0.298 C 
ATOM     21  O   UNL     1       6.000   0.822   0.548  0.00  0.00    -0.253 OA
ATOM     22  N   UNL     1       5.651   2.317   2.154  0.00  0.00    -0.313 N 
ATOM     23  H   UNL     1       3.968   0.569   2.861  0.00  0.00    +0.151 HD
ATOM     24  H   UNL     1       5.165   2.571   2.954  0.00  0.00    +0.146 HD
ATOM     25  H   UNL     1       6.325   2.911   1.787  0.00  0.00    +0.146 HD
ENDBRANCH  18  19
BRANCH  18  26
ATOM     26  C   UNL     1       3.699  -0.710  -0.028  0.00  0.00    +0.067 C 
BRANCH  26  30
ATOM     27  C   UNL     1      -0.030   1.371   0.046  0.00  0.00    +0.000 A 
ATOM     28  C   UNL     1       1.156   2.080   0.028  0.00  0.00    +0.000 A 
ATOM     29  C   UNL     1       2.363   1.406   0.005  0.00  0.00    +0.004 A 
ATOM     30  C   UNL     1       2.383   0.024  -0.001  0.00  0.00    -0.045 A 
ATOM     31  C   UNL     1       1.197  -0.684   0.017  0.00  0.00    +0.004 A 
ATOM     32  C   UNL     1      -0.010  -0.011   0.040  0.00  0.00    +0.000 A 
ENDBRANCH  26  30
ENDBRANCH  18  26
ENDBRANCH   1  18
TORSDOF 7
