REMARK  Name = ZINC37769899
REMARK  10 active torsions:
REMARK  status: ('A' for Active; 'I' for Inactive)
REMARK    1  A    between atoms: C_1  and  C_2
REMARK    2  A    between atoms: C_2  and  C_3
REMARK    3  A    between atoms: C_3  and  C_5
REMARK    4  A    between atoms: C_3  and  C_6
REMARK    5  A    between atoms: C_6  and  C_8
REMARK    6  A    between atoms: C_6  and  N_23
REMARK    7  A    between atoms: N_10  and  C_11
REMARK    8  A    between atoms: C_12  and  C_19
REMARK    9  A    between atoms: C_19  and  O_21
REMARK   10  A    between atoms: O_21  and  C_22
REMARK                            x       y       z     vdW  Elec       q    Type
REMARK                         _______ _______ _______ _____ _____    ______ ____
ROOT
ATOM      1  C   UNL     1      -2.999  -1.961   0.207  0.00  0.00    +0.203 C 
ATOM      2  O   UNL     1      -3.642  -1.847  -0.815  0.00  0.00    -0.277 OA
ATOM      3  N   UNL     1      -3.549  -2.553   1.286  0.00  0.00    -0.285 N 
ATOM      4  H   UNL     1      -3.010  -2.716   2.077  0.00  0.00    +0.155 HD
ENDROOT
BRANCH   3   5
ATOM      5  C   UNL     1      -4.890  -2.930   1.267  0.00  0.00    +0.062 A 
ATOM      6  C   UNL     1      -5.759  -2.496   2.280  0.00  0.00    +0.082 A 
ATOM      7  C   UNL     1      -7.102  -2.881   2.249  0.00  0.00    +0.032 A 
ATOM      8  C   UNL     1      -7.564  -3.682   1.226  0.00  0.00    +0.020 A 
ATOM      9  C   UNL     1      -6.703  -4.109   0.227  0.00  0.00    +0.032 A 
ATOM     10  C   UNL     1      -5.374  -3.731   0.241  0.00  0.00    +0.041 A 
ATOM     11 BR   UNL     1      -4.213  -4.313  -1.133  0.00  0.00    -0.048 Br
ATOM     12 BR   UNL     1      -9.382  -4.201   1.186  0.00  0.00    -0.050 Br
BRANCH   6  13
ATOM     13  C   UNL     1      -5.258  -1.641   3.370  0.00  0.00    +0.341 C 
ATOM     14  O   UNL     1      -4.116  -1.227   3.342  0.00  0.00    -0.245 OA
BRANCH  13  15
ATOM     15  O   UNL     1      -6.066  -1.317   4.399  0.00  0.00    -0.464 OA
ATOM     16  C   UNL     1      -5.515  -0.485   5.421  0.00  0.00    +0.280 C 
ENDBRANCH  13  15
ENDBRANCH   6  13
ENDBRANCH   3   5
BRANCH   1  17
ATOM     17  C   UNL     1      -1.586  -1.442   0.271  0.00  0.00    +0.016 C 
BRANCH  17  18
ATOM     18  N   UNL     1      -1.057  -1.292  -1.091  0.00  0.00    +0.386 N 
ATOM     19  H   UNL     1      -1.632  -0.642  -1.606  0.00  0.00    -0.089 HD
ATOM     20  H   UNL     1      -0.111  -0.945  -1.049  0.00  0.00    -0.089 HD
ATOM     21  H   UNL     1      -1.066  -2.188  -1.556  0.00  0.00    -0.089 HD
ENDBRANCH  17  18
BRANCH  17  22
ATOM     22  C   UNL     1      -1.573  -0.084   0.975  0.00  0.00    -0.020 C 
ATOM     23  C   UNL     1      -2.444   0.903   0.195  0.00  0.00    +0.006 C 
BRANCH  22  25
ATOM     24  C   UNL     1      -0.107   1.740   1.851  0.00  0.00    +0.004 C 
ATOM     25  C   UNL     1      -0.138   0.444   1.039  0.00  0.00    -0.001 C 
ENDBRANCH  22  25
ENDBRANCH  17  22
ENDBRANCH   1  17
TORSDOF 7
