REMARK  Name = ZINC36610253
REMARK  8 active torsions:
REMARK  status: ('A' for Active; 'I' for Inactive)
REMARK    1  A    between atoms: C_4  and  N_7
REMARK    2  A    between atoms: N_7  and  C_8
REMARK    3  A    between atoms: C_8  and  C_10
REMARK    4  A    between atoms: C_8  and  C_16
REMARK    5  A    between atoms: N_18  and  C_19
REMARK    6  A    between atoms: C_25  and  C_27
REMARK    7  A    between atoms: C_31  and  O_34
REMARK    8  A    between atoms: C_32  and  O_33
REMARK                            x       y       z     vdW  Elec       q    Type
REMARK                         _______ _______ _______ _____ _____    ______ ____
ROOT
ATOM      1  N   UNL     1       4.093   0.180   0.620  0.00  0.00    -0.255 N 
ATOM      2  C   UNL     1       4.683   0.146   1.831  0.00  0.00    +0.255 C 
ATOM      3  O   UNL     1       4.198   0.759   2.762  0.00  0.00    -0.269 OA
ENDROOT
BRANCH   1   7
ATOM      4  C   UNL     1       1.281   3.131  -0.242  0.00  0.00    +0.000 A 
ATOM      5  C   UNL     1       0.867   1.835   0.009  0.00  0.00    +0.002 A 
ATOM      6  C   UNL     1       1.797   0.855   0.295  0.00  0.00    +0.023 A 
ATOM      7  C   UNL     1       3.149   1.171   0.330  0.00  0.00    +0.037 A 
ATOM      8  C   UNL     1       3.561   2.473   0.077  0.00  0.00    +0.023 A 
ATOM      9  C   UNL     1       2.627   3.449  -0.208  0.00  0.00    +0.002 A 
ENDBRANCH   1   7
BRANCH   2  10
ATOM     10  C   UNL     1       5.918  -0.636   2.027  0.00  0.00    +0.082 A 
ATOM     11  C   UNL     1       6.061  -1.888   1.421  0.00  0.00    +0.017 A 
ATOM     12  C   UNL     1       7.216  -2.615   1.607  0.00  0.00    +0.005 A 
ATOM     13  C   UNL     1       8.241  -2.114   2.393  0.00  0.00    +0.049 A 
ATOM     14  C   UNL     1       8.114  -0.876   2.999  0.00  0.00    +0.159 A 
ATOM     15  C   UNL     1       6.956  -0.127   2.817  0.00  0.00    +0.171 A 
BRANCH  15  16
ATOM     16  O   UNL     1       6.830   1.090   3.406  0.00  0.00    -0.503 OA
ATOM     17  H   UNL     1       6.439   1.060   4.290  0.00  0.00    +0.292 HD
ENDBRANCH  15  16
BRANCH  14  18
ATOM     18  O   UNL     1       9.124  -0.390   3.770  0.00  0.00    -0.503 OA
ATOM     19  H   UNL     1       9.773   0.135   3.283  0.00  0.00    +0.292 HD
ENDBRANCH  14  18
ENDBRANCH   2  10
BRANCH   1  20
ATOM     20  C   UNL     1       4.440  -0.819  -0.393  0.00  0.00    +0.170 C 
BRANCH  20  21
ATOM     21  C   UNL     1       4.102  -0.276  -1.783  0.00  0.00    +0.019 C 
ATOM     22  C   UNL     1       4.025  -1.435  -2.779  0.00  0.00    +0.006 C 
ATOM     23  C   UNL     1       3.687  -0.891  -4.168  0.00  0.00    +0.000 C 
ATOM     24  C   UNL     1       4.775   0.089  -4.611  0.00  0.00    +0.000 C 
ATOM     25  C   UNL     1       4.853   1.248  -3.615  0.00  0.00    +0.000 C 
ATOM     26  C   UNL     1       5.190   0.705  -2.225  0.00  0.00    +0.006 C 
ENDBRANCH  20  21
BRANCH  20  27
ATOM     27  C   UNL     1       3.655  -2.081  -0.143  0.00  0.00    +0.234 C 
ATOM     28  O   UNL     1       2.533  -2.017   0.313  0.00  0.00    -0.274 OA
ATOM     29  N   UNL     1       4.200  -3.281  -0.426  0.00  0.00    -0.311 N 
ATOM     30  H   UNL     1       5.056  -3.330  -0.880  0.00  0.00    +0.149 HD
BRANCH  29  31
ATOM     31  C   UNL     1       3.501  -4.511  -0.047  0.00  0.00    +0.073 C 
ATOM     32  C   UNL     1       2.490  -4.878  -1.136  0.00  0.00    +0.022 C 
ATOM     33  C   UNL     1       1.759  -6.163  -0.740  0.00  0.00    +0.002 C 
ATOM     34  C   UNL     1       2.772  -7.298  -0.582  0.00  0.00    +0.000 C 
ATOM     35  C   UNL     1       3.783  -6.931   0.506  0.00  0.00    +0.002 C 
ATOM     36  C   UNL     1       4.514  -5.646   0.111  0.00  0.00    +0.022 C 
ENDBRANCH  29  31
ENDBRANCH  20  27
ENDBRANCH   1  20
TORSDOF 8
