REMARK  Name = ZINC01136290
REMARK  7 active torsions:
REMARK  status: ('A' for Active; 'I' for Inactive)
REMARK    1  A    between atoms: C_1  and  C_2
REMARK    2  A    between atoms: C_2  and  O_3
REMARK    3  A    between atoms: O_3  and  C_4
REMARK    4  A    between atoms: C_4  and  C_6
REMARK    5  A    between atoms: C_7  and  C_22
REMARK    6  A    between atoms: C_12  and  C_14
REMARK    7  A    between atoms: C_17  and  O_21
REMARK                            x       y       z     vdW  Elec       q    Type
REMARK                         _______ _______ _______ _____ _____    ______ ____
ROOT
ATOM      1  C   UNL     1      -2.846  -2.414  -0.365  0.00  0.00    +0.083 C 
ATOM      2  C   UNL     1      -2.983  -3.744  -0.086  0.00  0.00    +0.054 C 
ATOM      3  N   UNL     1      -4.196  -4.258   0.308  0.00  0.00    -0.268 N 
ATOM      4  C   UNL     1      -5.303  -3.518   0.444  0.00  0.00    +0.305 C 
ATOM      5  O   UNL     1      -6.331  -4.062   0.798  0.00  0.00    -0.252 OA
ATOM      6  N   UNL     1      -5.320  -2.193   0.203  0.00  0.00    -0.288 N 
ATOM      7  C   UNL     1      -4.072  -1.536  -0.219  0.00  0.00    +0.144 C 
ATOM      8  H   UNL     1      -4.252  -5.208   0.498  0.00  0.00    +0.156 HD
ATOM      9  H   UNL     1      -6.137  -1.682   0.309  0.00  0.00    +0.151 HD
ENDROOT
BRANCH   7  10
ATOM     10  C   UNL     1      -3.751  -0.454   0.779  0.00  0.00    -0.021 A 
ATOM     11  C   UNL     1      -3.798  -0.728   2.134  0.00  0.00    +0.009 A 
ATOM     12  C   UNL     1      -3.505   0.262   3.051  0.00  0.00    +0.047 A 
ATOM     13  C   UNL     1      -3.163   1.533   2.614  0.00  0.00    +0.135 A 
ATOM     14  C   UNL     1      -3.116   1.806   1.254  0.00  0.00    +0.083 A 
ATOM     15  C   UNL     1      -3.405   0.810   0.339  0.00  0.00    +0.029 A 
ATOM     16 CL   UNL     1      -2.688   3.396   0.701  0.00  0.00    -0.080 Cl
BRANCH  13  17
ATOM     17  O   UNL     1      -2.874   2.509   3.515  0.00  0.00    -0.505 OA
ATOM     18  H   UNL     1      -1.939   2.556   3.758  0.00  0.00    +0.292 HD
ENDBRANCH  13  17
ENDBRANCH   7  10
BRANCH   2  19
ATOM     19  C   UNL     1      -1.815  -4.640  -0.208  0.00  0.00    -0.003 A 
ATOM     20  C   UNL     1      -0.705  -4.463   0.621  0.00  0.00    +0.010 A 
ATOM     21  C   UNL     1       0.382  -5.303   0.501  0.00  0.00    +0.001 A 
ATOM     22  C   UNL     1       0.374  -6.320  -0.438  0.00  0.00    +0.000 A 
ATOM     23  C   UNL     1      -0.722  -6.501  -1.262  0.00  0.00    +0.001 A 
ATOM     24  C   UNL     1      -1.818  -5.671  -1.150  0.00  0.00    +0.010 A 
ENDBRANCH   2  19
BRANCH   1  25
ATOM     25  C   UNL     1      -1.608  -1.877  -0.770  0.00  0.00    +0.339 C 
ATOM     26  O   UNL     1      -0.665  -2.617  -0.984  0.00  0.00    -0.245 OA
BRANCH  25  27
ATOM     27  O   UNL     1      -1.467  -0.543  -0.920  0.00  0.00    -0.462 OA
BRANCH  27  29
ATOM     28  C   UNL     1      -0.218   1.457  -1.447  0.00  0.00    +0.048 C 
ATOM     29  C   UNL     1      -0.184  -0.068  -1.332  0.00  0.00    +0.229 C 
ENDBRANCH  27  29
ENDBRANCH  25  27
ENDBRANCH   1  25
TORSDOF 6
