REMARK  Name = ZINC25394153
REMARK  9 active torsions:
REMARK  status: ('A' for Active; 'I' for Inactive)
REMARK    1  A    between atoms: C_1  and  C_2
REMARK    2  A    between atoms: C_2  and  C_3
REMARK    3  A    between atoms: C_3  and  C_26
REMARK    4  A    between atoms: N_6  and  N_10
REMARK    5  A    between atoms: C_11  and  C_13
REMARK    6  A    between atoms: C_13  and  C_14
REMARK    7  A    between atoms: C_14  and  C_16
REMARK    8  A    between atoms: C_14  and  N_17
REMARK    9  A    between atoms: C_18  and  C_20
REMARK                            x       y       z     vdW  Elec       q    Type
REMARK                         _______ _______ _______ _____ _____    ______ ____
ROOT
ATOM      1  N   UNL     1       2.382   1.606  -0.011  0.00  0.00    -0.224 N 
ATOM      2  C   UNL     1       3.106   1.692  -1.144  0.00  0.00    +0.231 C 
ATOM      3  O   UNL     1       2.603   2.141  -2.152  0.00  0.00    -0.274 OA
ATOM      4  H   UNL     1       2.837   1.199   0.904  0.00  0.00    +0.174 HD
ENDROOT
BRANCH   1   8
ATOM      5  C   UNL     1      -1.235   2.107   0.018  0.00  0.00    +0.139 C 
ATOM      6  C   UNL     1      -0.014   1.208   0.009  0.00  0.00    +0.268 C 
ATOM      7  O   UNL     1       0.002  -0.004   0.002  0.00  0.00    -0.271 OA
ATOM      8  N   UNL     1       1.048   2.037   0.003  0.00  0.00    -0.137 N 
ATOM      9  C   UNL     1       0.673   3.321   0.013  0.00  0.00    +0.327 C 
ATOM     10  O   UNL     1       1.453   4.253   0.010  0.00  0.00    -0.251 OA
ATOM     11  N   UNL     1      -0.664   3.465   0.026  0.00  0.00    -0.280 N 
ATOM     12  H   UNL     1      -1.329   4.341   0.039  0.00  0.00    +0.152 HD
BRANCH   5  13
ATOM     13  C   UNL     1      -2.067   1.885  -1.218  0.00  0.00    -0.015 A 
ATOM     14  C   UNL     1      -3.075   0.940  -1.213  0.00  0.00    +0.006 A 
ATOM     15  C   UNL     1      -3.841   0.740  -2.346  0.00  0.00    +0.000 A 
ATOM     16  C   UNL     1      -3.592   1.478  -3.488  0.00  0.00    +0.000 A 
ATOM     17  C   UNL     1      -2.580   2.420  -3.495  0.00  0.00    +0.000 A 
ATOM     18  C   UNL     1      -1.817   2.623  -2.361  0.00  0.00    +0.006 A 
ENDBRANCH   5  13
BRANCH   5  20
ATOM     19  C   UNL     1      -1.256   2.274   2.511  0.00  0.00    +0.007 C 
ATOM     20  C   UNL     1      -2.068   1.870   1.279  0.00  0.00    +0.037 C 
ENDBRANCH   5  20
ENDBRANCH   1   8
BRANCH   2  21
ATOM     21  C   UNL     1       4.540   1.229  -1.159  0.00  0.00    +0.119 C 
BRANCH  21  22
ATOM     22  C   UNL     1       5.128   1.434  -2.556  0.00  0.00    +0.079 C 
ATOM     23  C   UNL     1       6.541   0.851  -2.606  0.00  0.00    +0.028 C 
BRANCH  22  24
ATOM     24  N   UNL     1       5.180   2.866  -2.859  0.00  0.00    -0.308 N 
ATOM     25  C   UNL     1       5.168   3.285  -4.140  0.00  0.00    +0.244 C 
ATOM     26  O   UNL     1       5.115   2.474  -5.044  0.00  0.00    -0.270 OA
ATOM     27  H   UNL     1       5.228   3.600  -2.041  0.00  0.00    +0.149 HD
BRANCH  25  28
ATOM     28  C   UNL     1       5.221   4.731  -4.446  0.00  0.00    +0.037 A 
ATOM     29  C   UNL     1       5.276   5.665  -3.410  0.00  0.00    +0.013 A 
ATOM     30  C   UNL     1       5.330   7.012  -3.702  0.00  0.00    +0.001 A 
ATOM     31  C   UNL     1       5.319   7.438  -5.018  0.00  0.00    +0.000 A 
ATOM     32  C   UNL     1       5.258   6.518  -6.050  0.00  0.00    +0.001 A 
ATOM     33  C   UNL     1       5.210   5.168  -5.771  0.00  0.00    +0.013 A 
ENDBRANCH  25  28
ENDBRANCH  22  24
ENDBRANCH  21  22
ENDBRANCH   2  21
TORSDOF 7
