REMARK  Name = ZINC47986134
REMARK  6 active torsions:
REMARK  status: ('A' for Active; 'I' for Inactive)
REMARK    1  A    between atoms: C_1  and  C_2
REMARK    2  A    between atoms: C_5  and  C_24
REMARK    3  A    between atoms: C_7  and  N_8
REMARK    4  A    between atoms: C_14  and  C_17
REMARK    5  A    between atoms: C_20  and  O_23
REMARK    6  A    between atoms: N_26  and  C_27
REMARK                            x       y       z     vdW  Elec       q    Type
REMARK                         _______ _______ _______ _____ _____    ______ ____
ROOT
ATOM      1  N   UNL     1       0.024  -0.007   2.417  0.00  0.00    -0.269 N 
ATOM      2  C   UNL     1      -0.057  -0.682   3.581  0.00  0.00    +0.307 C 
ATOM      3  O   UNL     1      -0.039  -1.898   3.581  0.00  0.00    -0.252 OA
ATOM      4  N   UNL     1      -0.156  -0.010   4.745  0.00  0.00    -0.281 N 
ATOM      5  C   UNL     1      -0.131  -0.712   6.040  0.00  0.00    +0.114 C 
ATOM      6  C   UNL     1       1.094  -0.225   6.817  0.00  0.00    +0.054 C 
ATOM      7  C   UNL     1       1.199   1.270   6.746  0.00  0.00    -0.041 C 
ATOM      8  C   UNL     1       0.599   2.012   5.846  0.00  0.00    -0.004 C 
ATOM      9  C   UNL     1      -0.288   1.454   4.773  0.00  0.00    +0.137 C 
ATOM     10  H   UNL     1       0.048   0.963   2.420  0.00  0.00    +0.156 HD
ENDROOT
BRANCH   1  17
ATOM     11  C   UNL     1      -0.890   1.316   0.074  0.00  0.00    +0.045 C 
ATOM     12  C   UNL     1      -0.365  -0.096   0.035  0.00  0.00    -0.029 A 
ATOM     13  C   UNL     1      -0.314  -0.779  -1.166  0.00  0.00    +0.006 A 
ATOM     14  C   UNL     1       0.166  -2.072  -1.210  0.00  0.00    +0.013 A 
ATOM     15  C   UNL     1       0.602  -2.695  -0.039  0.00  0.00    +0.038 A 
ATOM     16  C   UNL     1       0.551  -2.006   1.173  0.00  0.00    +0.036 A 
ATOM     17  C   UNL     1       0.072  -0.705   1.205  0.00  0.00    +0.038 A 
BRANCH  15  18
ATOM     18  C   UNL     1       1.116  -4.081  -0.083  0.00  0.00    +0.244 C 
ATOM     19  O   UNL     1       1.495  -4.621   0.938  0.00  0.00    -0.270 OA
ATOM     20  N   UNL     1       1.163  -4.745  -1.254  0.00  0.00    -0.308 N 
ATOM     21  H   UNL     1       0.861  -4.314  -2.069  0.00  0.00    +0.149 HD
BRANCH  20  22
ATOM     22  C   UNL     1       1.673  -6.118  -1.298  0.00  0.00    +0.073 C 
ATOM     23  C   UNL     1       2.626  -6.482  -2.437  0.00  0.00    +0.024 C 
ATOM     24  C   UNL     1       1.192  -7.014  -2.441  0.00  0.00    +0.024 C 
ENDBRANCH  20  22
ENDBRANCH  15  18
ENDBRANCH   1  17
BRANCH   7  25
ATOM     25  C   UNL     1       2.033   1.951   7.757  0.00  0.00    -0.022 A 
ATOM     26  C   UNL     1       3.412   1.735   7.787  0.00  0.00    +0.012 A 
ATOM     27  C   UNL     1       4.187   2.373   8.732  0.00  0.00    +0.046 A 
ATOM     28  C   UNL     1       3.598   3.229   9.653  0.00  0.00    +0.117 A 
ATOM     29  C   UNL     1       2.227   3.446   9.626  0.00  0.00    +0.046 A 
ATOM     30  C   UNL     1       1.446   2.817   8.681  0.00  0.00    +0.012 A 
BRANCH  28  31
ATOM     31  O   UNL     1       4.366   3.856  10.582  0.00  0.00    -0.507 OA
ATOM     32  H   UNL     1       4.706   4.715  10.297  0.00  0.00    +0.292 HD
ENDBRANCH  28  31
ENDBRANCH   7  25
TORSDOF 5
