REMARK  Name = ZINC18206055
REMARK  6 active torsions:
REMARK  status: ('A' for Active; 'I' for Inactive)
REMARK    1  A    between atoms: C_1  and  O_2
REMARK    2  A    between atoms: O_2  and  C_3
REMARK    3  A    between atoms: C_6  and  N_9
REMARK    4  A    between atoms: C_13  and  N_14
REMARK    5  A    between atoms: N_14  and  C_15
REMARK    6  A    between atoms: C_19  and  N_21
REMARK                            x       y       z     vdW  Elec       q    Type
REMARK                         _______ _______ _______ _____ _____    ______ ____
ROOT
ATOM      1  N   UNL     1       2.463  -2.457  -4.305  0.00  0.00    -0.217 N 
ATOM      2  C   UNL     1       2.602  -3.798  -4.306  0.00  0.00    +0.263 C 
ATOM      3  O   UNL     1       2.219  -4.467  -3.364  0.00  0.00    -0.269 OA
ATOM      4  C   UNL     1       3.230  -4.433  -5.478  0.00  0.00    +0.113 C 
ATOM      5  C   UNL     1       3.406  -5.802  -5.550  0.00  0.00    +0.090 C 
ATOM      6  C   UNL     1       3.663  -3.543  -6.571  0.00  0.00    +0.256 C 
ATOM      7  O   UNL     1       4.189  -3.993  -7.572  0.00  0.00    -0.270 OA
ATOM      8  N   UNL     1       3.459  -2.217  -6.432  0.00  0.00    -0.263 N 
ATOM      9  C   UNL     1       2.876  -1.708  -5.338  0.00  0.00    +0.150 C 
ATOM     10  S   UNL     1       2.652  -0.013  -5.251  0.00  0.00    -0.018 S 
ATOM     11  H   UNL     1       3.738  -1.617  -7.142  0.00  0.00    +0.157 HD
ENDROOT
BRANCH   1  15
ATOM     12  C   UNL     1       0.692  -0.595  -1.019  0.00  0.00    +0.120 A 
ATOM     13  C   UNL     1      -0.102  -1.164  -2.004  0.00  0.00    +0.047 A 
ATOM     14  C   UNL     1       0.484  -1.780  -3.092  0.00  0.00    +0.027 A 
ATOM     15  C   UNL     1       1.867  -1.830  -3.200  0.00  0.00    +0.043 A 
ATOM     16  C   UNL     1       2.661  -1.260  -2.213  0.00  0.00    +0.027 A 
ATOM     17  C   UNL     1       2.074  -0.640  -1.129  0.00  0.00    +0.047 A 
BRANCH  12  19
ATOM     18  C   UNL     1      -1.313   0.022   0.101  0.00  0.00    +0.277 C 
ATOM     19  O   UNL     1       0.115   0.013   0.052  0.00  0.00    -0.495 OA
ENDBRANCH  12  19
ENDBRANCH   1  15
BRANCH   5  20
ATOM     20  N   UNL     1       4.101  -6.340  -6.574  0.00  0.00    -0.320 N 
ATOM     21  H   UNL     1       4.547  -5.763  -7.214  0.00  0.00    +0.152 HD
BRANCH  20  22
ATOM     22  C   UNL     1       4.178  -7.729  -6.713  0.00  0.00    +0.033 A 
ATOM     23  C   UNL     1       3.534  -8.556  -5.800  0.00  0.00    +0.023 A 
ATOM     24  C   UNL     1       3.610  -9.928  -5.937  0.00  0.00    +0.004 A 
ATOM     25  C   UNL     1       4.324 -10.484  -6.981  0.00  0.00    +0.023 A 
ATOM     26  C   UNL     1       4.970  -9.663  -7.897  0.00  0.00    +0.026 A 
ATOM     27  C   UNL     1       4.892  -8.283  -7.765  0.00  0.00    +0.046 A 
BRANCH  26  28
ATOM     28  N   UNL     1       5.693 -10.225  -8.951  0.00  0.00    -0.358 N 
ATOM     29  H   UNL     1       5.745 -11.189  -9.045  0.00  0.00    +0.142 HD
ATOM     30  H   UNL     1       6.144  -9.651  -9.591  0.00  0.00    +0.142 HD
ENDBRANCH  26  28
ENDBRANCH  20  22
ENDBRANCH   5  20
TORSDOF 5
