REMARK  Name = ZINC36742784
REMARK  6 active torsions:
REMARK  status: ('A' for Active; 'I' for Inactive)
REMARK    1  A    between atoms: C_3  and  O_21
REMARK    2  A    between atoms: C_4  and  C_8
REMARK    3  A    between atoms: C_6  and  N_7
REMARK    4  A    between atoms: C_8  and  N_9
REMARK    5  A    between atoms: N_9  and  S_10
REMARK    6  A    between atoms: S_10  and  C_13
REMARK                            x       y       z     vdW  Elec       q    Type
REMARK                         _______ _______ _______ _____ _____    ______ ____
ROOT
ATOM      1  N   UNL     1       4.286  -0.656  -1.536  0.00  0.00    -0.185 NA
ATOM      2  H   UNL     1       3.812  -0.366  -2.331  0.00  0.00    +0.148 HD
ENDROOT
BRANCH   1   3
ATOM      3  S   UNL     1       5.924  -0.891  -1.588  0.00  0.00    +0.060 S 
ATOM      4  O   UNL     1       6.330  -0.626  -2.924  0.00  0.00    -0.153 OA
ATOM      5  O   UNL     1       6.470  -0.198  -0.474  0.00  0.00    -0.153 OA
BRANCH   3   6
ATOM      6  C   UNL     1       6.214  -2.606  -1.305  0.00  0.00    +0.120 A 
ATOM      7  C   UNL     1       6.902  -3.013  -0.178  0.00  0.00    +0.045 A 
ATOM      8  C   UNL     1       7.130  -4.359   0.045  0.00  0.00    +0.020 A 
ATOM      9  C   UNL     1       6.668  -5.298  -0.861  0.00  0.00    +0.016 A 
ATOM     10  C   UNL     1       5.979  -4.890  -1.988  0.00  0.00    +0.018 A 
ATOM     11  C   UNL     1       5.747  -3.544  -2.207  0.00  0.00    +0.044 A 
ATOM     12 BR   UNL     1       4.799  -2.987  -3.745  0.00  0.00    -0.048 Br
ATOM     13 BR   UNL     1       8.072  -4.917   1.587  0.00  0.00    -0.050 Br
ENDBRANCH   3   6
ENDBRANCH   1   3
BRANCH   1  14
ATOM     14  C   UNL     1       3.553  -0.885  -0.288  0.00  0.00    +0.144 C 
BRANCH  14  18
ATOM     15  C   UNL     1      -0.318   0.919  -0.561  0.00  0.00    +0.026 A 
ATOM     16  C   UNL     1       0.799   1.708  -0.372  0.00  0.00    +0.047 A 
ATOM     17  C   UNL     1       2.054   1.125  -0.283  0.00  0.00    +0.121 A 
ATOM     18  C   UNL     1       2.188  -0.252  -0.384  0.00  0.00    +0.011 A 
ATOM     19  C   UNL     1       1.072  -1.043  -0.574  0.00  0.00    +0.031 A 
ATOM     20  C   UNL     1      -0.185  -0.459  -0.662  0.00  0.00    +0.025 A 
BRANCH  20  21
ATOM     21  N   UNL     1      -1.317  -1.260  -0.854  0.00  0.00    -0.358 N 
ATOM     22  H   UNL     1      -2.194  -0.852  -0.915  0.00  0.00    +0.142 HD
ATOM     23  H   UNL     1      -1.223  -2.223  -0.924  0.00  0.00    +0.142 HD
ENDBRANCH  20  21
BRANCH  17  24
ATOM     24  O   UNL     1       3.154   1.903  -0.097  0.00  0.00    -0.506 OA
ATOM     25  H   UNL     1       3.376   2.055   0.832  0.00  0.00    +0.292 HD
ENDBRANCH  17  24
ENDBRANCH  14  18
ENDBRANCH   1  14
TORSDOF 6
