REMARK  Name = ZINC09040605
REMARK  5 active torsions:
REMARK  status: ('A' for Active; 'I' for Inactive)
REMARK    1  A    between atoms: C_1  and  C_2
REMARK    2  A    between atoms: C_5  and  N_8
REMARK    3  A    between atoms: C_10  and  C_15
REMARK    4  A    between atoms: C_15  and  N_16
REMARK    5  A    between atoms: N_19  and  C_20
REMARK                            x       y       z     vdW  Elec       q    Type
REMARK                         _______ _______ _______ _____ _____    ______ ____
ROOT
ATOM      1  N   UNL     1       5.810   7.154  -0.209  0.00  0.00    -0.299 N 
ATOM      2  C   UNL     1       6.470   8.226   0.272  0.00  0.00    +0.300 C 
ATOM      3  O   UNL     1       5.909   8.998   1.025  0.00  0.00    -0.253 OA
ATOM      4  N   UNL     1       7.753   8.442  -0.082  0.00  0.00    -0.294 N 
ATOM      5  H   UNL     1       6.257   6.538  -0.810  0.00  0.00    +0.150 HD
ATOM      6  H   UNL     1       8.200   7.825  -0.683  0.00  0.00    +0.151 HD
ENDROOT
BRANCH   4   7
ATOM      7  C   UNL     1       8.471   9.607   0.441  0.00  0.00    +0.037 C 
ATOM      8  C   UNL     1       7.749  10.886   0.011  0.00  0.00    +0.029 C 
ATOM      9  C   UNL     1       8.499  12.102   0.557  0.00  0.00    -0.008 C 
ATOM     10  C   UNL     1       9.926  12.112   0.005  0.00  0.00    +0.007 C 
ATOM     11  C   UNL     1      10.648  10.833   0.434  0.00  0.00    -0.008 C 
ATOM     12  C   UNL     1       9.898   9.617  -0.112  0.00  0.00    +0.029 C 
ATOM     13  C   UNL     1      10.693  10.761   1.962  0.00  0.00    +0.007 C 
ATOM     14  C   UNL     1       9.266  10.752   2.514  0.00  0.00    -0.008 C 
ATOM     15  C   UNL     1       8.544  12.030   2.085  0.00  0.00    +0.007 C 
ATOM     16  C   UNL     1       8.516   9.535   1.968  0.00  0.00    +0.029 C 
ENDBRANCH   4   7
BRANCH   1  17
ATOM     17  C   UNL     1       4.416   6.920   0.175  0.00  0.00    +0.111 C 
BRANCH  17  20
ATOM     18  N   UNL     1       2.356   3.889   0.001  0.00  0.00    -0.271 N 
ATOM     19  C   UNL     1       2.446   5.350  -0.104  0.00  0.00    +0.119 C 
ATOM     20  C   UNL     1       3.906   5.647  -0.504  0.00  0.00    +0.033 C 
ATOM     21  C   UNL     1       4.643   4.399   0.036  0.00  0.00    +0.103 C 
ATOM     22  C   UNL     1       3.575   3.329   0.083  0.00  0.00    +0.220 C 
ATOM     23  O   UNL     1       3.788   2.139   0.180  0.00  0.00    -0.275 OA
BRANCH  18  28
ATOM     24  C   UNL     1      -2.513   0.977   0.020  0.00  0.00    +0.044 C 
ATOM     25  C   UNL     1      -1.220   1.750   0.017  0.00  0.00    -0.050 A 
ATOM     26  C   UNL     1      -0.013   1.076  -0.009  0.00  0.00    +0.005 A 
ATOM     27  C   UNL     1       1.174   1.782  -0.016  0.00  0.00    +0.024 A 
ATOM     28  C   UNL     1       1.155   3.170   0.008  0.00  0.00    +0.036 A 
ATOM     29  C   UNL     1      -0.059   3.844   0.039  0.00  0.00    +0.024 A 
ATOM     30  C   UNL     1      -1.243   3.132   0.046  0.00  0.00    +0.005 A 
ENDBRANCH  18  28
ENDBRANCH  17  20
ENDBRANCH   1  17
TORSDOF 4
