REMARK  Name = ZINC01886872
REMARK  9 active torsions:
REMARK  status: ('A' for Active; 'I' for Inactive)
REMARK    1  A    between atoms: C_1  and  O_2
REMARK    2  A    between atoms: O_2  and  C_3
REMARK    3  A    between atoms: C_6  and  S_9
REMARK    4  A    between atoms: S_9  and  C_12
REMARK    5  A    between atoms: N_23  and  N_26
REMARK    6  A    between atoms: C_24  and  N_25
REMARK    7  A    between atoms: C_27  and  C_28
REMARK    8  A    between atoms: C_31  and  O_35
REMARK    9  A    between atoms: C_32  and  O_34
REMARK                            x       y       z     vdW  Elec       q    Type
REMARK                         _______ _______ _______ _____ _____    ______ ____
ROOT
ATOM      1  C   UNL     1      -4.380   5.134  -0.723  0.00  0.00    +0.162 A 
ATOM      2  C   UNL     1      -4.444   5.166   0.692  0.00  0.00    +0.137 A 
ATOM      3  C   UNL     1      -3.233   4.484   1.166  0.00  0.00    +0.184 A 
ATOM      4  N   UNL     1      -3.019   4.361   2.457  0.00  0.00    -0.224 NA
ATOM      5  C   UNL     1      -3.905   4.858   3.330  0.00  0.00    +0.092 A 
ATOM      6  C   UNL     1      -3.683   4.730   4.714  0.00  0.00    +0.030 A 
ATOM      7  C   UNL     1      -4.588   5.237   5.594  0.00  0.00    +0.002 A 
ATOM      8  C   UNL     1      -5.738   5.884   5.147  0.00  0.00    +0.002 A 
ATOM      9  C   UNL     1      -5.987   6.027   3.818  0.00  0.00    +0.030 A 
ATOM     10  C   UNL     1      -5.075   5.516   2.875  0.00  0.00    +0.090 A 
ATOM     11  N   UNL     1      -5.311   5.651   1.566  0.00  0.00    -0.240 NA
ATOM     12  N   UNL     1      -2.540   4.098   0.036  0.00  0.00    -0.197 N 
ATOM     13  C   UNL     1      -3.238   4.499  -1.077  0.00  0.00    +0.148 A 
ENDROOT
BRANCH   1  14
ATOM     14  S   UNL     1      -5.576   5.807  -1.828  0.00  0.00    +0.030 S 
ATOM     15  O   UNL     1      -5.439   5.102  -3.054  0.00  0.00    -0.164 OA
ATOM     16  O   UNL     1      -6.803   5.863  -1.114  0.00  0.00    -0.164 OA
BRANCH  14  20
ATOM     17  C   UNL     1      -4.367  10.092  -2.659  0.00  0.00    +0.120 A 
ATOM     18  C   UNL     1      -3.894   9.067  -3.466  0.00  0.00    +0.047 A 
ATOM     19  C   UNL     1      -4.265   7.761  -3.211  0.00  0.00    +0.031 A 
ATOM     20  C   UNL     1      -5.105   7.474  -2.151  0.00  0.00    +0.094 A 
ATOM     21  C   UNL     1      -5.582   8.494  -1.348  0.00  0.00    +0.031 A 
ATOM     22  C   UNL     1      -5.210   9.801  -1.596  0.00  0.00    +0.047 A 
BRANCH  17  24
ATOM     23  C   UNL     1      -4.528  12.380  -2.035  0.00  0.00    +0.277 C 
ATOM     24  O   UNL     1      -4.004  11.377  -2.908  0.00  0.00    -0.495 OA
ENDBRANCH  17  24
ENDBRANCH  14  20
ENDBRANCH   1  14
BRANCH  13  25
ATOM     25  N   UNL     1      -2.831   4.282  -2.382  0.00  0.00    -0.341 N 
ATOM     26  H   UNL     1      -1.999   3.816  -2.559  0.00  0.00    +0.144 HD
ATOM     27  H   UNL     1      -3.378   4.596  -3.119  0.00  0.00    +0.144 HD
ENDBRANCH  13  25
BRANCH  12  28
ATOM     28  N   UNL     1      -1.318   3.412   0.027  0.00  0.00    -0.171 NA
ATOM     29  C   UNL     1      -1.302   2.115   0.020  0.00  0.00    +0.141 C 
BRANCH  29  30
ATOM     30  C   UNL     1      -0.017   1.393   0.010  0.00  0.00    -0.002 A 
ATOM     31  C   UNL     1       1.186   2.105   0.002  0.00  0.00    +0.013 A 
ATOM     32  C   UNL     1       2.387   1.428  -0.013  0.00  0.00    +0.050 A 
ATOM     33  C   UNL     1       2.405   0.041  -0.020  0.00  0.00    +0.158 A 
ATOM     34  C   UNL     1       1.210  -0.675  -0.013  0.00  0.00    +0.159 A 
ATOM     35  C   UNL     1       0.002  -0.004   0.002  0.00  0.00    +0.058 A 
BRANCH  34  36
ATOM     36  O   UNL     1       1.232  -2.035  -0.021  0.00  0.00    -0.503 OA
ATOM     37  H   UNL     1       1.230  -2.424  -0.906  0.00  0.00    +0.292 HD
ENDBRANCH  34  36
BRANCH  33  38
ATOM     38  O   UNL     1       3.592  -0.622  -0.035  0.00  0.00    -0.503 OA
ATOM     39  H   UNL     1       3.928  -0.808  -0.922  0.00  0.00    +0.292 HD
ENDBRANCH  33  38
ENDBRANCH  29  30
ENDBRANCH  12  28
TORSDOF 8
