REMARK  Name = ZINC65412375
REMARK  10 active torsions:
REMARK  status: ('A' for Active; 'I' for Inactive)
REMARK    1  A    between atoms: C_1  and  C_2
REMARK    2  A    between atoms: C_7  and  N_8
REMARK    3  A    between atoms: N_11  and  C_12
REMARK    4  A    between atoms: C_12  and  C_13
REMARK    5  A    between atoms: C_13  and  N_14
REMARK    6  A    between atoms: C_15  and  O_17
REMARK    7  A    between atoms: O_17  and  C_18
REMARK    8  A    between atoms: C_18  and  C_19
REMARK    9  A    between atoms: C_18  and  C_20
REMARK   10  A    between atoms: C_18  and  C_21
REMARK                            x       y       z     vdW  Elec       q    Type
REMARK                         _______ _______ _______ _____ _____    ______ ____
ROOT
ATOM      1  N   UNL     1       0.025  -0.014   2.417  0.00  0.00    -0.269 N 
ATOM      2  C   UNL     1      -0.057  -0.694   3.578  0.00  0.00    +0.304 C 
ATOM      3  O   UNL     1      -0.040  -1.909   3.574  0.00  0.00    -0.253 OA
ATOM      4  N   UNL     1      -0.157  -0.025   4.744  0.00  0.00    -0.298 N 
ATOM      5  H   UNL     1       0.077   0.955   2.425  0.00  0.00    +0.156 HD
ATOM      6  H   UNL     1      -0.170   0.945   4.748  0.00  0.00    +0.150 HD
ENDROOT
BRANCH   1  13
ATOM      7  C   UNL     1      -1.265   1.183   0.181  0.00  0.00    +0.045 C 
ATOM      8  C   UNL     1      -0.584  -0.158   0.084  0.00  0.00    -0.029 A 
ATOM      9  C   UNL     1      -0.569  -0.841  -1.117  0.00  0.00    +0.006 A 
ATOM     10  C   UNL     1       0.055  -2.071  -1.207  0.00  0.00    +0.015 A 
ATOM     11  C   UNL     1       0.667  -2.622  -0.095  0.00  0.00    +0.020 A 
ATOM     12  C   UNL     1       0.656  -1.944   1.109  0.00  0.00    +0.039 A 
ATOM     13  C   UNL     1       0.034  -0.706   1.201  0.00  0.00    +0.039 A 
ATOM     14 BR   UNL     1       1.520  -4.305  -0.223  0.00  0.00    -0.050 Br
ENDBRANCH   1  13
BRANCH   4  15
ATOM     15  C   UNL     1      -0.245  -0.764   6.006  0.00  0.00    +0.124 C 
BRANCH  15  16
ATOM     16  C   UNL     1      -0.350   0.225   7.170  0.00  0.00    +0.126 C 
BRANCH  16  17
ATOM     17  N   UNL     1      -0.438  -0.514   8.432  0.00  0.00    -0.280 N 
ATOM     18  C   UNL     1      -0.538   0.154   9.598  0.00  0.00    +0.401 C 
ATOM     19  O   UNL     1      -0.555   1.369   9.603  0.00  0.00    -0.226 OA
ATOM     20  H   UNL     1      -0.425  -1.484   8.428  0.00  0.00    +0.152 HD
BRANCH  18  21
ATOM     21  O   UNL     1      -0.620  -0.524  10.758  0.00  0.00    -0.445 OA
BRANCH  21  22
ATOM     22  C   UNL     1      -0.724   0.248  11.956  0.00  0.00    +0.107 C 
ATOM     23  C   UNL     1      -1.984   1.113  11.896  0.00  0.00    +0.055 C 
ATOM     24  C   UNL     1      -0.805  -0.690  13.162  0.00  0.00    +0.055 C 
ATOM     25  C   UNL     1       0.507   1.147  12.091  0.00  0.00    +0.055 C 
ENDBRANCH  21  22
ENDBRANCH  18  21
ENDBRANCH  16  17
ENDBRANCH  15  16
ENDBRANCH   4  15
TORSDOF 6
