REMARK  Name = ZINC20690570
REMARK  8 active torsions:
REMARK  status: ('A' for Active; 'I' for Inactive)
REMARK    1  A    between atoms: C_1  and  O_2
REMARK    2  A    between atoms: O_2  and  C_3
REMARK    3  A    between atoms: C_6  and  C_10
REMARK    4  A    between atoms: C_8  and  O_9
REMARK    5  A    between atoms: C_23  and  C_26
REMARK    6  A    between atoms: N_28  and  C_29
REMARK    7  A    between atoms: C_32  and  N_35
REMARK    8  A    between atoms: N_35  and  C_36
REMARK                            x       y       z     vdW  Elec       q    Type
REMARK                         _______ _______ _______ _____ _____    ______ ____
ROOT
ATOM      1  C   UNL     1       5.078  -3.618  -4.644  0.00  0.00    +0.105 C 
ATOM      2  C   UNL     1       5.692  -4.464  -3.526  0.00  0.00    +0.029 C 
ATOM      3  C   UNL     1       7.220  -4.179  -3.498  0.00  0.00    +0.033 C 
ATOM      4  C   UNL     1       7.769  -5.076  -4.590  0.00  0.00    -0.030 C 
ATOM      5  C   UNL     1       6.935  -6.051  -4.847  0.00  0.00    -0.023 C 
ATOM      6  C   UNL     1       5.708  -5.943  -3.971  0.00  0.00    +0.049 C 
ATOM      7  C   UNL     1       4.472  -6.296  -4.746  0.00  0.00    -0.019 A 
ATOM      8  C   UNL     1       4.271  -7.628  -5.077  0.00  0.00    +0.006 A 
ATOM      9  C   UNL     1       3.158  -8.023  -5.795  0.00  0.00    +0.001 A 
ATOM     10  C   UNL     1       2.223  -7.093  -6.195  0.00  0.00    +0.015 A 
ATOM     11  C   UNL     1       2.406  -5.749  -5.870  0.00  0.00    +0.058 A 
ATOM     12  C   UNL     1       3.541  -5.349  -5.137  0.00  0.00    +0.044 A 
ATOM     13  N   UNL     1       3.679  -4.004  -4.833  0.00  0.00    -0.336 N 
ATOM     14  H   UNL     1       2.883  -3.252  -4.729  0.00  0.00    +0.147 HD
ENDROOT
BRANCH   1  18
ATOM     15  C   UNL     1       5.281   0.518  -3.578  0.00  0.00    +0.161 A 
ATOM     16  C   UNL     1       4.284  -0.288  -3.052  0.00  0.00    +0.050 A 
ATOM     17  C   UNL     1       4.221  -1.625  -3.398  0.00  0.00    +0.009 A 
ATOM     18  C   UNL     1       5.152  -2.160  -4.270  0.00  0.00    -0.023 A 
ATOM     19  C   UNL     1       6.149  -1.362  -4.798  0.00  0.00    +0.054 A 
ATOM     20  C   UNL     1       6.218  -0.021  -4.455  0.00  0.00    +0.159 A 
BRANCH  15  22
ATOM     21  C   UNL     1       4.351   2.318  -2.332  0.00  0.00    +0.277 C 
ATOM     22  O   UNL     1       5.345   1.833  -3.237  0.00  0.00    -0.491 OA
ENDBRANCH  15  22
BRANCH  20  23
ATOM     23  O   UNL     1       7.198   0.766  -4.974  0.00  0.00    -0.503 OA
ATOM     24  H   UNL     1       7.937   0.338  -5.667  0.00  0.00    +0.292 HD
ENDBRANCH  20  23
ENDBRANCH   1  18
BRANCH  11  25
ATOM     25  C   UNL     1       1.412  -4.746  -6.293  0.00  0.00    +0.250 C 
ATOM     26  O   UNL     1       1.571  -3.574  -6.009  0.00  0.00    -0.270 OA
ATOM     27  N   UNL     1       0.326  -5.128  -6.994  0.00  0.00    -0.281 N 
ATOM     28  H   UNL     1       0.203  -6.182  -7.286  0.00  0.00    +0.155 HD
BRANCH  27  29
ATOM     29  C   UNL     1      -0.646  -4.184  -7.350  0.00  0.00    +0.034 A 
ATOM     30  C   UNL     1      -1.986  -4.546  -7.383  0.00  0.00    +0.025 A 
ATOM     31  C   UNL     1      -2.944  -3.615  -7.728  0.00  0.00    +0.025 A 
ATOM     32  C   UNL     1      -2.567  -2.318  -8.054  0.00  0.00    +0.031 A 
ATOM     33  C   UNL     1      -1.225  -1.958  -8.026  0.00  0.00    +0.025 A 
ATOM     34  C   UNL     1      -0.268  -2.888  -7.675  0.00  0.00    +0.025 A 
BRANCH  32  35
ATOM     35  N   UNL     1      -3.537  -1.375  -8.410  0.00  0.00    -0.314 N 
ATOM     36  H   UNL     1      -3.382  -0.311  -8.178  0.00  0.00    +0.152 HD
BRANCH  35  37
ATOM     37  C   UNL     1      -4.703  -1.785  -9.061  0.00  0.00    +0.031 A 
ATOM     38  C   UNL     1      -4.706  -2.950  -9.817  0.00  0.00    +0.023 A 
ATOM     39  C   UNL     1      -5.862  -3.355 -10.454  0.00  0.00    +0.002 A 
ATOM     40  C   UNL     1      -7.013  -2.596 -10.350  0.00  0.00    +0.000 A 
ATOM     41  C   UNL     1      -7.013  -1.432  -9.603  0.00  0.00    +0.002 A 
ATOM     42  C   UNL     1      -5.862  -1.024  -8.959  0.00  0.00    +0.023 A 
ENDBRANCH  35  37
ENDBRANCH  32  35
ENDBRANCH  27  29
ENDBRANCH  11  25
TORSDOF 7
