REMARK  Name = ZINC15498335
REMARK  8 active torsions:
REMARK  status: ('A' for Active; 'I' for Inactive)
REMARK    1  A    between atoms: C_3  and  C_31
REMARK    2  A    between atoms: C_5  and  N_7
REMARK    3  A    between atoms: N_7  and  S_8
REMARK    4  A    between atoms: S_8  and  C_11
REMARK    5  A    between atoms: C_14  and  C_17
REMARK    6  A    between atoms: C_18  and  C_19
REMARK    7  A    between atoms: N_21  and  C_22
REMARK    8  A    between atoms: C_25  and  C_28
REMARK                            x       y       z     vdW  Elec       q    Type
REMARK                         _______ _______ _______ _____ _____    ______ ____
ROOT
ATOM      1  C   UNL     1       0.597   5.967  -2.775  0.00  0.00    +0.109 A 
ATOM      2  C   UNL     1       1.026   4.799  -3.381  0.00  0.00    +0.029 A 
ATOM      3  C   UNL     1       0.634   4.503  -4.670  0.00  0.00    +0.010 A 
ATOM      4  C   UNL     1      -0.191   5.391  -5.367  0.00  0.00    -0.025 A 
ATOM      5  C   UNL     1      -0.616   6.571  -4.749  0.00  0.00    +0.010 A 
ATOM      6  C   UNL     1      -0.220   6.851  -3.458  0.00  0.00    +0.029 A 
ENDROOT
BRANCH   1   7
ATOM      7  S   UNL     1       1.099   6.333  -1.126  0.00  0.00    +0.072 S 
ATOM      8  O   UNL     1       1.015   7.744  -0.980  0.00  0.00    -0.150 OA
ATOM      9  O   UNL     1       2.303   5.614  -0.898  0.00  0.00    -0.150 OA
BRANCH   7  10
ATOM     10  N   UNL     1      -0.039   5.685  -0.112  0.00  0.00    -0.216 N 
ATOM     11  H   UNL     1      -0.585   6.266   0.440  0.00  0.00    +0.174 HD
BRANCH  10  16
ATOM     12  C   UNL     1       0.716   2.093   0.076  0.00  0.00    +0.002 A 
ATOM     13  C   UNL     1      -0.559   1.557   0.064  0.00  0.00    +0.012 A 
ATOM     14  C   UNL     1      -1.661   2.389  -0.011  0.00  0.00    +0.057 A 
ATOM     15  C   UNL     1      -1.493   3.759  -0.064  0.00  0.00    +0.036 A 
ATOM     16  C   UNL     1      -0.214   4.300  -0.053  0.00  0.00    +0.049 A 
ATOM     17  C   UNL     1       0.892   3.462   0.018  0.00  0.00    +0.024 A 
BRANCH  14  18
ATOM     18  C   UNL     1      -3.048   1.800  -0.031  0.00  0.00    +0.417 C 
ATOM     19  F   UNL     1      -2.964   0.405   0.037  0.00  0.00    -0.166 F 
ATOM     20  F   UNL     1      -3.773   2.277   1.067  0.00  0.00    -0.166 F 
ATOM     21  F   UNL     1      -3.696   2.171  -1.214  0.00  0.00    -0.166 F 
ENDBRANCH  14  18
ENDBRANCH  10  16
ENDBRANCH   7  10
ENDBRANCH   1   7
BRANCH   4  22
ATOM     22  C   UNL     1      -0.609   5.086  -6.745  0.00  0.00    +0.013 C 
ATOM     23  C   UNL     1      -0.197   3.947  -7.338  0.00  0.00    +0.068 C 
BRANCH  23  24
ATOM     24  C   UNL     1      -0.612   3.643  -8.708  0.00  0.00    +0.241 C 
ATOM     25  O   UNL     1      -1.330   4.418  -9.313  0.00  0.00    -0.270 OA
ATOM     26  N   UNL     1      -0.201   2.505  -9.301  0.00  0.00    -0.282 N 
ATOM     27  H   UNL     1       0.432   1.924  -8.849  0.00  0.00    +0.155 HD
BRANCH  26  28
ATOM     28  C   UNL     1      -0.683   2.162 -10.562  0.00  0.00    +0.034 A 
ATOM     29  C   UNL     1       0.139   1.489 -11.460  0.00  0.00    +0.024 A 
ATOM     30  C   UNL     1      -0.337   1.143 -12.705  0.00  0.00    +0.015 A 
ATOM     31  C   UNL     1      -1.643   1.479 -13.070  0.00  0.00    +0.037 A 
ATOM     32  C   UNL     1      -2.465   2.160 -12.167  0.00  0.00    +0.015 A 
ATOM     33  C   UNL     1      -1.985   2.497 -10.922  0.00  0.00    +0.024 A 
BRANCH  31  34
ATOM     34  C   UNL     1      -2.155   1.115 -14.406  0.00  0.00    +0.242 C 
ATOM     35  O   UNL     1      -3.292   1.408 -14.722  0.00  0.00    -0.270 OA
ATOM     36  N   UNL     1      -1.361   0.459 -15.275  0.00  0.00    -0.325 N 
ATOM     37  H   UNL     1      -0.454   0.226 -15.023  0.00  0.00    +0.145 HD
ATOM     38  H   UNL     1      -1.698   0.220 -16.153  0.00  0.00    +0.145 HD
ENDBRANCH  31  34
ENDBRANCH  26  28
ENDBRANCH  23  24
ENDBRANCH   4  22
TORSDOF 8
