REMARK  Name = ZINC33033990
REMARK  13 active torsions:
REMARK  status: ('A' for Active; 'I' for Inactive)
REMARK    1  A    between atoms: C_1  and  C_2
REMARK    2  A    between atoms: C_2  and  C_3
REMARK    3  A    between atoms: C_3  and  C_5
REMARK    4  A    between atoms: C_3  and  N_6
REMARK    5  A    between atoms: C_7  and  C_9
REMARK    6  A    between atoms: C_12  and  N_29
REMARK    7  A    between atoms: C_13  and  N_15
REMARK    8  A    between atoms: N_15  and  S_16
REMARK    9  A    between atoms: S_16  and  C_19
REMARK   10  A    between atoms: C_22  and  C_25
REMARK   11  A    between atoms: C_25  and  C_26
REMARK   12  A    between atoms: C_26  and  C_27
REMARK   13  A    between atoms: C_26  and  C_28
REMARK                            x       y       z     vdW  Elec       q    Type
REMARK                         _______ _______ _______ _____ _____    ______ ____
ROOT
ATOM      1  C   UNL     1       2.111   1.488   0.261  0.00  0.00    +0.039 A 
ATOM      2  C   UNL     1       0.863   2.079   0.045  0.00  0.00    +0.015 A 
ATOM      3  C   UNL     1      -0.246   1.291  -0.171  0.00  0.00    +0.026 A 
ATOM      4  C   UNL     1      -0.127  -0.094  -0.177  0.00  0.00    +0.052 A 
ATOM      5  C   UNL     1       1.117  -0.692   0.037  0.00  0.00    +0.070 A 
ATOM      6  C   UNL     1       2.232   0.095   0.255  0.00  0.00    +0.039 A 
ENDROOT
BRANCH   4   7
ATOM      7  N   UNL     1      -1.252  -0.887  -0.396  0.00  0.00    -0.332 N 
ATOM      8  C   UNL     1      -2.481  -0.083  -0.354  0.00  0.00    +0.086 C 
ATOM      9  C   UNL     1      -3.694  -1.000  -0.520  0.00  0.00    -0.063 C 
ATOM     10  N   UNL     1      -3.586  -1.726  -1.794  0.00  0.00    +0.381 N 
ATOM     11  C   UNL     1      -2.357  -2.530  -1.836  0.00  0.00    -0.063 C 
ATOM     12  C   UNL     1      -1.144  -1.613  -1.670  0.00  0.00    +0.086 C 
ATOM     13  H   UNL     1      -4.452  -2.395  -1.909  0.00  0.00    -0.086 HD
ATOM     14  H   UNL     1      -3.566  -1.006  -2.625  0.00  0.00    -0.086 HD
ENDBRANCH   4   7
BRANCH   1  16
ATOM     15  N   UNL     1       3.180   3.675   0.497  0.00  0.00    -0.309 N 
ATOM     16  C   UNL     1       3.298   2.332   0.492  0.00  0.00    +0.244 C 
ATOM     17  O   UNL     1       4.384   1.817   0.679  0.00  0.00    -0.270 OA
ATOM     18  H   UNL     1       2.198   4.141   0.329  0.00  0.00    +0.149 HD
BRANCH  15  19
ATOM     19  C   UNL     1       4.359   4.513   0.727  0.00  0.00    +0.070 C 
ATOM     20  C   UNL     1       4.585   4.674   2.232  0.00  0.00    +0.028 C 
BRANCH  19  22
ATOM     21  C   UNL     1       4.037   5.741  -1.425  0.00  0.00    +0.005 C 
ATOM     22  C   UNL     1       4.138   5.889   0.095  0.00  0.00    +0.018 C 
ENDBRANCH  19  22
ENDBRANCH  15  19
ENDBRANCH   1  16
BRANCH   5  23
ATOM     23  N   UNL     1       1.235  -2.087   0.032  0.00  0.00    -0.214 N 
ATOM     24  H   UNL     1       1.349  -2.626  -0.921  0.00  0.00    +0.174 HD
BRANCH  23  25
ATOM     25  S   UNL     1       1.203  -2.927   1.459  0.00  0.00    +0.072 S 
ATOM     26  O   UNL     1       1.327  -4.302   1.124  0.00  0.00    -0.150 OA
ATOM     27  O   UNL     1       2.109  -2.272   2.336  0.00  0.00    -0.150 OA
BRANCH  25  28
ATOM     28  C   UNL     1      -0.405  -2.720   2.149  0.00  0.00    +0.109 A 
ATOM     29  C   UNL     1      -0.659  -1.665   3.007  0.00  0.00    +0.029 A 
ATOM     30  C   UNL     1      -1.921  -1.500   3.545  0.00  0.00    +0.005 A 
ATOM     31  C   UNL     1      -2.928  -2.395   3.232  0.00  0.00    -0.047 A 
ATOM     32  C   UNL     1      -2.673  -3.452   2.378  0.00  0.00    +0.005 A 
ATOM     33  C   UNL     1      -1.412  -3.614   1.837  0.00  0.00    +0.029 A 
BRANCH  31  34
ATOM     34  C   UNL     1      -4.303  -2.217   3.821  0.00  0.00    +0.038 C 
BRANCH  34  35
ATOM     35  C   UNL     1      -4.392  -2.975   5.147  0.00  0.00    -0.013 C 
ATOM     36  C   UNL     1      -3.433  -2.346   6.160  0.00  0.00    +0.007 C 
ATOM     37  C   UNL     1      -5.823  -2.899   5.684  0.00  0.00    +0.007 C 
ENDBRANCH  34  35
ENDBRANCH  31  34
ENDBRANCH  25  28
ENDBRANCH  23  25
ENDBRANCH   5  23
TORSDOF 9
