REMARK  Name = ZINC08328891
REMARK  6 active torsions:
REMARK  status: ('A' for Active; 'I' for Inactive)
REMARK    1  A    between atoms: C_1  and  C_2
REMARK    2  A    between atoms: N_11  and  C_15
REMARK    3  A    between atoms: C_15  and  C_16
REMARK    4  A    between atoms: N_18  and  C_19
REMARK    5  A    between atoms: C_19  and  C_21
REMARK    6  A    between atoms: C_19  and  C_22
REMARK                            x       y       z     vdW  Elec       q    Type
REMARK                         _______ _______ _______ _____ _____    ______ ____
ROOT
ATOM      1  C   UNL     1      -3.956   0.343   4.435  0.00  0.00    +0.213 C 
ENDROOT
BRANCH   1  11
ATOM      2  C   UNL     1      -0.002   1.056   2.507  0.00  0.00    +0.010 C 
ATOM      3  C   UNL     1      -0.730   1.580   1.267  0.00  0.00    +0.018 C 
ATOM      4  C   UNL     1      -0.013   1.086   0.008  0.00  0.00    +0.006 C 
ATOM      5  C   UNL     1      -0.753   1.593  -1.231  0.00  0.00    +0.000 C 
ATOM      6  C   UNL     1      -2.186   1.056  -1.227  0.00  0.00    +0.003 C 
ATOM      7  C   UNL     1      -2.911   1.550   0.027  0.00  0.00    +0.035 C 
ATOM      8  C   UNL     1      -2.167   1.069   1.268  0.00  0.00    +0.115 C 
ATOM      9  C   UNL     1      -2.885   1.517   2.521  0.00  0.00    +0.247 C 
ATOM     10  O   UNL     1      -3.102   2.655   2.875  0.00  0.00    -0.273 OA
ATOM     11  N   UNL     1      -3.233   0.381   3.161  0.00  0.00    -0.215 N 
ATOM     12  C   UNL     1      -2.836  -0.706   2.489  0.00  0.00    +0.310 C 
ATOM     13  O   UNL     1      -3.035  -1.844   2.866  0.00  0.00    -0.252 OA
ATOM     14  N   UNL     1      -2.191  -0.397   1.347  0.00  0.00    -0.285 N 
ATOM     15  H   UNL     1      -1.817  -1.020   0.705  0.00  0.00    +0.151 HD
ENDBRANCH   1  11
BRANCH   1  16
ATOM     16  C   UNL     1      -2.969   0.347   5.573  0.00  0.00    +0.232 C 
ATOM     17  O   UNL     1      -1.778   0.378   5.343  0.00  0.00    -0.274 OA
ATOM     18  N   UNL     1      -3.409   0.315   6.847  0.00  0.00    -0.304 N 
ATOM     19  H   UNL     1      -4.361   0.290   7.030  0.00  0.00    +0.149 HD
BRANCH  18  20
ATOM     20  C   UNL     1      -2.449   0.319   7.953  0.00  0.00    +0.136 C 
ATOM     21  C   UNL     1      -2.053   1.760   8.280  0.00  0.00    +0.036 C 
BRANCH  20  22
ATOM     22  C   UNL     1      -3.078  -0.317   9.166  0.00  0.00    +0.126 A 
ATOM     23  C   UNL     1      -2.450  -1.148  10.009  0.00  0.00    +0.055 A 
ATOM     24  C   UNL     1      -3.437  -1.515  11.032  0.00  0.00    +0.020 A 
ATOM     25  C   UNL     1      -3.411  -2.328  12.164  0.00  0.00    +0.011 A 
ATOM     26  C   UNL     1      -4.538  -2.465  12.926  0.00  0.00    +0.001 A 
ATOM     27  C   UNL     1      -5.705  -1.800  12.580  0.00  0.00    +0.004 A 
ATOM     28  C   UNL     1      -5.750  -0.991  11.464  0.00  0.00    +0.047 A 
ATOM     29  C   UNL     1      -4.616  -0.839  10.676  0.00  0.00    +0.135 A 
ATOM     30  O   UNL     1      -4.352  -0.137   9.556  0.00  0.00    -0.458 OA
ENDBRANCH  20  22
ENDBRANCH  18  20
ENDBRANCH   1  16
TORSDOF 4
