REMARK  Name = ZINC66940822
REMARK  12 active torsions:
REMARK  status: ('A' for Active; 'I' for Inactive)
REMARK    1  A    between atoms: C_1  and  C_2
REMARK    2  A    between atoms: C_5  and  N_11
REMARK    3  A    between atoms: C_7  and  C_8
REMARK    4  A    between atoms: N_11  and  C_12
REMARK    5  A    between atoms: C_12  and  C_14
REMARK    6  A    between atoms: C_12  and  C_15
REMARK    7  A    between atoms: N_17  and  C_18
REMARK    8  A    between atoms: C_19  and  C_25
REMARK    9  A    between atoms: C_20  and  C_24
REMARK   10  A    between atoms: C_21  and  C_23
REMARK   11  A    between atoms: C_25  and  O_27
REMARK   12  A    between atoms: O_27  and  C_28
REMARK                            x       y       z     vdW  Elec       q    Type
REMARK                         _______ _______ _______ _____ _____    ______ ____
ROOT
ATOM      1  C   UNL     1       0.409  -4.847  -1.375  0.00  0.00    +0.154 C 
ATOM      2  C   UNL     1      -1.048  -5.251  -1.609  0.00  0.00    +0.038 C 
ENDROOT
BRANCH   1   3
ATOM      3  C   UNL     1       1.272  -6.082  -1.333  0.00  0.00    +0.238 C 
ATOM      4  O   UNL     1       1.915  -6.338  -0.337  0.00  0.00    -0.273 OA
ATOM      5  N   UNL     1       1.329  -6.901  -2.401  0.00  0.00    -0.278 N 
ATOM      6  H   UNL     1       0.814  -6.696  -3.198  0.00  0.00    +0.155 HD
BRANCH   5   7
ATOM      7  C   UNL     1       2.123  -8.037  -2.362  0.00  0.00    +0.086 A 
ATOM      8  C   UNL     1       2.307  -8.984  -3.361  0.00  0.00    +0.091 A 
ATOM      9  C   UNL     1       3.198 -10.080  -3.054  0.00  0.00    -0.025 A 
ATOM     10  C   UNL     1       3.753 -10.060  -1.829  0.00  0.00    -0.008 A 
ATOM     11  S   UNL     1       3.087  -8.579  -1.101  0.00  0.00    -0.078 S 
ATOM     12  C   UNL     1       4.712 -11.050  -1.220  0.00  0.00    +0.052 C 
ATOM     13  C   UNL     1       3.488 -11.177  -4.046  0.00  0.00    +0.045 C 
BRANCH   8  14
ATOM     14  C   UNL     1       1.633  -8.879  -4.657  0.00  0.00    +0.342 C 
ATOM     15  O   UNL     1       2.166  -8.280  -5.572  0.00  0.00    -0.245 OA
BRANCH  14  16
ATOM     16  O   UNL     1       0.422  -9.445  -4.835  0.00  0.00    -0.464 OA
ATOM     17  C   UNL     1      -0.176  -9.303  -6.125  0.00  0.00    +0.280 C 
ENDBRANCH  14  16
ENDBRANCH   8  14
ENDBRANCH   5   7
ENDBRANCH   1   3
BRANCH   1  18
ATOM     18  N   UNL     1       0.519  -4.131  -0.102  0.00  0.00    -0.333 N 
ATOM     19  H   UNL     1       0.764  -4.611   0.705  0.00  0.00    +0.147 HD
BRANCH  18  24
ATOM     20  C   UNL     1      -0.501   1.454   0.081  0.00  0.00    +0.044 C 
ATOM     21  C   UNL     1      -0.230  -0.027   0.036  0.00  0.00    -0.038 A 
ATOM     22  C   UNL     1      -0.330  -0.711  -1.159  0.00  0.00    +0.006 A 
ATOM     23  C   UNL     1      -0.082  -2.070  -1.206  0.00  0.00    +0.023 A 
ATOM     24  C   UNL     1       0.270  -2.757  -0.050  0.00  0.00    +0.028 A 
ATOM     25  C   UNL     1       0.373  -2.079   1.155  0.00  0.00    +0.036 A 
ATOM     26  C   UNL     1       0.128  -0.707   1.201  0.00  0.00    +0.041 A 
BRANCH  26  27
ATOM     27  C   UNL     1       0.243   0.025   2.481  0.00  0.00    +0.242 C 
ATOM     28  O   UNL     1       0.140   1.236   2.500  0.00  0.00    -0.270 OA
ATOM     29  N   UNL     1       0.461  -0.651   3.627  0.00  0.00    -0.325 N 
ATOM     30  H   UNL     1       0.542  -1.618   3.611  0.00  0.00    +0.145 HD
ATOM     31  H   UNL     1       0.536  -0.172   4.466  0.00  0.00    +0.145 HD
ENDBRANCH  26  27
ENDBRANCH  18  24
ENDBRANCH   1  18
TORSDOF 7
