REMARK  Name = ZINC37690752
REMARK  3 active torsions:
REMARK  status: ('A' for Active; 'I' for Inactive)
REMARK    1  A    between atoms: C_3  and  N_9
REMARK    2  A    between atoms: C_5  and  O_8
REMARK    3  A    between atoms: C_13  and  C_16
REMARK                            x       y       z     vdW  Elec       q    Type
REMARK                         _______ _______ _______ _____ _____    ______ ____
ROOT
ATOM      1  N   UNL     1       3.542   0.735  -0.665  0.00  0.00    +0.384 N 
ATOM      2  C   UNL     1       4.217   2.017  -0.903  0.00  0.00    -0.078 C 
ATOM      3  C   UNL     1       5.698   1.893  -0.538  0.00  0.00    -0.018 C 
ATOM      4  C   UNL     1       6.342   0.806  -1.404  0.00  0.00    +0.011 C 
ATOM      5  C   UNL     1       5.583  -0.509  -1.204  0.00  0.00    +0.086 C 
ATOM      6  C   UNL     1       4.106  -0.296  -1.544  0.00  0.00    -0.064 C 
ATOM      7  H   UNL     1       3.671   0.463   0.298  0.00  0.00    -0.081 HD
ENDROOT
BRANCH   1  10
ATOM      8  C   UNL     1      -0.019   1.538   0.011  0.00  0.00    +0.001 C 
ATOM      9  C   UNL     1       1.477   1.939  -0.002  0.00  0.00    -0.013 C 
ATOM     10  C   UNL     1       2.107   0.881  -0.942  0.00  0.00    -0.039 C 
ATOM     11  C   UNL     1       1.353  -0.422  -0.604  0.00  0.00    +0.101 C 
ATOM     12  C   UNL     1       0.002  -0.004   0.002  0.00  0.00    +0.029 C 
BRANCH  11  13
ATOM     13  O   UNL     1       1.143  -1.188  -1.792  0.00  0.00    -0.393 OA
ATOM     14  H   UNL     1       0.673  -2.021  -1.644  0.00  0.00    +0.210 HD
ENDBRANCH  11  13
ENDBRANCH   1  10
BRANCH   5  15
ATOM     15  C   UNL     1       6.161  -1.566  -2.109  0.00  0.00    +0.357 C 
ATOM     16  O   UNL     1       7.333  -1.884  -2.004  0.00  0.00    -0.246 OA
ATOM     17  O   UNL     1       5.456  -2.103  -2.947  0.00  0.00    -0.246 OA
ENDBRANCH   5  15
TORSDOF 3
