REMARK  Name = ZINC54403063
REMARK  9 active torsions:
REMARK  status: ('A' for Active; 'I' for Inactive)
REMARK    1  A    between atoms: C_1  and  C_2
REMARK    2  A    between atoms: C_2  and  C_3
REMARK    3  A    between atoms: C_3  and  C_4
REMARK    4  A    between atoms: C_3  and  C_5
REMARK    5  A    between atoms: C_3  and  C_6
REMARK    6  A    between atoms: C_6  and  C_8
REMARK    7  A    between atoms: C_6  and  N_21
REMARK    8  A    between atoms: N_21  and  C_22
REMARK    9  A    between atoms: C_22  and  C_23
REMARK                            x       y       z     vdW  Elec       q    Type
REMARK                         _______ _______ _______ _____ _____    ______ ____
ROOT
ATOM      1  C   UNL     1      -2.655  -2.561   0.964  0.00  0.00    -0.045 A 
ATOM      2  C   UNL     1      -3.292  -3.568   0.265  0.00  0.00    +0.031 A 
ATOM      3  C   UNL     1      -4.436  -4.154   0.786  0.00  0.00    +0.067 A 
ATOM      4  C   UNL     1      -4.940  -3.723   2.015  0.00  0.00    +0.068 A 
ATOM      5  C   UNL     1      -4.295  -2.712   2.710  0.00  0.00    +0.043 A 
ATOM      6  C   UNL     1      -3.152  -2.138   2.186  0.00  0.00    +0.022 A 
ATOM      7 BR   UNL     1      -2.267  -0.764   3.137  0.00  0.00    -0.050 Br
ATOM      8  N   UNL     1      -6.078  -4.484   2.272  0.00  0.00    -0.306 N 
ATOM      9  H   UNL     1      -6.644  -4.411   3.056  0.00  0.00    +0.170 HD
ATOM     10  C   UNL     1      -6.257  -5.338   1.247  0.00  0.00    +0.325 A 
ATOM     11  O   UNL     1      -7.163  -6.146   1.159  0.00  0.00    -0.247 OA
ATOM     12  N   UNL     1      -5.283  -5.163   0.335  0.00  0.00    -0.306 N 
ATOM     13  H   UNL     1      -5.188  -5.656  -0.495  0.00  0.00    +0.170 HD
ENDROOT
BRANCH   1  14
ATOM     14  C   UNL     1      -1.412  -1.925   0.398  0.00  0.00    -0.034 C 
BRANCH  14  15
ATOM     15  C   UNL     1      -1.805  -0.771  -0.526  0.00  0.00    -0.044 C 
ATOM     16  C   UNL     1      -0.543  -0.054  -1.011  0.00  0.00    +0.009 C 
ATOM     17  C   UNL     1      -2.691   0.215   0.237  0.00  0.00    +0.009 C 
BRANCH  15  19
ATOM     18  C   UNL     1      -3.032  -0.161  -2.615  0.00  0.00    +0.004 C 
ATOM     19  C   UNL     1      -2.573  -1.321  -1.730  0.00  0.00    +0.002 C 
ENDBRANCH  15  19
ENDBRANCH  14  15
BRANCH  14  20
ATOM     20  N   UNL     1      -0.653  -2.926  -0.363  0.00  0.00    +0.384 N 
ATOM     21  H   UNL     1      -0.737  -3.826   0.086  0.00  0.00    -0.085 HD
ATOM     22  H   UNL     1      -1.019  -2.984  -1.302  0.00  0.00    -0.085 HD
BRANCH  20  23
ATOM     23  C   UNL     1       0.762  -2.534  -0.413  0.00  0.00    -0.085 C 
ATOM     24  C   UNL     1       1.532  -3.516  -1.298  0.00  0.00    -0.017 C 
ENDBRANCH  20  23
ENDBRANCH  14  20
ENDBRANCH   1  14
TORSDOF 5
