REMARK  Name = ZINC66147680
REMARK  11 active torsions:
REMARK  status: ('A' for Active; 'I' for Inactive)
REMARK    1  A    between atoms: C_1  and  C_2
REMARK    2  A    between atoms: C_2  and  C_3
REMARK    3  A    between atoms: C_2  and  C_4
REMARK    4  A    between atoms: C_9  and  N_10
REMARK    5  A    between atoms: N_10  and  C_11
REMARK    6  A    between atoms: C_11  and  N_13
REMARK    7  A    between atoms: N_13  and  N_14
REMARK    8  A    between atoms: C_15  and  C_17
REMARK    9  A    between atoms: C_18  and  C_19
REMARK   10  A    between atoms: C_22  and  C_25
REMARK   11  A    between atoms: N_27  and  C_28
REMARK                            x       y       z     vdW  Elec       q    Type
REMARK                         _______ _______ _______ _____ _____    ______ ____
ROOT
ATOM      1  N   UNL     1       3.217  -2.033   2.684  0.00  0.00    -0.232 N 
ATOM      2  C   UNL     1       3.660  -2.352   3.917  0.00  0.00    +0.253 C 
ATOM      3  O   UNL     1       4.746  -2.882   4.055  0.00  0.00    -0.269 OA
ATOM      4  H   UNL     1       2.351  -1.610   2.574  0.00  0.00    +0.173 HD
ENDROOT
BRANCH   1   5
ATOM      5  N   UNL     1       4.008  -2.313   1.562  0.00  0.00    -0.245 N 
ATOM      6  H   UNL     1       4.874  -2.736   1.672  0.00  0.00    +0.172 HD
BRANCH   5   7
ATOM      7  C   UNL     1       3.565  -1.994   0.329  0.00  0.00    +0.151 C 
ATOM      8  S   UNL     1       4.532  -2.336  -1.042  0.00  0.00    -0.017 S 
BRANCH   7   9
ATOM      9  N   UNL     1       2.362  -1.407   0.176  0.00  0.00    -0.296 N 
ATOM     10  H   UNL     1       1.842  -1.156   0.956  0.00  0.00    +0.154 HD
BRANCH   9  16
ATOM     11  C   UNL     1       0.557  -1.508  -1.425  0.00  0.00    -0.024 A 
ATOM     12  C   UNL     1       0.065  -1.256  -2.691  0.00  0.00    +0.006 A 
ATOM     13  C   UNL     1       0.873  -0.662  -3.642  0.00  0.00    +0.000 A 
ATOM     14  C   UNL     1       2.176  -0.318  -3.330  0.00  0.00    +0.002 A 
ATOM     15  C   UNL     1       2.674  -0.567  -2.067  0.00  0.00    +0.023 A 
ATOM     16  C   UNL     1       1.863  -1.159  -1.107  0.00  0.00    +0.036 A 
BRANCH  11  18
ATOM     17  C   UNL     1      -1.534  -1.260  -0.115  0.00  0.00    +0.012 C 
ATOM     18  C   UNL     1      -0.324  -2.156  -0.388  0.00  0.00    +0.015 C 
ATOM     19  C   UNL     1      -0.803  -3.515  -0.903  0.00  0.00    +0.012 C 
ENDBRANCH  11  18
ENDBRANCH   9  16
ENDBRANCH   7   9
ENDBRANCH   5   7
ENDBRANCH   1   5
BRANCH   2  20
ATOM     20  C   UNL     1       2.832  -2.059   5.091  0.00  0.00    +0.069 C 
ATOM     21  C   UNL     1       3.275  -2.378   6.323  0.00  0.00    +0.013 C 
BRANCH  21  22
ATOM     22  C   UNL     1       2.443  -2.084   7.503  0.00  0.00    -0.025 A 
ATOM     23  C   UNL     1       1.192  -1.479   7.344  0.00  0.00    +0.008 A 
ATOM     24  C   UNL     1       0.416  -1.206   8.447  0.00  0.00    +0.013 A 
ATOM     25  C   UNL     1       0.877  -1.531   9.725  0.00  0.00    +0.037 A 
ATOM     26  C   UNL     1       2.127  -2.135   9.884  0.00  0.00    +0.013 A 
ATOM     27  C   UNL     1       2.902  -2.414   8.782  0.00  0.00    +0.008 A 
BRANCH  25  28
ATOM     28  C   UNL     1       0.043  -1.236  10.909  0.00  0.00    +0.244 C 
ATOM     29  O   UNL     1      -1.045  -0.710  10.771  0.00  0.00    -0.270 OA
ATOM     30  N   UNL     1       0.487  -1.550  12.142  0.00  0.00    -0.314 N 
ATOM     31  C   UNL     1      -0.340  -1.258  13.316  0.00  0.00    +0.128 C 
ATOM     32  H   UNL     1       1.355  -1.970  12.253  0.00  0.00    +0.149 HD
ENDBRANCH  25  28
ENDBRANCH  21  22
ENDBRANCH   2  20
TORSDOF 8
