REMARK  Name = ZINC05768716
REMARK  4 active torsions:
REMARK  status: ('A' for Active; 'I' for Inactive)
REMARK    1  A    between atoms: C_4  and  C_7
REMARK    2  A    between atoms: C_7  and  C_25
REMARK    3  A    between atoms: C_9  and  C_11
REMARK    4  A    between atoms: N_13  and  N_14
REMARK                            x       y       z     vdW  Elec       q    Type
REMARK                         _______ _______ _______ _____ _____    ______ ____
ROOT
ATOM      1  C   UNL     1       4.590  -3.319   0.677  0.00  0.00    +0.236 C 
ATOM      2  O   UNL     1       5.508  -2.811   1.286  0.00  0.00    -0.274 OA
ATOM      3  N   UNL     1       4.485  -4.661   0.611  0.00  0.00    -0.206 N 
ATOM      4  H   UNL     1       3.751  -5.067   0.124  0.00  0.00    +0.177 HD
ENDROOT
BRANCH   3   5
ATOM      5  N   UNL     1       5.436  -5.470   1.247  0.00  0.00    -0.175 NA
ATOM      6  C   UNL     1       5.334  -6.775   1.184  0.00  0.00    +0.152 C 
ATOM      7  C   UNL     1       6.234  -7.781   1.794  0.00  0.00    +0.028 A 
ATOM      8  C   UNL     1       7.384  -7.684   2.568  0.00  0.00    +0.012 A 
ATOM      9  C   UNL     1       8.018  -8.832   3.000  0.00  0.00    +0.001 A 
ATOM     10  C   UNL     1       7.509 -10.075   2.662  0.00  0.00    +0.002 A 
ATOM     11  C   UNL     1       6.367 -10.181   1.894  0.00  0.00    +0.024 A 
ATOM     12  C   UNL     1       5.715  -9.036   1.450  0.00  0.00    +0.043 A 
ATOM     13  N   UNL     1       4.571  -8.865   0.678  0.00  0.00    -0.280 N 
ATOM     14  C   UNL     1       4.293  -7.563   0.494  0.00  0.00    +0.269 C 
ATOM     15  O   UNL     1       3.352  -7.114  -0.134  0.00  0.00    -0.268 OA
ATOM     16  H   UNL     1       4.038  -9.593   0.323  0.00  0.00    +0.155 HD
ENDBRANCH   3   5
BRANCH   1  19
ATOM     17  C   UNL     1       2.305  -2.090   0.779  0.00  0.00    +0.033 C 
ATOM     18  C   UNL     1       3.377  -1.028   0.527  0.00  0.00    +0.031 C 
ATOM     19  C   UNL     1       3.568  -2.449  -0.008  0.00  0.00    +0.093 C 
BRANCH  17  23
ATOM     20  C   UNL     1      -1.351  -1.755  -1.405  0.00  0.00    +0.000 A 
ATOM     21  C   UNL     1      -1.313  -1.421  -0.064  0.00  0.00    +0.000 A 
ATOM     22  C   UNL     1      -0.130  -1.530   0.643  0.00  0.00    +0.004 A 
ATOM     23  C   UNL     1       1.015  -1.973   0.009  0.00  0.00    -0.036 A 
ATOM     24  C   UNL     1       0.978  -2.308  -1.332  0.00  0.00    +0.004 A 
ATOM     25  C   UNL     1      -0.205  -2.198  -2.039  0.00  0.00    +0.000 A 
ENDBRANCH  17  23
BRANCH  17  26
ATOM     26  C   UNL     1       2.179  -2.635   2.179  0.00  0.00    -0.036 A 
ATOM     27  C   UNL     1       2.495  -1.836   3.262  0.00  0.00    +0.004 A 
ATOM     28  C   UNL     1       2.380  -2.336   4.546  0.00  0.00    +0.000 A 
ATOM     29  C   UNL     1       1.948  -3.633   4.746  0.00  0.00    +0.000 A 
ATOM     30  C   UNL     1       1.632  -4.432   3.663  0.00  0.00    +0.000 A 
ATOM     31  C   UNL     1       1.743  -3.931   2.379  0.00  0.00    +0.004 A 
ENDBRANCH  17  26
ENDBRANCH   1  19
TORSDOF 4
