REMARK  Name = ZINC59361960
REMARK  5 active torsions:
REMARK  status: ('A' for Active; 'I' for Inactive)
REMARK    1  A    between atoms: C_5  and  C_6
REMARK    2  A    between atoms: N_8  and  C_9
REMARK    3  A    between atoms: C_9  and  C_10
REMARK    4  A    between atoms: N_12  and  C_13
REMARK    5  A    between atoms: C_16  and  N_20
REMARK                            x       y       z     vdW  Elec       q    Type
REMARK                         _______ _______ _______ _____ _____    ______ ____
ROOT
ATOM      1  C   UNL     1      -1.493  -4.622  -0.009  0.00  0.00    +0.234 C 
ATOM      2  O   UNL     1      -0.297  -4.824  -0.031  0.00  0.00    -0.274 OA
ATOM      3  N   UNL     1      -2.352  -5.660  -0.004  0.00  0.00    -0.284 N 
ATOM      4  H   UNL     1      -3.305  -5.500   0.081  0.00  0.00    +0.155 HD
ENDROOT
BRANCH   3   5
ATOM      5  C   UNL     1      -1.869  -6.970  -0.122  0.00  0.00    +0.036 A 
ATOM      6  C   UNL     1      -2.602  -7.920  -0.821  0.00  0.00    +0.045 A 
ATOM      7  C   UNL     1      -2.126  -9.212  -0.938  0.00  0.00    +0.065 A 
ATOM      8  C   UNL     1      -0.913  -9.561  -0.355  0.00  0.00    +0.062 A 
ATOM      9  C   UNL     1      -0.180  -8.610   0.345  0.00  0.00    +0.065 A 
ATOM     10  C   UNL     1      -0.655  -7.317   0.456  0.00  0.00    +0.045 A 
ATOM     11 CL   UNL     1       1.334  -9.045   1.073  0.00  0.00    -0.082 Cl
ATOM     12 CL   UNL     1      -3.042 -10.399  -1.811  0.00  0.00    -0.082 Cl
BRANCH   8  13
ATOM     13  N   UNL     1      -0.431 -10.870  -0.472  0.00  0.00    -0.356 N 
ATOM     14  H   UNL     1      -0.943 -11.534  -0.960  0.00  0.00    +0.142 HD
ATOM     15  H   UNL     1       0.415 -11.113  -0.065  0.00  0.00    +0.142 HD
ENDBRANCH   8  13
ENDBRANCH   3   5
BRANCH   1  16
ATOM     16  C   UNL     1      -2.017  -3.209   0.012  0.00  0.00    +0.200 C 
BRANCH  16  19
ATOM     17  C   UNL     1      -1.123  -0.943   0.018  0.00  0.00    +0.251 C 
ATOM     18  O   UNL     1      -2.266  -0.523   0.041  0.00  0.00    -0.270 OA
ATOM     19  N   UNL     1      -0.893  -2.270   0.002  0.00  0.00    -0.302 N 
ATOM     20  H   UNL     1       0.018  -2.604  -0.017  0.00  0.00    +0.150 HD
BRANCH  17  25
ATOM     21  C   UNL     1      -0.017   1.383   0.020  0.00  0.00    +0.022 A 
ATOM     22  C   UNL     1       1.211   1.997   0.006  0.00  0.00    +0.024 A 
ATOM     23  C   UNL     1       2.331   1.230  -0.019  0.00  0.00    +0.056 A 
ATOM     24  S   UNL     1       1.751  -0.346  -0.024  0.00  0.00    -0.077 S 
ATOM     25  C   UNL     1       0.002  -0.004   0.007  0.00  0.00    +0.075 A 
ATOM     26 BR   UNL     1       4.133   1.805  -0.044  0.00  0.00    -0.043 Br
ENDBRANCH  17  25
ENDBRANCH  16  19
ENDBRANCH   1  16
TORSDOF 5
