REMARK  Name = ZINC35579623
REMARK  6 active torsions:
REMARK  status: ('A' for Active; 'I' for Inactive)
REMARK    1  A    between atoms: C_1  and  C_2
REMARK    2  A    between atoms: C_2  and  N_3
REMARK    3  A    between atoms: C_7  and  N_15
REMARK    4  A    between atoms: C_11  and  C_12
REMARK    5  A    between atoms: N_15  and  S_16
REMARK    6  A    between atoms: S_16  and  C_19
REMARK                            x       y       z     vdW  Elec       q    Type
REMARK                         _______ _______ _______ _____ _____    ______ ____
ROOT
ATOM      1  N   UNL     1       0.711  -0.488   1.189  0.00  0.00    -0.337 N 
ATOM      2  C   UNL     1       2.045  -0.827   1.245  0.00  0.00    +0.050 A 
ATOM      3  C   UNL     1       3.066  -0.822   0.298  0.00  0.00    +0.028 A 
ATOM      4  C   UNL     1       4.333  -1.224   0.650  0.00  0.00    +0.026 A 
ATOM      5  C   UNL     1       4.610  -1.640   1.953  0.00  0.00    +0.049 A 
ATOM      6  C   UNL     1       3.613  -1.653   2.907  0.00  0.00    +0.034 A 
ATOM      7  C   UNL     1       2.317  -1.245   2.561  0.00  0.00    +0.002 A 
ATOM      8  C   UNL     1       1.105  -1.145   3.286  0.00  0.00    +0.041 A 
ATOM      9  C   UNL     1       0.152  -0.680   2.437  0.00  0.00    +0.105 A 
ENDROOT
BRANCH   9  10
ATOM     10  C   UNL     1      -1.253  -0.426   2.790  0.00  0.00    +0.258 C 
ATOM     11  O   UNL     1      -2.047  -0.098   1.929  0.00  0.00    -0.269 OA
ATOM     12  N   UNL     1      -1.661  -0.557   4.068  0.00  0.00    -0.324 N 
ATOM     13  H   UNL     1      -1.015  -0.747   4.766  0.00  0.00    +0.145 HD
ATOM     14  H   UNL     1      -2.601  -0.461   4.289  0.00  0.00    +0.145 HD
ENDBRANCH   9  10
BRANCH   1  16
ATOM     15  C   UNL     1      -0.020   1.530   0.018  0.00  0.00    +0.027 C 
ATOM     16  C   UNL     1       0.003   0.001   0.003  0.00  0.00    +0.119 C 
ENDBRANCH   1  16
BRANCH   5  17
ATOM     17  N   UNL     1       5.905  -2.047   2.294  0.00  0.00    -0.216 N 
ATOM     18  H   UNL     1       6.038  -2.851   2.819  0.00  0.00    +0.174 HD
BRANCH  17  19
ATOM     19  S   UNL     1       7.210  -1.154   1.801  0.00  0.00    +0.072 S 
ATOM     20  O   UNL     1       8.364  -1.801   2.320  0.00  0.00    -0.150 OA
ATOM     21  O   UNL     1       7.034  -0.909   0.413  0.00  0.00    -0.150 OA
BRANCH  19  22
ATOM     22  C   UNL     1       7.105   0.410   2.606  0.00  0.00    +0.109 A 
ATOM     23  C   UNL     1       6.420   1.450   2.007  0.00  0.00    +0.030 A 
ATOM     24  C   UNL     1       6.337   2.678   2.638  0.00  0.00    +0.022 A 
ATOM     25  C   UNL     1       6.941   2.865   3.869  0.00  0.00    +0.041 A 
ATOM     26  C   UNL     1       7.627   1.823   4.467  0.00  0.00    +0.022 A 
ATOM     27  C   UNL     1       7.704   0.595   3.838  0.00  0.00    +0.030 A 
ATOM     28 CL   UNL     1       6.838   4.406   4.661  0.00  0.00    -0.084 Cl
ENDBRANCH  19  22
ENDBRANCH  17  19
ENDBRANCH   5  17
TORSDOF 5
