REMARK  Name = ZINC52011811
REMARK  5 active torsions:
REMARK  status: ('A' for Active; 'I' for Inactive)
REMARK    1  A    between atoms: C_1  and  C_2
REMARK    2  A    between atoms: C_5  and  C_8
REMARK    3  A    between atoms: C_5  and  N_11
REMARK    4  A    between atoms: N_14  and  C_15
REMARK    5  A    between atoms: C_21  and  O_23
REMARK                            x       y       z     vdW  Elec       q    Type
REMARK                         _______ _______ _______ _____ _____    ______ ____
ROOT
ATOM      1  N   UNL     1       2.913  -1.940  -0.036  0.00  0.00    -0.284 N 
ATOM      2  C   UNL     1       3.516  -2.611   0.965  0.00  0.00    +0.301 C 
ATOM      3  O   UNL     1       4.043  -2.001   1.876  0.00  0.00    -0.253 OA
ATOM      4  N   UNL     1       3.534  -3.958   0.958  0.00  0.00    -0.294 N 
ATOM      5  H   UNL     1       2.493  -2.426  -0.762  0.00  0.00    +0.151 HD
ATOM      6  H   UNL     1       3.114  -4.445   0.232  0.00  0.00    +0.151 HD
ENDROOT
BRANCH   1  11
ATOM      7  C   UNL     1      -0.019   1.526   0.010  0.00  0.00    +0.007 C 
ATOM      8  C   UNL     1       0.002  -0.004   0.002  0.00  0.00    -0.014 C 
ATOM      9  C   UNL     1       0.718  -0.497  -1.257  0.00  0.00    +0.006 C 
ATOM     10  C   UNL     1       2.154   0.032  -1.268  0.00  0.00    +0.038 C 
ATOM     11  C   UNL     1       2.894  -0.475  -0.028  0.00  0.00    +0.137 C 
ATOM     12  C   UNL     1       2.178   0.019   1.231  0.00  0.00    +0.038 C 
ATOM     13  C   UNL     1       0.742  -0.511   1.242  0.00  0.00    +0.006 C 
BRANCH  11  14
ATOM     14  C   UNL     1       4.307   0.047  -0.039  0.00  0.00    +0.379 C 
ATOM     15  O   UNL     1       4.514   1.248  -0.034  0.00  0.00    -0.244 OA
ATOM     16  O   UNL     1       5.245  -0.733  -0.052  0.00  0.00    -0.244 OA
ENDBRANCH  11  14
ENDBRANCH   1  11
BRANCH   4  17
ATOM     17  C   UNL     1       4.189  -4.688   2.047  0.00  0.00    +0.103 C 
ATOM     18  C   UNL     1       5.685  -4.812   1.750  0.00  0.00    +0.025 C 
ATOM     19  C   UNL     1       6.368  -5.574   2.887  0.00  0.00    +0.002 C 
ATOM     20  C   UNL     1       5.754  -6.971   3.007  0.00  0.00    +0.003 C 
ATOM     21  C   UNL     1       4.259  -6.847   3.303  0.00  0.00    +0.033 C 
ATOM     22  C   UNL     1       3.575  -6.085   2.166  0.00  0.00    +0.135 C 
BRANCH  22  23
ATOM     23  O   UNL     1       2.178  -5.968   2.443  0.00  0.00    -0.390 OA
ATOM     24  H   UNL     1       1.723  -6.817   2.532  0.00  0.00    +0.210 HD
ENDBRANCH  22  23
ENDBRANCH   4  17
TORSDOF 4
