REMARK  Name = ZINC35828021
REMARK  11 active torsions:
REMARK  status: ('A' for Active; 'I' for Inactive)
REMARK    1  A    between atoms: C_1  and  O_2
REMARK    2  A    between atoms: O_2  and  C_3
REMARK    3  A    between atoms: C_5  and  C_10
REMARK    4  A    between atoms: C_8  and  O_9
REMARK    5  A    between atoms: C_18  and  O_39
REMARK    6  A    between atoms: N_21  and  C_22
REMARK    7  A    between atoms: C_22  and  C_23
REMARK    8  A    between atoms: N_25  and  C_26
REMARK    9  A    between atoms: C_27  and  C_35
REMARK   10  A    between atoms: C_35  and  O_37
REMARK   11  A    between atoms: O_37  and  C_38
REMARK                            x       y       z     vdW  Elec       q    Type
REMARK                         _______ _______ _______ _____ _____    ______ ____
ROOT
ATOM      1  C   UNL     1      -4.871   0.257   0.037  0.00  0.00    -0.031 C 
ATOM      2  C   UNL     1      -5.427   0.315   1.460  0.00  0.00    +0.011 C 
ATOM      3  C   UNL     1      -4.411   0.970   2.397  0.00  0.00    +0.005 C 
ATOM      4  C   UNL     1      -4.985   1.006   3.816  0.00  0.00    +0.000 C 
ATOM      5  C   UNL     1      -6.287   1.806   3.826  0.00  0.00    +0.003 C 
ATOM      6  C   UNL     1      -7.299   1.159   2.877  0.00  0.00    +0.035 C 
ATOM      7  C   UNL     1      -6.718   1.139   1.463  0.00  0.00    +0.066 C 
ATOM      8  C   UNL     1      -7.716   0.503   0.494  0.00  0.00    +0.016 C 
ATOM      9  C   UNL     1      -7.082   0.429  -0.898  0.00  0.00    -0.075 C 
ATOM     10  N   UNL     1      -5.858  -0.378  -0.846  0.00  0.00    +0.390 N 
ATOM     11  H   UNL     1      -6.079  -1.298  -0.494  0.00  0.00    -0.080 HD
ENDROOT
BRANCH   1  14
ATOM     12  C   UNL     1      -1.201  -0.638   0.010  0.00  0.00    +0.161 A 
ATOM     13  C   UNL     1      -2.374   0.099   0.019  0.00  0.00    +0.051 A 
ATOM     14  C   UNL     1      -3.596  -0.546   0.027  0.00  0.00    -0.057 A 
ATOM     15  C   UNL     1      -3.652  -1.928   0.026  0.00  0.00    +0.006 A 
ATOM     16  C   UNL     1      -2.485  -2.669   0.017  0.00  0.00    +0.049 A 
ATOM     17  C   UNL     1      -1.257  -2.028   0.003  0.00  0.00    +0.158 A 
BRANCH  12  19
ATOM     18  C   UNL     1      -0.017   1.425   0.010  0.00  0.00    +0.277 C 
ATOM     19  O   UNL     1       0.002  -0.004   0.002  0.00  0.00    -0.491 OA
ENDBRANCH  12  19
BRANCH  17  20
ATOM     20  O   UNL     1      -0.108  -2.756  -0.012  0.00  0.00    -0.503 OA
ATOM     21  H   UNL     1       0.232  -2.972   0.867  0.00  0.00    +0.292 HD
ENDBRANCH  17  20
ENDBRANCH   1  14
BRANCH   7  22
ATOM     22  O   UNL     1      -6.431   2.475   1.045  0.00  0.00    -0.388 OA
ATOM     23  H   UNL     1      -7.204   3.055   1.023  0.00  0.00    +0.210 HD
ENDBRANCH   7  22
BRANCH  10  24
ATOM     24  C   UNL     1      -5.295  -0.498  -2.198  0.00  0.00    +0.020 C 
BRANCH  24  25
ATOM     25  C   UNL     1      -6.256  -1.259  -3.075  0.00  0.00    +0.201 C 
ATOM     26  O   UNL     1      -7.305  -1.661  -2.620  0.00  0.00    -0.278 OA
ATOM     27  N   UNL     1      -5.948  -1.492  -4.367  0.00  0.00    -0.281 N 
ATOM     28  H   UNL     1      -5.109  -1.171  -4.731  0.00  0.00    +0.155 HD
BRANCH  27  29
ATOM     29  C   UNL     1      -6.831  -2.192  -5.174  0.00  0.00    +0.086 A 
ATOM     30  C   UNL     1      -6.681  -2.527  -6.512  0.00  0.00    +0.091 A 
ATOM     31  C   UNL     1      -7.763  -3.272  -7.134  0.00  0.00    -0.021 A 
ATOM     32  C   UNL     1      -8.794  -3.544  -6.307  0.00  0.00    -0.004 A 
ATOM     33  S   UNL     1      -8.325  -2.835  -4.756  0.00  0.00    -0.077 S 
ATOM     34  C   UNL     1     -10.048  -4.288  -6.647  0.00  0.00    +0.043 C 
ATOM     35  C   UNL     1     -10.160  -4.371  -8.177  0.00  0.00    +0.005 C 
ATOM     36  C   UNL     1      -8.816  -4.833  -8.747  0.00  0.00    +0.005 C 
ATOM     37  C   UNL     1      -7.773  -3.725  -8.587  0.00  0.00    +0.037 C 
BRANCH  30  38
ATOM     38  C   UNL     1      -5.484  -2.146  -7.264  0.00  0.00    +0.342 C 
ATOM     39  O   UNL     1      -4.524  -2.893  -7.299  0.00  0.00    -0.245 OA
BRANCH  38  40
ATOM     40  O   UNL     1      -5.446  -0.968  -7.920  0.00  0.00    -0.464 OA
ATOM     41  C   UNL     1      -4.247  -0.661  -8.633  0.00  0.00    +0.280 C 
ENDBRANCH  38  40
ENDBRANCH  30  38
ENDBRANCH  27  29
ENDBRANCH  24  25
ENDBRANCH  10  24
TORSDOF 9
