REMARK  Name = ZINC09410816
REMARK  10 active torsions:
REMARK  status: ('A' for Active; 'I' for Inactive)
REMARK    1  A    between atoms: C_1  and  N_2
REMARK    2  A    between atoms: N_2  and  C_3
REMARK    3  A    between atoms: N_2  and  C_4
REMARK    4  A    between atoms: C_4  and  C_5
REMARK    5  A    between atoms: C_5  and  C_6
REMARK    6  A    between atoms: C_6  and  N_7
REMARK    7  A    between atoms: N_7  and  C_8
REMARK    8  A    between atoms: C_10  and  N_25
REMARK    9  A    between atoms: C_11  and  N_24
REMARK   10  A    between atoms: N_28  and  C_31
REMARK                            x       y       z     vdW  Elec       q    Type
REMARK                         _______ _______ _______ _____ _____    ______ ____
ROOT
ATOM      1  C   UNL     1      -3.966  -4.734  -0.254  0.00  0.00    +0.041 A 
ATOM      2  C   UNL     1      -5.099  -3.953  -0.030  0.00  0.00    +0.048 A 
ATOM      3  C   UNL     1      -6.357  -4.522  -0.046  0.00  0.00    +0.053 A 
ATOM      4  C   UNL     1      -6.512  -5.901  -0.290  0.00  0.00    +0.058 A 
ATOM      5  C   UNL     1      -5.388  -6.694  -0.516  0.00  0.00    +0.057 A 
ATOM      6  C   UNL     1      -4.101  -6.105  -0.503  0.00  0.00    +0.056 A 
ATOM      7  C   UNL     1      -2.917  -6.939  -0.747  0.00  0.00    +0.196 C 
ATOM      8  O   UNL     1      -1.804  -6.517  -0.493  0.00  0.00    -0.287 OA
ATOM      9  C   UNL     1      -3.093  -8.297  -1.306  0.00  0.00    +0.033 A 
ATOM     10  C   UNL     1      -2.005  -9.000  -1.814  0.00  0.00    +0.012 A 
ATOM     11  C   UNL     1      -2.188 -10.269  -2.332  0.00  0.00    +0.001 A 
ATOM     12  C   UNL     1      -3.445 -10.846  -2.349  0.00  0.00    +0.001 A 
ATOM     13  C   UNL     1      -4.538 -10.161  -1.848  0.00  0.00    +0.012 A 
ATOM     14  C   UNL     1      -4.372  -8.883  -1.323  0.00  0.00    +0.033 A 
ATOM     15  C   UNL     1      -5.527  -8.136  -0.773  0.00  0.00    +0.196 C 
ATOM     16  O   UNL     1      -6.579  -8.703  -0.550  0.00  0.00    -0.287 OA
ENDROOT
BRANCH   3  17
ATOM     17  N   UNL     1      -7.478  -3.730   0.180  0.00  0.00    -0.325 N 
ATOM     18  C   UNL     1      -7.989  -3.529   1.543  0.00  0.00    +0.124 C 
ATOM     19  C   UNL     1      -8.062  -2.022   1.821  0.00  0.00    +0.124 C 
ATOM     20  N   UNL     1      -8.756  -1.371   0.701  0.00  0.00    -0.327 N 
ATOM     21  C   UNL     1      -8.245  -1.573  -0.662  0.00  0.00    +0.124 C 
ATOM     22  C   UNL     1      -8.168  -3.075  -0.940  0.00  0.00    +0.124 C 
BRANCH  20  23
ATOM     23  C   UNL     1      -9.882  -0.576   0.928  0.00  0.00    +0.030 A 
ATOM     24  C   UNL     1     -10.279  -0.287   2.227  0.00  0.00    +0.023 A 
ATOM     25  C   UNL     1     -11.392   0.500   2.448  0.00  0.00    +0.002 A 
ATOM     26  C   UNL     1     -12.111   1.001   1.377  0.00  0.00    +0.000 A 
ATOM     27  C   UNL     1     -11.717   0.715   0.083  0.00  0.00    +0.002 A 
ATOM     28  C   UNL     1     -10.602  -0.067  -0.145  0.00  0.00    +0.023 A 
ENDBRANCH  20  23
ENDBRANCH   3  17
BRANCH   4  29
ATOM     29  N   UNL     1      -7.777  -6.468  -0.304  0.00  0.00    -0.356 N 
ATOM     30  H   UNL     1      -7.936  -7.288  -0.798  0.00  0.00    +0.142 HD
ATOM     31  H   UNL     1      -8.504  -6.045   0.179  0.00  0.00    +0.142 HD
ENDBRANCH   4  29
BRANCH   1  32
ATOM     32  N   UNL     1      -2.708  -4.152  -0.234  0.00  0.00    -0.343 N 
ATOM     33  H   UNL     1      -1.916  -4.706  -0.317  0.00  0.00    +0.146 HD
BRANCH  32  34
ATOM     34  C   UNL     1      -2.574  -2.700  -0.090  0.00  0.00    +0.100 C 
BRANCH  34  35
ATOM     35  C   UNL     1      -1.091  -2.321  -0.099  0.00  0.00    -0.000 C 
BRANCH  35  36
ATOM     36  C   UNL     1      -0.952  -0.805   0.053  0.00  0.00    -0.078 C 
BRANCH  36  38
ATOM     37  C   UNL     1       0.603   1.021   0.069  0.00  0.00    -0.097 C 
ATOM     38  N   UNL     1       0.472  -0.442   0.044  0.00  0.00    +0.376 N 
ATOM     39  C   UNL     1       1.130  -1.013   1.226  0.00  0.00    -0.097 C 
ATOM     40  H   UNL     1       0.906  -0.804  -0.791  0.00  0.00    -0.083 HD
ENDBRANCH  36  38
ENDBRANCH  35  36
ENDBRANCH  34  35
ENDBRANCH  32  34
ENDBRANCH   1  32
TORSDOF 8
