REMARK  Name = ZINC15575246
REMARK  8 active torsions:
REMARK  status: ('A' for Active; 'I' for Inactive)
REMARK    1  A    between atoms: C_1  and  C_2
REMARK    2  A    between atoms: C_2  and  C_3
REMARK    3  A    between atoms: C_2  and  C_4
REMARK    4  A    between atoms: C_4  and  C_5
REMARK    5  A    between atoms: C_5  and  C_7
REMARK    6  A    between atoms: C_5  and  N_22
REMARK    7  A    between atoms: N_9  and  C_10
REMARK    8  A    between atoms: C_23  and  C_25
REMARK                            x       y       z     vdW  Elec       q    Type
REMARK                         _______ _______ _______ _____ _____    ______ ____
ROOT
ATOM      1  C   UNL     1      -3.700  -1.155   0.157  0.00  0.00    +0.160 C 
ENDROOT
BRANCH   1   2
ATOM      2  C   UNL     1      -3.496  -2.522  -0.444  0.00  0.00    +0.238 C 
ATOM      3  O   UNL     1      -2.377  -2.910  -0.701  0.00  0.00    -0.273 OA
ATOM      4  N   UNL     1      -4.558  -3.312  -0.697  0.00  0.00    -0.284 N 
ATOM      5  H   UNL     1      -5.446  -3.034  -0.422  0.00  0.00    +0.155 HD
BRANCH   4   6
ATOM      6  C   UNL     1      -4.380  -4.535  -1.356  0.00  0.00    +0.036 A 
ATOM      7  C   UNL     1      -5.192  -5.619  -1.038  0.00  0.00    +0.025 A 
ATOM      8  C   UNL     1      -5.025  -6.825  -1.688  0.00  0.00    +0.029 A 
ATOM      9  C   UNL     1      -4.037  -6.961  -2.652  0.00  0.00    +0.067 A 
ATOM     10  C   UNL     1      -3.217  -5.876  -2.969  0.00  0.00    +0.069 A 
ATOM     11  C   UNL     1      -3.391  -4.665  -2.319  0.00  0.00    +0.051 A 
ATOM     12  N   UNL     1      -2.337  -6.312  -3.957  0.00  0.00    -0.306 N 
ATOM     13  H   UNL     1      -1.645  -5.777  -4.377  0.00  0.00    +0.170 HD
ATOM     14  C   UNL     1      -2.608  -7.602  -4.228  0.00  0.00    +0.325 A 
ATOM     15  O   UNL     1      -2.019  -8.285  -5.046  0.00  0.00    -0.247 OA
ATOM     16  N   UNL     1      -3.628  -8.023  -3.458  0.00  0.00    -0.306 N 
ATOM     17  H   UNL     1      -4.014  -8.914  -3.463  0.00  0.00    +0.170 HD
ENDBRANCH   4   6
ENDBRANCH   1   2
BRANCH   1  18
ATOM     18  N   UNL     1      -2.401  -0.500   0.332  0.00  0.00    -0.300 N 
ATOM     19  C   UNL     1      -2.324   0.845   0.364  0.00  0.00    +0.246 C 
ATOM     20  O   UNL     1      -3.332   1.515   0.246  0.00  0.00    -0.270 OA
ATOM     21  H   UNL     1      -1.597  -1.034   0.426  0.00  0.00    +0.150 HD
BRANCH  19  22
ATOM     22  C   UNL     1      -1.015   1.506   0.540  0.00  0.00    +0.055 A 
ATOM     23  C   UNL     1       0.145   0.739   0.675  0.00  0.00    +0.016 A 
ATOM     24  C   UNL     1       1.365   1.361   0.835  0.00  0.00    +0.021 A 
ATOM     25  C   UNL     1       1.442   2.744   0.867  0.00  0.00    +0.042 A 
ATOM     26  C   UNL     1       0.297   3.511   0.739  0.00  0.00    +0.040 A 
ATOM     27  C   UNL     1      -0.931   2.900   0.579  0.00  0.00    +0.054 A 
ATOM     28 CL   UNL     1      -2.367   3.862   0.417  0.00  0.00    -0.083 Cl
ATOM     29 CL   UNL     1       2.982   3.519   1.069  0.00  0.00    -0.083 Cl
ENDBRANCH  19  22
ENDBRANCH   1  18
BRANCH   1  30
ATOM     30  C   UNL     1      -4.389  -1.293   1.516  0.00  0.00    +0.034 C 
BRANCH  30  32
ATOM     31  C   UNL     1      -5.733   0.784   1.164  0.00  0.00    +0.007 C 
ATOM     32  C   UNL     1      -4.708   0.097   2.070  0.00  0.00    -0.015 C 
ATOM     33  C   UNL     1      -5.283  -0.036   3.481  0.00  0.00    +0.007 C 
ENDBRANCH  30  32
ENDBRANCH   1  30
TORSDOF 6
