REMARK  Name = ZINC03258655
REMARK  5 active torsions:
REMARK  status: ('A' for Active; 'I' for Inactive)
REMARK    1  A    between atoms: C_1  and  C_2
REMARK    2  A    between atoms: C_5  and  S_8
REMARK    3  A    between atoms: S_8  and  N_11
REMARK    4  A    between atoms: N_14  and  C_15
REMARK    5  A    between atoms: C_19  and  C_21
REMARK                            x       y       z     vdW  Elec       q    Type
REMARK                         _______ _______ _______ _____ _____    ______ ____
ROOT
ATOM      1  N   UNL     1       1.308  -3.053  -1.564  0.00  0.00    -0.169 N 
ATOM      2  C   UNL     1       2.349  -2.775  -2.373  0.00  0.00    +0.323 C 
ATOM      3  O   UNL     1       3.368  -2.298  -1.910  0.00  0.00    -0.251 OA
ATOM      4  N   UNL     1       2.262  -3.025  -3.694  0.00  0.00    -0.268 N 
ATOM      5  H   UNL     1       0.495  -3.433  -1.933  0.00  0.00    +0.178 HD
ATOM      6  H   UNL     1       1.481  -3.476  -4.052  0.00  0.00    +0.156 HD
ENDROOT
BRANCH   4   7
ATOM      7  C   UNL     1       3.298  -2.635  -4.550  0.00  0.00    +0.035 A 
ATOM      8  C   UNL     1       4.021  -1.479  -4.286  0.00  0.00    +0.024 A 
ATOM      9  C   UNL     1       5.047  -1.100  -5.129  0.00  0.00    +0.017 A 
ATOM     10  C   UNL     1       5.347  -1.863  -6.243  0.00  0.00    +0.021 A 
ATOM     11  C   UNL     1       4.625  -3.012  -6.512  0.00  0.00    -0.035 A 
ATOM     12  C   UNL     1       3.602  -3.400  -5.669  0.00  0.00    +0.027 A 
ATOM     13  C   UNL     1       4.954  -3.842  -7.726  0.00  0.00    +0.045 C 
ATOM     14 BR   UNL     1       6.747  -1.337  -7.399  0.00  0.00    -0.050 Br
ENDBRANCH   4   7
BRANCH   1  15
ATOM     15  S   UNL     1       1.415  -2.745   0.060  0.00  0.00    +0.076 S 
ATOM     16  O   UNL     1       2.646  -3.303   0.499  0.00  0.00    -0.150 OA
ATOM     17  O   UNL     1       0.166  -3.115   0.627  0.00  0.00    -0.150 OA
BRANCH  15  22
ATOM     18  C   UNL     1       1.902   3.233   0.717  0.00  0.00    +0.044 C 
ATOM     19  C   UNL     1       1.781   1.740   0.553  0.00  0.00    -0.050 A 
ATOM     20  C   UNL     1       0.533   1.145   0.538  0.00  0.00    +0.005 A 
ATOM     21  C   UNL     1       0.421  -0.224   0.388  0.00  0.00    +0.029 A 
ATOM     22  C   UNL     1       1.557  -0.999   0.251  0.00  0.00    +0.109 A 
ATOM     23  C   UNL     1       2.805  -0.405   0.265  0.00  0.00    +0.029 A 
ATOM     24  C   UNL     1       2.917   0.965   0.415  0.00  0.00    +0.005 A 
ENDBRANCH  15  22
ENDBRANCH   1  15
TORSDOF 3
