REMARK  Name = ZINC01211288
REMARK  5 active torsions:
REMARK  status: ('A' for Active; 'I' for Inactive)
REMARK    1  A    between atoms: C_1  and  C_2
REMARK    2  A    between atoms: C_5  and  C_25
REMARK    3  A    between atoms: C_6  and  N_8
REMARK    4  A    between atoms: C_10  and  C_15
REMARK    5  A    between atoms: N_17  and  C_18
REMARK                            x       y       z     vdW  Elec       q    Type
REMARK                         _______ _______ _______ _____ _____    ______ ____
ROOT
ATOM      1  N   UNL     1      -0.311   1.398   1.060  0.00  0.00    -0.270 N 
ATOM      2  C   UNL     1       0.230   0.934  -0.223  0.00  0.00    +0.127 C 
ATOM      3  C   UNL     1      -0.684   1.550  -1.305  0.00  0.00    +0.102 C 
ATOM      4  C   UNL     1      -2.004   1.752  -0.525  0.00  0.00    +0.110 C 
ATOM      5  C   UNL     1      -1.569   1.858   0.920  0.00  0.00    +0.221 C 
ATOM      6  O   UNL     1      -2.253   2.294   1.821  0.00  0.00    -0.275 OA
ENDROOT
BRANCH   1  12
ATOM      7  C   UNL     1       2.697   3.597   4.267  0.00  0.00    +0.044 C 
ATOM      8  C   UNL     1       1.856   2.418   3.849  0.00  0.00    -0.049 A 
ATOM      9  C   UNL     1       1.776   1.304   4.664  0.00  0.00    +0.004 A 
ATOM     10  C   UNL     1       1.005   0.221   4.285  0.00  0.00    +0.005 A 
ATOM     11  C   UNL     1       0.312   0.249   3.091  0.00  0.00    -0.029 A 
ATOM     12  C   UNL     1       0.390   1.366   2.270  0.00  0.00    +0.039 A 
ATOM     13  C   UNL     1       1.170   2.450   2.651  0.00  0.00    +0.027 A 
ATOM     14  C   UNL     1      -0.528  -0.932   2.678  0.00  0.00    +0.045 C 
ENDBRANCH   1  12
BRANCH   3  15
ATOM     15  C   UNL     1      -0.135   2.867  -1.788  0.00  0.00    +0.222 C 
ATOM     16  O   UNL     1       0.898   3.301  -1.324  0.00  0.00    -0.275 OA
ATOM     17  N   UNL     1      -0.792   3.564  -2.737  0.00  0.00    -0.285 N 
ATOM     18  H   UNL     1      -1.576   3.183  -3.163  0.00  0.00    +0.155 HD
BRANCH  17  19
ATOM     19  C   UNL     1      -0.344   4.837  -3.107  0.00  0.00    +0.033 A 
ATOM     20  C   UNL     1       0.244   5.669  -2.163  0.00  0.00    +0.024 A 
ATOM     21  C   UNL     1       0.690   6.923  -2.532  0.00  0.00    +0.017 A 
ATOM     22  C   UNL     1       0.542   7.355  -3.838  0.00  0.00    +0.018 A 
ATOM     23  C   UNL     1      -0.048   6.530  -4.780  0.00  0.00    +0.017 A 
ATOM     24  C   UNL     1      -0.491   5.273  -4.417  0.00  0.00    +0.024 A 
ATOM     25 BR   UNL     1       1.146   9.075  -4.338  0.00  0.00    -0.050 Br
ENDBRANCH  17  19
ENDBRANCH   3  15
TORSDOF 3
