REMARK  Name = ZINC48363999
REMARK  14 active torsions:
REMARK  status: ('A' for Active; 'I' for Inactive)
REMARK    1  A    between atoms: C_1  and  C_2
REMARK    2  A    between atoms: C_2  and  C_3
REMARK    3  A    between atoms: C_2  and  C_4
REMARK    4  A    between atoms: C_4  and  C_5
REMARK    5  A    between atoms: N_7  and  C_8
REMARK    6  A    between atoms: C_8  and  C_10
REMARK    7  A    between atoms: C_8  and  C_13
REMARK    8  A    between atoms: C_10  and  C_11
REMARK    9  A    between atoms: C_10  and  C_12
REMARK   10  A    between atoms: N_15  and  C_16
REMARK   11  A    between atoms: C_18  and  C_24
REMARK   12  A    between atoms: C_18  and  C_25
REMARK   13  A    between atoms: C_20  and  C_22
REMARK   14  A    between atoms: C_20  and  C_23
REMARK                            x       y       z     vdW  Elec       q    Type
REMARK                         _______ _______ _______ _____ _____    ______ ____
ROOT
ATOM      1  C   UNL     1       0.341  -1.258   5.704  0.00  0.00    +0.234 C 
ATOM      2  O   UNL     1       1.046  -2.245   5.698  0.00  0.00    -0.274 OA
ATOM      3  N   UNL     1      -0.441  -0.995   6.770  0.00  0.00    -0.311 N 
ATOM      4  H   UNL     1      -0.951  -0.170   6.806  0.00  0.00    +0.149 HD
ENDROOT
BRANCH   3   5
ATOM      5  C   UNL     1      -0.519  -1.955   7.878  0.00  0.00    +0.070 C 
ATOM      6  C   UNL     1       0.614  -1.675   8.867  0.00  0.00    +0.009 C 
ATOM      7  C   UNL     1       0.539  -2.659  10.034  0.00  0.00    -0.072 C 
ATOM      8  N   UNL     1      -0.770  -2.656  10.670  0.00  0.00    +0.386 N 
ATOM      9  C   UNL     1      -1.940  -2.711   9.808  0.00  0.00    -0.072 C 
ATOM     10  C   UNL     1      -1.849  -1.773   8.609  0.00  0.00    +0.009 C 
ATOM     11  C   UNL     1      -2.228  -4.138   9.334  0.00  0.00    -0.010 C 
ATOM     12  C   UNL     1      -3.158  -2.262  10.650  0.00  0.00    -0.010 C 
ATOM     13  C   UNL     1       1.572  -2.200  11.089  0.00  0.00    -0.010 C 
ATOM     14  C   UNL     1       0.952  -4.057   9.573  0.00  0.00    -0.010 C 
ATOM     15  H   UNL     1      -0.812  -3.443  11.322  0.00  0.00    -0.084 HD
ATOM     16  H   UNL     1      -0.841  -1.819  11.255  0.00  0.00    -0.084 HD
ENDBRANCH   3   5
BRANCH   1  17
ATOM     17  C   UNL     1       0.338  -0.327   4.519  0.00  0.00    +0.161 C 
BRANCH  17  20
ATOM     18  C   UNL     1       0.469  -0.631   2.105  0.00  0.00    +0.214 C 
ATOM     19  O   UNL     1      -0.265   0.325   1.974  0.00  0.00    -0.276 OA
ATOM     20  N   UNL     1       0.831  -1.039   3.337  0.00  0.00    -0.304 N 
ATOM     21  H   UNL     1       1.418  -1.804   3.442  0.00  0.00    +0.149 HD
BRANCH  18  22
ATOM     22  C   UNL     1       0.977  -1.364   0.890  0.00  0.00    +0.098 C 
BRANCH  22  24
ATOM     23  C   UNL     1       0.979   0.717  -0.494  0.00  0.00    +0.008 C 
ATOM     24  C   UNL     1       0.421  -0.703  -0.373  0.00  0.00    -0.008 C 
ATOM     25  C   UNL     1       0.834  -1.519  -1.600  0.00  0.00    +0.008 C 
ENDBRANCH  22  24
ENDBRANCH  18  22
ENDBRANCH  17  20
BRANCH  17  26
ATOM     26  C   UNL     1       1.244   0.870   4.809  0.00  0.00    +0.012 C 
ATOM     27  C   UNL     1       2.693   0.394   4.939  0.00  0.00    +0.009 C 
ATOM     28  C   UNL     1       1.140   1.878   3.663  0.00  0.00    +0.009 C 
ENDBRANCH  17  26
ENDBRANCH   1  17
TORSDOF 6
