REMARK  Name = ZINC61095171
REMARK  3 active torsions:
REMARK  status: ('A' for Active; 'I' for Inactive)
REMARK    1  A    between atoms: C_4  and  S_7
REMARK    2  A    between atoms: S_7  and  N_10
REMARK    3  A    between atoms: N_10  and  C_11
REMARK                            x       y       z     vdW  Elec       q    Type
REMARK                         _______ _______ _______ _____ _____    ______ ____
ROOT
ATOM      1  N   UNL     1       3.173  -2.560  -0.043  0.00  0.00    -0.094 NA
ENDROOT
BRANCH   1   2
ATOM      2  C   UNL     1       3.734  -3.842  -0.057  0.00  0.00    +0.112 A 
ATOM      3  C   UNL     1       2.911  -4.960  -0.061  0.00  0.00    +0.071 A 
ATOM      4  C   UNL     1       3.468  -6.227  -0.074  0.00  0.00    +0.160 A 
ATOM      5  C   UNL     1       4.846  -6.380  -0.082  0.00  0.00    +0.161 A 
ATOM      6  C   UNL     1       5.668  -5.266  -0.078  0.00  0.00    +0.081 A 
ATOM      7  C   UNL     1       5.115  -3.998  -0.071  0.00  0.00    +0.151 A 
ATOM      8  F   UNL     1       5.918  -2.911  -0.072  0.00  0.00    -0.203 F 
ATOM      9  F   UNL     1       5.387  -7.617  -0.095  0.00  0.00    -0.202 F 
ATOM     10  F   UNL     1       2.668  -7.315  -0.078  0.00  0.00    -0.202 F 
ENDBRANCH   1   2
BRANCH   1  11
ATOM     11  S   UNL     1       1.527  -2.376  -0.026  0.00  0.00    +0.099 S 
ATOM     12  O   UNL     1       1.075  -2.885   1.220  0.00  0.00    -0.148 OA
ATOM     13  O   UNL     1       1.050  -2.870  -1.270  0.00  0.00    -0.148 OA
BRANCH  11  17
ATOM     14  C   UNL     1      -0.017   1.379   0.010  0.00  0.00    +0.025 A 
ATOM     15  C   UNL     1       1.160   2.052   0.002  0.00  0.00    +0.048 A 
ATOM     16  S   UNL     1       2.348   0.720  -0.017  0.00  0.00    -0.076 S 
ATOM     17  C   UNL     1       1.197  -0.645  -0.013  0.00  0.00    +0.161 A 
ATOM     18  C   UNL     1       0.002  -0.004   0.002  0.00  0.00    +0.052 A 
ATOM     19 BR   UNL     1      -1.614  -0.986   0.013  0.00  0.00    -0.048 Br
ENDBRANCH  11  17
ENDBRANCH   1  11
TORSDOF 3
