REMARK  Name = ZINC20550818
REMARK  8 active torsions:
REMARK  status: ('A' for Active; 'I' for Inactive)
REMARK    1  A    between atoms: C_1  and  C_2
REMARK    2  A    between atoms: C_2  and  C_4
REMARK    3  A    between atoms: C_2  and  O_31
REMARK    4  A    between atoms: C_10  and  S_14
REMARK    5  A    between atoms: S_14  and  C_17
REMARK    6  A    between atoms: C_25  and  C_27
REMARK    7  A    between atoms: C_27  and  C_29
REMARK    8  A    between atoms: C_27  and  O_30
REMARK                            x       y       z     vdW  Elec       q    Type
REMARK                         _______ _______ _______ _____ _____    ______ ____
ROOT
ATOM      1  S   UNL     1       2.445  -1.501  -7.087  0.00  0.00    +0.025 S 
ATOM      2  O   UNL     1       1.855  -0.288  -7.533  0.00  0.00    -0.164 OA
ATOM      3  O   UNL     1       3.787  -1.853  -7.393  0.00  0.00    -0.164 OA
ENDROOT
BRANCH   1  10
ATOM      4  C   UNL     1       0.707  -0.490  -1.238  0.00  0.00    +0.137 A 
ATOM      5  N   UNL     1       1.768  -1.343  -1.248  0.00  0.00    -0.340 N 
ATOM      6  H   UNL     1       2.195  -1.738  -0.472  0.00  0.00    +0.167 HD
ATOM      7  C   UNL     1       2.122  -1.541  -2.567  0.00  0.00    +0.066 A 
ATOM      8  C   UNL     1       3.104  -2.290  -3.202  0.00  0.00    +0.029 A 
ATOM      9  C   UNL     1       3.194  -2.271  -4.578  0.00  0.00    +0.029 A 
ATOM     10  C   UNL     1       2.311  -1.510  -5.330  0.00  0.00    +0.096 A 
ATOM     11  C   UNL     1       1.338  -0.767  -4.723  0.00  0.00    +0.057 A 
ATOM     12  C   UNL     1       1.228  -0.771  -3.329  0.00  0.00    +0.091 A 
ATOM     13  N   UNL     1       0.388  -0.160  -2.455  0.00  0.00    -0.230 NA
BRANCH   4  15
ATOM     14  C   UNL     1      -0.019   1.526   0.010  0.00  0.00    +0.046 C 
ATOM     15  C   UNL     1       0.002  -0.004   0.002  0.00  0.00    +0.177 C 
BRANCH  15  16
ATOM     16  O   UNL     1       0.693  -0.477   1.160  0.00  0.00    -0.384 OA
ATOM     17  H   UNL     1       0.294  -0.202   1.996  0.00  0.00    +0.210 HD
ENDBRANCH  15  16
ENDBRANCH   4  15
ENDBRANCH   1  10
BRANCH   1  18
ATOM     18  C   UNL     1       1.431  -2.808  -7.694  0.00  0.00    +0.096 A 
ATOM     19  C   UNL     1       1.967  -4.077  -7.858  0.00  0.00    +0.029 A 
ATOM     20  C   UNL     1       1.198  -5.103  -8.327  0.00  0.00    +0.032 A 
ATOM     21  C   UNL     1      -0.144  -4.878  -8.646  0.00  0.00    +0.089 A 
ATOM     22  C   UNL     1      -0.688  -3.593  -8.479  0.00  0.00    +0.068 A 
ATOM     23  C   UNL     1       0.108  -2.563  -7.997  0.00  0.00    +0.055 A 
ATOM     24  N   UNL     1      -2.009  -3.685  -8.870  0.00  0.00    -0.340 N 
ATOM     25  H   UNL     1      -2.659  -2.965  -8.874  0.00  0.00    +0.167 HD
ATOM     26  C   UNL     1      -2.230  -4.972  -9.251  0.00  0.00    +0.137 A 
ATOM     27  N   UNL     1      -1.140  -5.670  -9.120  0.00  0.00    -0.230 NA
BRANCH  26  28
ATOM     28  C   UNL     1      -3.545  -5.511  -9.751  0.00  0.00    +0.177 C 
ATOM     29  C   UNL     1      -3.341  -6.167 -11.118  0.00  0.00    +0.046 C 
BRANCH  28  30
ATOM     30  O   UNL     1      -4.045  -6.480  -8.828  0.00  0.00    -0.384 OA
ATOM     31  H   UNL     1      -4.891  -6.870  -9.086  0.00  0.00    +0.210 HD
ENDBRANCH  28  30
ENDBRANCH  26  28
ENDBRANCH   1  18
TORSDOF 6
