REMARK  Name = ZINC12573816
REMARK  7 active torsions:
REMARK  status: ('A' for Active; 'I' for Inactive)
REMARK    1  A    between atoms: C_3  and  N_14
REMARK    2  A    between atoms: C_4  and  N_11
REMARK    3  A    between atoms: C_6  and  S_7
REMARK    4  A    between atoms: S_7  and  N_10
REMARK    5  A    between atoms: N_14  and  N_15
REMARK    6  A    between atoms: C_16  and  C_17
REMARK    7  A    between atoms: C_20  and  O_24
REMARK                            x       y       z     vdW  Elec       q    Type
REMARK                         _______ _______ _______ _____ _____    ______ ____
ROOT
ATOM      1  C   UNL     1      -0.000   1.379  -0.204  0.00  0.00    +0.030 A 
ATOM      2  C   UNL     1       1.198   2.063  -0.265  0.00  0.00    +0.029 A 
ATOM      3  C   UNL     1       2.394   1.384  -0.066  0.00  0.00    +0.079 A 
ATOM      4  C   UNL     1       2.380   0.018   0.194  0.00  0.00    +0.150 A 
ATOM      5  C   UNL     1       1.178  -0.659   0.253  0.00  0.00    +0.063 A 
ATOM      6  C   UNL     1      -0.011   0.020   0.054  0.00  0.00    +0.107 A 
ENDROOT
BRANCH   6   7
ATOM      7  S   UNL     1      -1.542  -0.849   0.130  0.00  0.00    +0.056 S 
ATOM      8  O   UNL     1      -1.314  -2.004   0.925  0.00  0.00    -0.153 OA
ATOM      9  O   UNL     1      -2.538   0.112   0.451  0.00  0.00    -0.153 OA
BRANCH   7  10
ATOM     10  N   UNL     1      -1.877  -1.386  -1.400  0.00  0.00    -0.204 NA
ATOM     11  H   UNL     1      -2.384  -2.202  -1.527  0.00  0.00    +0.144 HD
ATOM     12  H   UNL     1      -1.565  -0.884  -2.169  0.00  0.00    +0.144 HD
ENDBRANCH   7  10
ENDBRANCH   6   7
BRANCH   4  13
ATOM     13  N   UNL     1       3.652  -0.709   0.406  0.00  0.00    +0.058 N 
ATOM     14  O   UNL     1       3.785  -1.832  -0.021  0.00  0.00    -0.126 OA
ATOM     15  O   UNL     1       4.558  -0.180   1.007  0.00  0.00    -0.126 OA
ENDBRANCH   4  13
BRANCH   3  16
ATOM     16  N   UNL     1       3.607   2.072  -0.126  0.00  0.00    -0.236 N 
ATOM     17  H   UNL     1       4.444   1.585  -0.065  0.00  0.00    +0.174 HD
BRANCH  16  18
ATOM     18  N   UNL     1       3.615   3.465  -0.276  0.00  0.00    -0.190 NA
ATOM     19  C   UNL     1       4.743   4.105  -0.333  0.00  0.00    +0.138 C 
BRANCH  19  20
ATOM     20  C   UNL     1       4.752   5.571  -0.491  0.00  0.00    -0.003 A 
ATOM     21  C   UNL     1       3.548   6.274  -0.574  0.00  0.00    +0.028 A 
ATOM     22  C   UNL     1       3.561   7.645  -0.722  0.00  0.00    +0.061 A 
ATOM     23  C   UNL     1       4.769   8.327  -0.788  0.00  0.00    +0.145 A 
ATOM     24  C   UNL     1       5.969   7.632  -0.706  0.00  0.00    +0.061 A 
ATOM     25  C   UNL     1       5.965   6.261  -0.552  0.00  0.00    +0.028 A 
ATOM     26 BR   UNL     1       7.610   8.567  -0.798  0.00  0.00    -0.046 Br
ATOM     27 BR   UNL     1       1.931   8.598  -0.835  0.00  0.00    -0.046 Br
BRANCH  23  28
ATOM     28  O   UNL     1       4.777   9.678  -0.933  0.00  0.00    -0.505 OA
ATOM     29  H   UNL     1       4.774  10.164  -0.097  0.00  0.00    +0.292 HD
ENDBRANCH  23  28
ENDBRANCH  19  20
ENDBRANCH  16  18
ENDBRANCH   3  16
TORSDOF 7
