REMARK  Name = ZINC17245420
REMARK  8 active torsions:
REMARK  status: ('A' for Active; 'I' for Inactive)
REMARK    1  A    between atoms: C_1  and  C_2
REMARK    2  A    between atoms: C_2  and  C_3
REMARK    3  A    between atoms: N_10  and  N_13
REMARK    4  A    between atoms: C_14  and  C_16
REMARK    5  A    between atoms: C_16  and  C_17
REMARK    6  A    between atoms: C_17  and  C_18
REMARK    7  A    between atoms: C_19  and  C_29
REMARK    8  A    between atoms: C_26  and  C_27
REMARK                            x       y       z     vdW  Elec       q    Type
REMARK                         _______ _______ _______ _____ _____    ______ ____
ROOT
ATOM      1  N   UNL     1       1.258  -4.878  -2.645  0.00  0.00    -0.219 N 
ATOM      2  C   UNL     1       1.260  -4.210  -1.474  0.00  0.00    +0.231 C 
ATOM      3  O   UNL     1       1.279  -4.821  -0.427  0.00  0.00    -0.274 OA
ATOM      4  H   UNL     1       1.243  -4.388  -3.482  0.00  0.00    +0.176 HD
ENDROOT
BRANCH   1  12
ATOM      5  C   UNL     1      -0.624 -10.646  -3.181  0.00  0.00    -0.008 A 
ATOM      6  C   UNL     1      -0.881  -9.329  -3.236  0.00  0.00    +0.026 A 
ATOM      7  C   UNL     1       0.185  -8.386  -2.953  0.00  0.00    +0.074 A 
ATOM      8  C   UNL     1       1.426  -8.968  -2.639  0.00  0.00    +0.115 A 
ATOM      9  S   UNL     1       1.102 -10.710  -2.737  0.00  0.00    -0.073 S 
ATOM     10  N   UNL     1       2.497  -8.232  -2.356  0.00  0.00    -0.228 NA
ATOM     11  C   UNL     1       2.438  -6.927  -2.365  0.00  0.00    +0.223 A 
ATOM     12  N   UNL     1       1.280  -6.278  -2.652  0.00  0.00    -0.212 N 
ATOM     13  C   UNL     1       0.154  -6.953  -2.948  0.00  0.00    +0.279 A 
ATOM     14  O   UNL     1      -0.876  -6.356  -3.207  0.00  0.00    -0.265 OA
BRANCH   5  16
ATOM     15  C   UNL     1      -1.527 -12.170  -4.915  0.00  0.00    +0.009 C 
ATOM     16  C   UNL     1      -1.567 -11.793  -3.433  0.00  0.00    +0.039 C 
ENDBRANCH   5  16
ENDBRANCH   1  12
BRANCH   2  17
ATOM     17  C   UNL     1       1.237  -2.703  -1.466  0.00  0.00    +0.102 C 
BRANCH  17  18
ATOM     18  C   UNL     1       1.243  -2.200  -0.021  0.00  0.00    +0.048 C 
BRANCH  18  19
ATOM     19  C   UNL     1       1.220  -0.693  -0.013  0.00  0.00    -0.005 A 
ATOM     20  C   UNL     1       0.002  -0.004   0.002  0.00  0.00    +0.047 A 
ATOM     21  N   UNL     1      -0.016   1.310   0.009  0.00  0.00    -0.216 NA
ATOM     22  C   UNL     1       1.123   2.012   0.002  0.00  0.00    +0.255 A 
ATOM     23  N   UNL     1       1.370   3.318   0.007  0.00  0.00    -0.176 NA
ATOM     24  C   UNL     1       2.685   3.526  -0.005  0.00  0.00    +0.234 A 
ATOM     25  N   UNL     1       3.312   2.367  -0.017  0.00  0.00    -0.128 NA
ATOM     26  N   UNL     1       2.329   1.369  -0.013  0.00  0.00    -0.199 N 
ATOM     27  C   UNL     1       2.381   0.012  -0.021  0.00  0.00    +0.048 A 
ATOM     28  C   UNL     1       3.709  -0.702  -0.038  0.00  0.00    +0.066 C 
ATOM     29  N   UNL     1       3.301   4.774  -0.004  0.00  0.00    -0.326 N 
ATOM     30  C   UNL     1      -1.295  -0.772   0.011  0.00  0.00    +0.066 C 
ATOM     31  H   UNL     1       4.269   4.837  -0.013  0.00  0.00    +0.145 HD
ATOM     32  H   UNL     1       2.763   5.581   0.006  0.00  0.00    +0.145 HD
ENDBRANCH  18  19
ENDBRANCH  17  18
ENDBRANCH   2  17
TORSDOF 5
