REMARK  Name = ZINC40797408
REMARK  4 active torsions:
REMARK  status: ('A' for Active; 'I' for Inactive)
REMARK    1  A    between atoms: C_3  and  N_8
REMARK    2  A    between atoms: C_10  and  N_23
REMARK    3  A    between atoms: C_11  and  O_15
REMARK    4  A    between atoms: O_15  and  C_16
REMARK                            x       y       z     vdW  Elec       q    Type
REMARK                         _______ _______ _______ _____ _____    ______ ____
ROOT
ATOM      1  N   UNL     1       3.581   2.119   0.004  0.00  0.00    -0.298 N 
ATOM      2  C   UNL     1       4.793   1.444   0.094  0.00  0.00    +0.151 A 
ATOM      3  C   UNL     1       5.994   2.152   0.184  0.00  0.00    +0.128 A 
ATOM      4  C   UNL     1       7.181   1.426   0.273  0.00  0.00    +0.246 A 
ATOM      5  N   UNL     1       7.125   0.098   0.269  0.00  0.00    -0.199 NA
ATOM      6  C   UNL     1       5.971  -0.533   0.183  0.00  0.00    +0.227 A 
ATOM      7  N   UNL     1       4.826   0.115   0.102  0.00  0.00    -0.218 NA
ATOM      8  H   UNL     1       3.569   3.085  -0.091  0.00  0.00    +0.154 HD
ENDROOT
BRANCH   1  11
ATOM      9  C   UNL     1       1.130  -0.516   0.750  0.00  0.00    +0.003 A 
ATOM     10  C   UNL     1       2.319   0.185   0.706  0.00  0.00    +0.023 A 
ATOM     11  C   UNL     1       2.379   1.407   0.049  0.00  0.00    +0.033 A 
ATOM     12  C   UNL     1       1.242   1.921  -0.562  0.00  0.00    +0.038 A 
ATOM     13  C   UNL     1       0.056   1.214  -0.514  0.00  0.00    +0.020 A 
ATOM     14  C   UNL     1      -0.000  -0.003   0.141  0.00  0.00    +0.015 A 
ATOM     15 BR   UNL     1      -1.493   1.912  -1.345  0.00  0.00    -0.050 Br
ENDBRANCH   1  11
BRANCH   3  16
ATOM     16  N   UNL     1       6.006   3.555   0.184  0.00  0.00    -0.351 N 
ATOM     17  H   UNL     1       5.173   4.048   0.121  0.00  0.00    +0.143 HD
ATOM     18  H   UNL     1       6.848   4.033   0.246  0.00  0.00    +0.143 HD
ENDBRANCH   3  16
BRANCH   4  19
ATOM     19  O   UNL     1       8.374   2.065   0.362  0.00  0.00    -0.436 OA
BRANCH  19  20
ATOM     20  C   UNL     1       9.505   1.311   0.340  0.00  0.00    +0.130 A 
ATOM     21  C   UNL     1       9.847   0.605  -0.804  0.00  0.00    +0.047 A 
ATOM     22  C   UNL     1      10.997  -0.160  -0.825  0.00  0.00    +0.019 A 
ATOM     23  C   UNL     1      11.807  -0.223   0.295  0.00  0.00    +0.018 A 
ATOM     24  C   UNL     1      11.468   0.481   1.437  0.00  0.00    +0.019 A 
ATOM     25  C   UNL     1      10.322   1.252   1.460  0.00  0.00    +0.047 A 
ATOM     26 BR   UNL     1      13.381  -1.271   0.264  0.00  0.00    -0.050 Br
ENDBRANCH  19  20
ENDBRANCH   4  19
TORSDOF 4
