REMARK  Name = ZINC02371375
REMARK  9 active torsions:
REMARK  status: ('A' for Active; 'I' for Inactive)
REMARK    1  A    between atoms: C_1  and  C_2
REMARK    2  A    between atoms: N_4  and  C_5
REMARK    3  A    between atoms: C_5  and  N_7
REMARK    4  A    between atoms: N_7  and  C_8
REMARK    5  A    between atoms: C_11  and  N_14
REMARK    6  A    between atoms: N_14  and  C_15
REMARK    7  A    between atoms: C_15  and  N_17
REMARK    8  A    between atoms: C_18  and  C_20
REMARK    9  A    between atoms: C_21  and  C_22
REMARK                            x       y       z     vdW  Elec       q    Type
REMARK                         _______ _______ _______ _____ _____    ______ ____
ROOT
ATOM      1  N   UNL     1      -2.323   0.981  -0.021  0.00  0.00    -0.297 N 
ATOM      2  H   UNL     1      -2.186   0.132   0.427  0.00  0.00    +0.154 HD
ENDROOT
BRANCH   1   6
ATOM      3  C   UNL     1      -5.970   2.968   0.351  0.00  0.00    +0.033 A 
ATOM      4  C   UNL     1      -5.371   2.845  -0.895  0.00  0.00    +0.025 A 
ATOM      5  C   UNL     1      -4.163   2.187  -1.019  0.00  0.00    +0.025 A 
ATOM      6  C   UNL     1      -3.548   1.649   0.104  0.00  0.00    +0.033 A 
ATOM      7  C   UNL     1      -4.151   1.766   1.350  0.00  0.00    +0.025 A 
ATOM      8  C   UNL     1      -5.355   2.429   1.474  0.00  0.00    +0.025 A 
BRANCH   3   9
ATOM      9  N   UNL     1      -7.195   3.636   0.477  0.00  0.00    -0.297 N 
ATOM     10  H   UNL     1      -7.325   4.281   1.189  0.00  0.00    +0.154 HD
BRANCH   9  11
ATOM     11  C   UNL     1      -8.193   3.382  -0.393  0.00  0.00    +0.141 C 
ATOM     12  S   UNL     1      -7.930   2.325  -1.713  0.00  0.00    -0.018 S 
BRANCH  11  16
ATOM     13  C   UNL     1     -11.745   4.351  -0.901  0.00  0.00    +0.109 C 
ATOM     14  C   UNL     1     -10.397   3.705  -1.091  0.00  0.00    +0.215 C 
ATOM     15  O   UNL     1     -10.210   2.957  -2.027  0.00  0.00    -0.276 OA
ATOM     16  N   UNL     1      -9.399   3.959  -0.222  0.00  0.00    -0.268 N 
ATOM     17  H   UNL     1      -9.548   4.558   0.526  0.00  0.00    +0.156 HD
ENDBRANCH  11  16
ENDBRANCH   9  11
ENDBRANCH   3   9
ENDBRANCH   1   6
BRANCH   1  18
ATOM     18  C   UNL     1      -1.335   1.519  -0.764  0.00  0.00    +0.141 C 
ATOM     19  S   UNL     1      -1.614   2.962  -1.642  0.00  0.00    -0.018 S 
BRANCH  18  20
ATOM     20  N   UNL     1      -0.129   0.921  -0.816  0.00  0.00    -0.264 N 
ATOM     21  C   UNL     1       0.857   1.456  -1.563  0.00  0.00    +0.242 C 
ATOM     22  O   UNL     1       0.659   2.482  -2.187  0.00  0.00    -0.270 OA
ATOM     23  H   UNL     1       0.029   0.103  -0.318  0.00  0.00    +0.157 HD
BRANCH  21  24
ATOM     24  C   UNL     1       2.164   0.803  -1.624  0.00  0.00    +0.068 C 
ATOM     25  C   UNL     1       3.152   1.339  -2.372  0.00  0.00    +0.014 C 
BRANCH  25  26
ATOM     26  C   UNL     1       4.466   0.683  -2.433  0.00  0.00    -0.006 A 
ATOM     27  C   UNL     1       4.699  -0.494  -1.713  0.00  0.00    +0.011 A 
ATOM     28  C   UNL     1       5.932  -1.105  -1.778  0.00  0.00    +0.020 A 
ATOM     29  C   UNL     1       6.944  -0.553  -2.547  0.00  0.00    +0.042 A 
ATOM     30  C   UNL     1       6.724   0.614  -3.260  0.00  0.00    +0.040 A 
ATOM     31  C   UNL     1       5.493   1.236  -3.208  0.00  0.00    +0.049 A 
ATOM     32 CL   UNL     1       5.218   2.699  -4.101  0.00  0.00    -0.083 Cl
ATOM     33 CL   UNL     1       8.496  -1.328  -2.618  0.00  0.00    -0.083 Cl
ENDBRANCH  25  26
ENDBRANCH  21  24
ENDBRANCH  18  20
ENDBRANCH   1  18
TORSDOF 8
