REMARK  Name = ZINC14660383
REMARK  12 active torsions:
REMARK  status: ('A' for Active; 'I' for Inactive)
REMARK    1  A    between atoms: C_1  and  C_2
REMARK    2  A    between atoms: C_2  and  C_3
REMARK    3  A    between atoms: N_5  and  C_6
REMARK    4  A    between atoms: C_9  and  C_12
REMARK    5  A    between atoms: N_14  and  N_15
REMARK    6  A    between atoms: N_15  and  C_16
REMARK    7  A    between atoms: C_16  and  N_18
REMARK    8  A    between atoms: C_19  and  C_21
REMARK    9  A    between atoms: C_24  and  O_28
REMARK   10  A    between atoms: O_28  and  C_29
REMARK   11  A    between atoms: C_29  and  C_30
REMARK   12  A    between atoms: C_29  and  C_31
REMARK                            x       y       z     vdW  Elec       q    Type
REMARK                         _______ _______ _______ _____ _____    ______ ____
ROOT
ATOM      1  N   UNL     1      -2.553  -6.753   0.126  0.00  0.00    -0.245 N 
ATOM      2  H   UNL     1      -2.551  -7.715   0.251  0.00  0.00    +0.172 HD
ENDROOT
BRANCH   1   5
ATOM      3  C   UNL     1      -4.906  -6.685   0.482  0.00  0.00    +0.260 C 
ATOM      4  O   UNL     1      -4.903  -7.891   0.639  0.00  0.00    -0.269 OA
ATOM      5  N   UNL     1      -3.754  -6.037   0.218  0.00  0.00    -0.231 N 
ATOM      6  H   UNL     1      -3.756  -5.076   0.092  0.00  0.00    +0.173 HD
BRANCH   3  10
ATOM      7  C   UNL     1      -8.546  -4.516   0.762  0.00  0.00    +0.033 A 
ATOM      8  C   UNL     1      -8.544  -5.895   0.943  0.00  0.00    +0.024 A 
ATOM      9  C   UNL     1      -7.366  -6.601   0.852  0.00  0.00    +0.015 A 
ATOM     10  C   UNL     1      -6.171  -5.931   0.579  0.00  0.00    +0.038 A 
ATOM     11  C   UNL     1      -6.175  -4.545   0.404  0.00  0.00    +0.015 A 
ATOM     12  C   UNL     1      -7.358  -3.845   0.489  0.00  0.00    +0.024 A 
BRANCH   7  15
ATOM     13  C   UNL     1     -10.896  -4.370   0.452  0.00  0.00    +0.217 C 
ATOM     14  O   UNL     1     -10.884  -5.462  -0.076  0.00  0.00    -0.275 OA
ATOM     15  N   UNL     1      -9.741  -3.803   0.853  0.00  0.00    -0.286 N 
ATOM     16  H   UNL     1      -9.741  -2.900   1.206  0.00  0.00    +0.155 HD
BRANCH  13  18
ATOM     17  C   UNL     1     -13.350  -4.503   0.119  0.00  0.00    +0.013 C 
ATOM     18  C   UNL     1     -12.202  -3.648   0.659  0.00  0.00    +0.093 C 
ENDBRANCH  13  18
ENDBRANCH   7  15
ENDBRANCH   3  10
ENDBRANCH   1   5
BRANCH   1  19
ATOM     19  C   UNL     1      -1.401  -6.106  -0.138  0.00  0.00    +0.153 C 
ATOM     20  S   UNL     1       0.067  -6.980  -0.251  0.00  0.00    -0.017 S 
BRANCH  19  21
ATOM     21  N   UNL     1      -1.404  -4.769  -0.312  0.00  0.00    -0.263 N 
ATOM     22  C   UNL     1      -0.252  -4.121  -0.576  0.00  0.00    +0.250 C 
ATOM     23  O   UNL     1       0.790  -4.742  -0.656  0.00  0.00    -0.270 OA
ATOM     24  H   UNL     1      -2.235  -4.274  -0.248  0.00  0.00    +0.157 HD
BRANCH  22  25
ATOM     25  C   UNL     1      -0.255  -2.658  -0.767  0.00  0.00    +0.038 A 
ATOM     26  C   UNL     1       0.939  -1.985  -1.040  0.00  0.00    +0.017 A 
ATOM     27  C   UNL     1       0.932  -0.619  -1.218  0.00  0.00    +0.047 A 
ATOM     28  C   UNL     1      -0.260   0.089  -1.126  0.00  0.00    +0.135 A 
ATOM     29  C   UNL     1      -1.450  -0.576  -0.849  0.00  0.00    +0.060 A 
ATOM     30  C   UNL     1      -1.452  -1.943  -0.675  0.00  0.00    +0.032 A 
ATOM     31 BR   UNL     1      -3.067   0.396  -0.717  0.00  0.00    -0.046 Br
BRANCH  28  32
ATOM     32  O   UNL     1      -0.263   1.435  -1.302  0.00  0.00    -0.488 OA
BRANCH  32  33
ATOM     33  C   UNL     1       0.970   2.040  -1.699  0.00  0.00    +0.167 C 
ATOM     34  C   UNL     1       0.682   3.357  -2.423  0.00  0.00    +0.051 C 
ATOM     35  C   UNL     1       1.824   2.316  -0.460  0.00  0.00    +0.051 C 
ENDBRANCH  32  33
ENDBRANCH  28  32
ENDBRANCH  22  25
ENDBRANCH  19  21
ENDBRANCH   1  19
TORSDOF 9
