REMARK  Name = ZINC66200742
REMARK  13 active torsions:
REMARK  status: ('A' for Active; 'I' for Inactive)
REMARK    1  A    between atoms: C_1  and  C_2
REMARK    2  A    between atoms: C_2  and  C_3
REMARK    3  A    between atoms: C_2  and  C_4
REMARK    4  A    between atoms: C_4  and  C_5
REMARK    5  A    between atoms: N_7  and  C_8
REMARK    6  A    between atoms: C_11  and  C_14
REMARK    7  A    between atoms: N_16  and  N_17
REMARK    8  A    between atoms: C_18  and  C_19
REMARK    9  A    between atoms: C_21  and  O_28
REMARK   10  A    between atoms: C_22  and  O_27
REMARK   11  A    between atoms: C_23  and  O_25
REMARK   12  A    between atoms: O_25  and  C_26
REMARK   13  A    between atoms: O_28  and  C_29
REMARK                            x       y       z     vdW  Elec       q    Type
REMARK                         _______ _______ _______ _____ _____    ______ ____
ROOT
ATOM      1  C   UNL     1      -2.745  -8.298  -0.982  0.00  0.00    +0.263 C 
ATOM      2  O   UNL     1      -1.710  -8.932  -1.069  0.00  0.00    -0.268 OA
ATOM      3  N   UNL     1      -3.932  -8.927  -1.088  0.00  0.00    -0.203 N 
ATOM      4  H   UNL     1      -4.757  -8.422  -1.019  0.00  0.00    +0.178 HD
ENDROOT
BRANCH   1   8
ATOM      5  C   UNL     1      -2.616  -4.101  -0.343  0.00  0.00    +0.033 A 
ATOM      6  C   UNL     1      -1.432  -4.825  -0.441  0.00  0.00    +0.024 A 
ATOM      7  C   UNL     1      -1.470  -6.186  -0.648  0.00  0.00    +0.015 A 
ATOM      8  C   UNL     1      -2.700  -6.840  -0.759  0.00  0.00    +0.038 A 
ATOM      9  C   UNL     1      -3.888  -6.110  -0.659  0.00  0.00    +0.015 A 
ATOM     10  C   UNL     1      -3.843  -4.751  -0.447  0.00  0.00    +0.024 A 
BRANCH   5  13
ATOM     11  C   UNL     1      -1.597  -1.986  -0.696  0.00  0.00    +0.217 C 
ATOM     12  O   UNL     1      -0.707  -2.530  -1.315  0.00  0.00    -0.275 OA
ATOM     13  N   UNL     1      -2.574  -2.724  -0.133  0.00  0.00    -0.285 N 
ATOM     14  H   UNL     1      -3.249  -2.296   0.417  0.00  0.00    +0.155 HD
BRANCH  11  15
ATOM     15  C   UNL     1      -1.609  -0.485  -0.556  0.00  0.00    +0.099 C 
BRANCH  15  17
ATOM     16  C   UNL     1      -0.477   1.632  -1.247  0.00  0.00    +0.008 C 
ATOM     17  C   UNL     1      -0.398   0.105  -1.282  0.00  0.00    -0.008 C 
ATOM     18  C   UNL     1       0.885  -0.356  -0.588  0.00  0.00    +0.008 C 
ENDBRANCH  15  17
ENDBRANCH  11  15
ENDBRANCH   5  13
ENDBRANCH   1   8
BRANCH   3  19
ATOM     19  N   UNL     1      -3.974 -10.312  -1.299  0.00  0.00    -0.187 NA
ATOM     20  C   UNL     1      -5.117 -10.918  -1.402  0.00  0.00    +0.138 C 
BRANCH  20  21
ATOM     21  C   UNL     1      -5.162 -12.375  -1.624  0.00  0.00    +0.002 A 
ATOM     22  C   UNL     1      -3.974 -13.105  -1.719  0.00  0.00    +0.059 A 
ATOM     23  C   UNL     1      -4.019 -14.472  -1.928  0.00  0.00    +0.166 A 
ATOM     24  C   UNL     1      -5.245 -15.119  -2.043  0.00  0.00    +0.201 A 
ATOM     25  C   UNL     1      -6.430 -14.395  -1.950  0.00  0.00    +0.166 A 
ATOM     26  C   UNL     1      -6.391 -13.029  -1.735  0.00  0.00    +0.059 A 
BRANCH  25  27
ATOM     27  O   UNL     1      -7.626 -15.031  -2.064  0.00  0.00    -0.491 OA
ATOM     28  C   UNL     1      -8.802 -14.226  -1.958  0.00  0.00    +0.277 C 
ENDBRANCH  25  27
BRANCH  24  29
ATOM     29  O   UNL     1      -5.287 -16.463  -2.248  0.00  0.00    -0.501 OA
ATOM     30  H   UNL     1      -5.310 -16.985  -1.434  0.00  0.00    +0.292 HD
ENDBRANCH  24  29
BRANCH  23  31
ATOM     31  O   UNL     1      -2.864 -15.183  -2.020  0.00  0.00    -0.491 OA
ATOM     32  C   UNL     1      -1.641 -14.454  -1.893  0.00  0.00    +0.277 C 
ENDBRANCH  23  31
ENDBRANCH  20  21
ENDBRANCH   3  19
TORSDOF 9
