REMARK  Name = ZINC44963084
REMARK  8 active torsions:
REMARK  status: ('A' for Active; 'I' for Inactive)
REMARK    1  A    between atoms: C_1  and  C_2
REMARK    2  A    between atoms: C_2  and  C_22
REMARK    3  A    between atoms: C_6  and  O_21
REMARK    4  A    between atoms: C_8  and  O_20
REMARK    5  A    between atoms: C_12  and  C_14
REMARK    6  A    between atoms: C_14  and  O_15
REMARK    7  A    between atoms: O_15  and  S_16
REMARK    8  A    between atoms: S_16  and  N_19
REMARK                            x       y       z     vdW  Elec       q    Type
REMARK                         _______ _______ _______ _____ _____    ______ ____
ROOT
ATOM      1  C   UNL     1      -0.019   1.528   0.010  0.00  0.00    +0.074 C 
ATOM      2  C   UNL     1       0.002  -0.004   0.002  0.00  0.00    +0.169 C 
ATOM      3  O   UNL     1      -1.337  -0.502   0.004  0.00  0.00    -0.338 OA
ATOM      4  C   UNL     1      -1.501  -1.359   1.156  0.00  0.00    +0.214 C 
ATOM      5  C   UNL     1      -1.679  -2.779   0.672  0.00  0.00    +0.179 C 
ATOM      6  C   UNL     1      -0.993  -3.847   1.495  0.00  0.00    +0.171 C 
ATOM      7  C   UNL     1       0.400  -3.385   1.920  0.00  0.00    +0.197 C 
ATOM      8  O   UNL     1       0.238  -2.204   2.705  0.00  0.00    -0.342 OA
ATOM      9  C   UNL     1      -0.280  -1.084   2.021  0.00  0.00    +0.228 C 
ATOM     10  O   UNL     1       0.694  -0.484   1.160  0.00  0.00    -0.313 OA
ATOM     11  C   UNL     1       0.732  -0.480  -1.259  0.00  0.00    +0.074 C 
ENDROOT
BRANCH   6  12
ATOM     12  O   UNL     1      -0.876  -5.041   0.719  0.00  0.00    -0.387 OA
ATOM     13  H   UNL     1      -0.445  -5.771   1.184  0.00  0.00    +0.210 HD
ENDBRANCH   6  12
BRANCH   5  14
ATOM     14  O   UNL     1      -1.218  -2.877  -0.677  0.00  0.00    -0.386 OA
ATOM     15  H   UNL     1      -1.301  -3.762  -1.057  0.00  0.00    +0.210 HD
ENDBRANCH   5  14
BRANCH   9  16
ATOM     16  C   UNL     1      -0.675  -0.047   3.087  0.00  0.00    +0.259 C 
BRANCH  16  17
ATOM     17  O   UNL     1       0.453   0.234   3.918  0.00  0.00    -0.250 OA
BRANCH  17  18
ATOM     18  S   UNL     1       0.176   1.253   5.014  0.00  0.00    +0.022 S 
ATOM     19  O   UNL     1       1.431   1.568   5.602  0.00  0.00    -0.170 OA
ATOM     20  O   UNL     1      -0.668   2.243   4.443  0.00  0.00    -0.170 OA
BRANCH  18  21
ATOM     21  N   UNL     1      -0.715   0.486   6.181  0.00  0.00    +0.475 NA
ATOM     22  H   UNL     1      -0.996   0.971   6.973  0.00  0.00    -0.125 HD
ENDBRANCH  18  21
ENDBRANCH  17  18
ENDBRANCH  16  17
ENDBRANCH   9  16
TORSDOF 6
