REMARK  Name = ZINC37928232
REMARK  5 active torsions:
REMARK  status: ('A' for Active; 'I' for Inactive)
REMARK    1  A    between atoms: C_2  and  N_20
REMARK    2  A    between atoms: C_5  and  S_8
REMARK    3  A    between atoms: S_8  and  N_11
REMARK    4  A    between atoms: N_11  and  C_12
REMARK    5  A    between atoms: C_15  and  O_18
REMARK                            x       y       z     vdW  Elec       q    Type
REMARK                         _______ _______ _______ _____ _____    ______ ____
ROOT
ATOM      1  S   UNL     1       1.231  -2.443  -0.024  0.00  0.00    +0.064 S 
ATOM      2  O   UNL     1      -0.015  -2.861  -0.565  0.00  0.00    -0.153 OA
ATOM      3  O   UNL     1       2.476  -2.831  -0.589  0.00  0.00    -0.153 OA
ENDROOT
BRANCH   1   8
ATOM      4  C   UNL     1      -0.017   1.379   0.010  0.00  0.00    +0.063 A 
ATOM      5  C   UNL     1       1.177   2.089   0.002  0.00  0.00    +0.030 A 
ATOM      6  C   UNL     1       2.387   1.408  -0.013  0.00  0.00    +0.063 A 
ATOM      7  C   UNL     1       2.401   0.025  -0.021  0.00  0.00    +0.154 A 
ATOM      8  C   UNL     1       1.210  -0.681  -0.014  0.00  0.00    +0.175 A 
ATOM      9  C   UNL     1       0.002  -0.004   0.002  0.00  0.00    +0.154 A 
ATOM     10  F   UNL     1      -1.159  -0.695   0.010  0.00  0.00    -0.203 F 
ATOM     11  F   UNL     1       3.579  -0.638  -0.035  0.00  0.00    -0.203 F 
BRANCH   5  12
ATOM     12  N   UNL     1       1.161   3.485   0.009  0.00  0.00    -0.358 N 
ATOM     13  H   UNL     1       0.315   3.960   0.019  0.00  0.00    +0.142 HD
ATOM     14  H   UNL     1       1.995   3.980   0.004  0.00  0.00    +0.142 HD
ENDBRANCH   5  12
ENDBRANCH   1   8
BRANCH   1  15
ATOM     15  N   UNL     1       1.252  -2.942   1.555  0.00  0.00    -0.187 NA
ATOM     16  H   UNL     1       2.022  -3.417   1.904  0.00  0.00    +0.148 HD
BRANCH  15  17
ATOM     17  C   UNL     1       0.106  -2.664   2.426  0.00  0.00    +0.077 C 
ATOM     18  C   UNL     1       0.362  -1.376   3.211  0.00  0.00    +0.023 C 
ATOM     19  C   UNL     1       1.623  -1.540   4.063  0.00  0.00    +0.033 C 
ATOM     20  C   UNL     1       1.431  -2.703   5.039  0.00  0.00    +0.115 C 
ATOM     21  C   UNL     1       1.175  -3.991   4.254  0.00  0.00    +0.033 C 
ATOM     22  C   UNL     1      -0.085  -3.827   3.402  0.00  0.00    +0.023 C 
BRANCH  20  23
ATOM     23  O   UNL     1       2.608  -2.856   5.834  0.00  0.00    -0.392 OA
ATOM     24  H   UNL     1       2.558  -3.576   6.477  0.00  0.00    +0.210 HD
ENDBRANCH  20  23
ENDBRANCH  15  17
ENDBRANCH   1  15
TORSDOF 5
