REMARK  Name = ZINC06858597
REMARK  6 active torsions:
REMARK  status: ('A' for Active; 'I' for Inactive)
REMARK    1  A    between atoms: C_1  and  C_2
REMARK    2  A    between atoms: C_5  and  S_8
REMARK    3  A    between atoms: S_8  and  N_11
REMARK    4  A    between atoms: N_11  and  C_12
REMARK    5  A    between atoms: C_15  and  N_18
REMARK    6  A    between atoms: N_21  and  C_22
REMARK                            x       y       z     vdW  Elec       q    Type
REMARK                         _______ _______ _______ _____ _____    ______ ____
ROOT
ATOM      1  C   UNL     1       1.772   2.558   0.070  0.00  0.00    +0.048 A 
ATOM      2  C   UNL     1       2.928   2.372   0.817  0.00  0.00    +0.026 A 
ATOM      3  C   UNL     1       4.022   3.189   0.612  0.00  0.00    +0.025 A 
ATOM      4  C   UNL     1       3.962   4.204  -0.334  0.00  0.00    +0.035 A 
ATOM      5  C   UNL     1       2.804   4.394  -1.077  0.00  0.00    +0.025 A 
ATOM      6  C   UNL     1       1.713   3.573  -0.875  0.00  0.00    +0.026 A 
ENDROOT
BRANCH   4   7
ATOM      7  N   UNL     1       5.071   5.038  -0.539  0.00  0.00    -0.269 N 
ATOM      8  C   UNL     1       4.889   6.326  -0.890  0.00  0.00    +0.308 C 
ATOM      9  O   UNL     1       3.767   6.792  -0.936  0.00  0.00    -0.252 OA
ATOM     10  N   UNL     1       5.952   7.099  -1.189  0.00  0.00    -0.269 N 
ATOM     11  H   UNL     1       6.088   4.640  -0.413  0.00  0.00    +0.156 HD
ATOM     12  H   UNL     1       6.958   6.657  -1.233  0.00  0.00    +0.156 HD
BRANCH  10  13
ATOM     13  C   UNL     1       5.775   8.464  -1.445  0.00  0.00    +0.035 A 
ATOM     14  C   UNL     1       6.595   9.112  -2.359  0.00  0.00    +0.025 A 
ATOM     15  C   UNL     1       6.415  10.457  -2.614  0.00  0.00    +0.022 A 
ATOM     16  C   UNL     1       5.426  11.162  -1.950  0.00  0.00    +0.041 A 
ATOM     17  C   UNL     1       4.611  10.520  -1.035  0.00  0.00    +0.022 A 
ATOM     18  C   UNL     1       4.783   9.173  -0.781  0.00  0.00    +0.025 A 
ATOM     19 CL   UNL     1       5.206  12.855  -2.268  0.00  0.00    -0.084 Cl
ENDBRANCH  10  13
ENDBRANCH   4   7
BRANCH   1  20
ATOM     20  N   UNL     1       0.666   1.726   0.275  0.00  0.00    -0.216 N 
ATOM     21  H   UNL     1      -0.342   2.160   0.352  0.00  0.00    +0.174 HD
BRANCH  20  22
ATOM     22  S   UNL     1       0.873   0.088   0.401  0.00  0.00    +0.072 S 
ATOM     23  O   UNL     1       1.881  -0.119   1.381  0.00  0.00    -0.150 OA
ATOM     24  O   UNL     1      -0.425  -0.478   0.511  0.00  0.00    -0.150 OA
BRANCH  22  29
ATOM     25  C   UNL     1       3.152  -1.831  -4.846  0.00  0.00    +0.044 C 
ATOM     26  C   UNL     1       2.583  -1.352  -3.536  0.00  0.00    -0.050 A 
ATOM     27  C   UNL     1       3.427  -1.062  -2.480  0.00  0.00    +0.005 A 
ATOM     28  C   UNL     1       2.905  -0.622  -1.278  0.00  0.00    +0.029 A 
ATOM     29  C   UNL     1       1.539  -0.472  -1.132  0.00  0.00    +0.109 A 
ATOM     30  C   UNL     1       0.694  -0.767  -2.186  0.00  0.00    +0.029 A 
ATOM     31  C   UNL     1       1.217  -1.202  -3.389  0.00  0.00    +0.005 A 
ENDBRANCH  22  29
ENDBRANCH  20  22
ENDBRANCH   1  20
TORSDOF 5
