REMARK  Name = ZINC15523730
REMARK  12 active torsions:
REMARK  status: ('A' for Active; 'I' for Inactive)
REMARK    1  A    between atoms: C_1  and  C_2
REMARK    2  A    between atoms: C_2  and  C_3
REMARK    3  A    between atoms: C_2  and  C_4
REMARK    4  A    between atoms: C_4  and  C_6
REMARK    5  A    between atoms: C_4  and  N_18
REMARK    6  A    between atoms: C_9  and  C_12
REMARK    7  A    between atoms: N_18  and  C_19
REMARK    8  A    between atoms: C_19  and  C_20
REMARK    9  A    between atoms: N_22  and  C_23
REMARK   10  A    between atoms: C_23  and  C_24
REMARK   11  A    between atoms: C_27  and  S_30
REMARK   12  A    between atoms: S_30  and  N_33
REMARK                            x       y       z     vdW  Elec       q    Type
REMARK                         _______ _______ _______ _____ _____    ______ ____
ROOT
ATOM      1  N   UNL     1      -2.057  -0.241  -1.302  0.00  0.00    -0.301 NA
ATOM      2  H   UNL     1      -1.305  -0.270  -1.974  0.00  0.00    +0.123 HD
ENDROOT
BRANCH   1   3
ATOM      3  C   UNL     1      -1.611  -0.728   0.010  0.00  0.00    +0.087 C 
BRANCH   3   4
ATOM      4  C   UNL     1      -1.665  -2.234   0.031  0.00  0.00    -0.030 A 
ATOM      5  C   UNL     1      -1.267  -2.956  -1.078  0.00  0.00    +0.005 A 
ATOM      6  C   UNL     1      -1.317  -4.337  -1.058  0.00  0.00    +0.004 A 
ATOM      7  C   UNL     1      -1.764  -4.997   0.071  0.00  0.00    -0.044 A 
ATOM      8  C   UNL     1      -2.160  -4.275   1.181  0.00  0.00    +0.004 A 
ATOM      9  C   UNL     1      -2.107  -2.894   1.163  0.00  0.00    +0.005 A 
BRANCH   7  10
ATOM     10  C   UNL     1      -1.819  -6.503   0.093  0.00  0.00    +0.019 C 
ATOM     11  C   UNL     1      -3.260  -6.957   0.334  0.00  0.00    +0.008 C 
ATOM     12  C   UNL     1      -3.316  -8.486   0.355  0.00  0.00    +0.001 C 
ATOM     13  C   UNL     1      -2.420  -9.013   1.478  0.00  0.00    +0.000 C 
ATOM     14  C   UNL     1      -0.979  -8.559   1.237  0.00  0.00    +0.001 C 
ATOM     15  C   UNL     1      -0.923  -7.030   1.216  0.00  0.00    +0.008 C 
ENDBRANCH   7  10
ENDBRANCH   3   4
BRANCH   3  17
ATOM     16  C   UNL     1       0.246  -0.663   1.680  0.00  0.00    +0.009 C 
ATOM     17  C   UNL     1      -0.174  -0.266   0.264  0.00  0.00    +0.004 C 
ATOM     18  C   UNL     1       0.761  -0.927  -0.751  0.00  0.00    +0.009 C 
ENDBRANCH   3  17
ENDBRANCH   1   3
BRANCH   1  19
ATOM     19  C   UNL     1      -2.618   1.113  -1.198  0.00  0.00    +0.178 C 
BRANCH  19  20
ATOM     20  C   UNL     1      -3.183   1.526  -2.533  0.00  0.00    +0.227 C 
ATOM     21  O   UNL     1      -3.123   0.768  -3.478  0.00  0.00    -0.274 OA
ATOM     22  N   UNL     1      -3.753   2.739  -2.676  0.00  0.00    -0.310 N 
ATOM     23  H   UNL     1      -3.800   3.345  -1.921  0.00  0.00    +0.149 HD
BRANCH  22  24
ATOM     24  C   UNL     1      -4.302   3.141  -3.974  0.00  0.00    +0.139 C 
BRANCH  24  25
ATOM     25  C   UNL     1      -4.877   4.530  -3.867  0.00  0.00    -0.030 A 
ATOM     26  C   UNL     1      -6.201   4.704  -3.507  0.00  0.00    +0.007 A 
ATOM     27  C   UNL     1      -6.728   5.978  -3.409  0.00  0.00    +0.029 A 
ATOM     28  C   UNL     1      -5.933   7.078  -3.670  0.00  0.00    +0.105 A 
ATOM     29  C   UNL     1      -4.609   6.904  -4.029  0.00  0.00    +0.029 A 
ATOM     30  C   UNL     1      -4.080   5.630  -4.123  0.00  0.00    +0.007 A 
BRANCH  28  31
ATOM     31  S   UNL     1      -6.606   8.701  -3.547  0.00  0.00    +0.056 S 
ATOM     32  O   UNL     1      -5.805   9.537  -4.371  0.00  0.00    -0.153 OA
ATOM     33  O   UNL     1      -8.010   8.574  -3.727  0.00  0.00    -0.153 OA
BRANCH  31  34
ATOM     34  N   UNL     1      -6.373   9.211  -1.988  0.00  0.00    -0.204 NA
ATOM     35  H   UNL     1      -6.255  10.155  -1.799  0.00  0.00    +0.144 HD
ATOM     36  H   UNL     1      -6.354   8.565  -1.265  0.00  0.00    +0.144 HD
ENDBRANCH  31  34
ENDBRANCH  28  31
ENDBRANCH  24  25
ENDBRANCH  22  24
ENDBRANCH  19  20
ENDBRANCH   1  19
TORSDOF 10
