REMARK  Name = ZINC47584904
REMARK  9 active torsions:
REMARK  status: ('A' for Active; 'I' for Inactive)
REMARK    1  A    between atoms: C_1  and  O_2
REMARK    2  A    between atoms: O_2  and  C_3
REMARK    3  A    between atoms: N_5  and  C_6
REMARK    4  A    between atoms: C_9  and  N_12
REMARK    5  A    between atoms: N_15  and  C_16
REMARK    6  A    between atoms: N_15  and  C_24
REMARK    7  A    between atoms: C_16  and  C_17
REMARK    8  A    between atoms: C_22  and  O_23
REMARK    9  A    between atoms: C_24  and  C_25
REMARK                            x       y       z     vdW  Elec       q    Type
REMARK                         _______ _______ _______ _____ _____    ______ ____
ROOT
ATOM      1  N   UNL     1       3.317  -4.796   5.087  0.00  0.00    -0.269 N 
ATOM      2  C   UNL     1       3.481  -6.129   4.971  0.00  0.00    +0.307 C 
ATOM      3  O   UNL     1       2.974  -6.725   4.041  0.00  0.00    -0.252 OA
ATOM      4  N   UNL     1       4.207  -6.800   5.887  0.00  0.00    -0.274 N 
ATOM      5  H   UNL     1       3.663  -4.330   5.864  0.00  0.00    +0.156 HD
ENDROOT
BRANCH   1   9
ATOM      6  C   UNL     1       1.322  -2.675   2.101  0.00  0.00    +0.037 A 
ATOM      7  C   UNL     1       2.387  -2.091   2.773  0.00  0.00    +0.025 A 
ATOM      8  C   UNL     1       3.047  -2.793   3.762  0.00  0.00    +0.025 A 
ATOM      9  C   UNL     1       2.646  -4.083   4.083  0.00  0.00    +0.035 A 
ATOM     10  C   UNL     1       1.581  -4.667   3.411  0.00  0.00    +0.025 A 
ATOM     11  C   UNL     1       0.917  -3.963   2.426  0.00  0.00    +0.025 A 
BRANCH   6  14
ATOM     12  C   UNL     1       1.336  -1.126   0.293  0.00  0.00    +0.404 C 
ATOM     13  O   UNL     1       2.518  -0.925   0.490  0.00  0.00    -0.226 OA
ATOM     14  N   UNL     1       0.651  -1.963   1.098  0.00  0.00    -0.251 N 
ATOM     15  H   UNL     1      -0.306  -2.072   0.982  0.00  0.00    +0.158 HD
BRANCH  12  17
ATOM     16  C   UNL     1       1.497   0.361  -1.541  0.00  0.00    +0.282 C 
ATOM     17  O   UNL     1       0.710  -0.512  -0.729  0.00  0.00    -0.453 OA
ENDBRANCH  12  17
ENDBRANCH   6  14
ENDBRANCH   1   9
BRANCH   4  18
ATOM     18  C   UNL     1       4.385  -8.248   5.762  0.00  0.00    +0.148 C 
BRANCH  18  19
ATOM     19  C   UNL     1       5.619  -8.534   4.945  0.00  0.00    +0.011 A 
ATOM     20  C   UNL     1       5.502  -8.859   3.607  0.00  0.00    +0.009 A 
ATOM     21  C   UNL     1       6.633  -9.121   2.857  0.00  0.00    +0.001 A 
ATOM     22  C   UNL     1       7.884  -9.059   3.443  0.00  0.00    +0.004 A 
ATOM     23  C   UNL     1       8.006  -8.735   4.780  0.00  0.00    +0.046 A 
ATOM     24  C   UNL     1       6.873  -8.466   5.534  0.00  0.00    +0.122 A 
BRANCH  24  25
ATOM     25  O   UNL     1       6.991  -8.141   6.848  0.00  0.00    -0.506 OA
ATOM     26  H   UNL     1       6.970  -8.902   7.445  0.00  0.00    +0.292 HD
ENDBRANCH  24  25
ENDBRANCH  18  19
ENDBRANCH   4  18
BRANCH   4  27
ATOM     27  C   UNL     1       4.817  -6.081   7.008  0.00  0.00    +0.183 C 
BRANCH  27  28
ATOM     28  C   UNL     1       3.854  -6.045   8.167  0.00  0.00    +0.122 A 
ATOM     29  C   UNL     1       3.771  -6.961   9.149  0.00  0.00    +0.046 A 
ATOM     30  C   UNL     1       2.740  -6.536  10.018  0.00  0.00    +0.041 A 
ATOM     31  C   UNL     1       2.255  -5.387   9.515  0.00  0.00    +0.195 A 
ATOM     32  O   UNL     1       2.938  -5.091   8.397  0.00  0.00    -0.466 OA
ENDBRANCH  27  28
ENDBRANCH   4  27
TORSDOF 8
