REMARK  Name = ZINC04676579
REMARK  7 active torsions:
REMARK  status: ('A' for Active; 'I' for Inactive)
REMARK    1  A    between atoms: C_1  and  C_2
REMARK    2  A    between atoms: C_2  and  C_20
REMARK    3  A    between atoms: N_3  and  N_4
REMARK    4  A    between atoms: C_5  and  C_7
REMARK    5  A    between atoms: C_7  and  O_8
REMARK    6  A    between atoms: O_8  and  C_9
REMARK    7  A    between atoms: C_24  and  N_26
REMARK                            x       y       z     vdW  Elec       q    Type
REMARK                         _______ _______ _______ _____ _____    ______ ____
ROOT
ATOM      1  N   UNL     1      -1.206   7.364   0.053  0.00  0.00    -0.204 N 
ATOM      2  C   UNL     1      -2.379   8.026   0.068  0.00  0.00    +0.270 C 
ATOM      3  O   UNL     1      -3.424   7.410   0.073  0.00  0.00    -0.270 OA
ATOM      4  H   UNL     1      -0.370   7.857   0.049  0.00  0.00    +0.177 HD
ENDROOT
BRANCH   1   7
ATOM      5  C   UNL     1       1.235   6.091   0.024  0.00  0.00    +0.068 C 
ATOM      6  C   UNL     1      -0.063   5.325   0.031  0.00  0.00    +0.063 C 
ATOM      7  N   UNL     1      -1.192   5.963   0.045  0.00  0.00    -0.184 NA
BRANCH   6   8
ATOM      8  C   UNL     1      -0.049   3.850   0.023  0.00  0.00    -0.001 A 
ATOM      9  C   UNL     1       1.167   3.160   0.008  0.00  0.00    +0.010 A 
ATOM     10  C   UNL     1       1.177   1.781   0.000  0.00  0.00    +0.002 A 
ATOM     11  C   UNL     1      -0.013   1.076   0.008  0.00  0.00    +0.023 A 
ATOM     12  C   UNL     1      -1.227   1.752   0.017  0.00  0.00    +0.025 A 
ATOM     13  C   UNL     1      -1.249   3.138   0.030  0.00  0.00    +0.032 A 
BRANCH  12  14
ATOM     14  N   UNL     1      -2.426   1.034   0.019  0.00  0.00    -0.358 N 
ATOM     15  H   UNL     1      -2.411   0.065   0.014  0.00  0.00    +0.142 HD
ATOM     16  H   UNL     1      -3.273   1.506   0.026  0.00  0.00    +0.142 HD
ENDBRANCH  12  14
ENDBRANCH   6   8
ENDBRANCH   1   7
BRANCH   2  17
ATOM     17  C   UNL     1      -2.394   9.533   0.076  0.00  0.00    +0.326 C 
BRANCH  17  18
ATOM     18  O   UNL     1      -3.745   9.997   0.091  0.00  0.00    -0.482 OA
BRANCH  18  19
ATOM     19  C   UNL     1      -3.936  11.342   0.100  0.00  0.00    +0.136 A 
ATOM     20  C   UNL     1      -2.829  12.196   0.095  0.00  0.00    +0.047 A 
ATOM     21  C   UNL     1      -2.988  13.547   0.104  0.00  0.00    +0.012 A 
ATOM     22  C   UNL     1      -4.282  14.097   0.119  0.00  0.00    -0.017 A 
ATOM     23  C   UNL     1      -4.482  15.488   0.128  0.00  0.00    +0.008 A 
ATOM     24  C   UNL     1      -5.748  15.987   0.141  0.00  0.00    +0.001 A 
ATOM     25  C   UNL     1      -6.854  15.138   0.146  0.00  0.00    +0.001 A 
ATOM     26  C   UNL     1      -6.699  13.786   0.137  0.00  0.00    +0.010 A 
ATOM     27  C   UNL     1      -5.406  13.234   0.123  0.00  0.00    -0.000 A 
ATOM     28  C   UNL     1      -5.208  11.843   0.109  0.00  0.00    +0.067 A 
ATOM     29 BR   UNL     1      -6.692  10.671   0.108  0.00  0.00    -0.046 Br
ENDBRANCH  18  19
ENDBRANCH  17  18
ENDBRANCH   2  17
TORSDOF 6
