REMARK  Name = ZINC28535649
REMARK  5 active torsions:
REMARK  status: ('A' for Active; 'I' for Inactive)
REMARK    1  A    between atoms: C_3  and  N_9
REMARK    2  A    between atoms: N_13  and  N_26
REMARK    3  A    between atoms: C_14  and  S_17
REMARK    4  A    between atoms: S_17  and  C_18
REMARK    5  A    between atoms: C_18  and  C_19
REMARK                            x       y       z     vdW  Elec       q    Type
REMARK                         _______ _______ _______ _____ _____    ______ ____
ROOT
ATOM      1  N   UNL     1       3.634  -0.434  -0.036  0.00  0.00    -0.292 N 
ATOM      2  C   UNL     1       2.404   0.159   0.251  0.00  0.00    +0.212 A 
ATOM      3  C   UNL     1       1.261  -0.645   0.504  0.00  0.00    +0.312 A 
ATOM      4  O   UNL     1       1.331  -1.862   0.478  0.00  0.00    -0.262 OA
ATOM      5  N   UNL     1       0.092  -0.020   0.777  0.00  0.00    -0.205 N 
ATOM      6  C   UNL     1       0.071   1.345   0.794  0.00  0.00    +0.210 A 
ATOM      7  N   UNL     1       1.167   2.036   0.550  0.00  0.00    -0.121 NA
ATOM      8  N   UNL     1       2.290   1.469   0.289  0.00  0.00    -0.126 NA
ATOM      9  H   UNL     1       3.701  -1.524  -0.173  0.00  0.00    +0.154 HD
ENDROOT
BRANCH   1  12
ATOM     10  C   UNL     1       5.960   2.387   0.338  0.00  0.00    +0.003 A 
ATOM     11  C   UNL     1       4.825   1.608   0.450  0.00  0.00    +0.025 A 
ATOM     12  C   UNL     1       4.782   0.356  -0.148  0.00  0.00    +0.053 A 
ATOM     13  C   UNL     1       5.884  -0.113  -0.854  0.00  0.00    +0.080 A 
ATOM     14  C   UNL     1       7.015   0.674  -0.967  0.00  0.00    +0.061 A 
ATOM     15  C   UNL     1       7.053   1.922  -0.370  0.00  0.00    +0.021 A 
ATOM     16 CL   UNL     1       8.390   0.094  -1.853  0.00  0.00    -0.082 Cl
ATOM     17 CL   UNL     1       5.838  -1.681  -1.597  0.00  0.00    -0.080 Cl
ENDBRANCH   1  12
BRANCH   5  18
ATOM     18  N   UNL     1      -1.042  -0.739   1.029  0.00  0.00    -0.293 N 
ATOM     19  H   UNL     1      -1.986  -0.218   1.249  0.00  0.00    +0.163 HD
ATOM     20  H   UNL     1      -1.011  -1.838   1.011  0.00  0.00    +0.163 HD
ENDBRANCH   5  18
BRANCH   6  21
ATOM     21  S   UNL     1      -1.436   2.191   1.138  0.00  0.00    -0.080 S 
BRANCH  21  22
ATOM     22  C   UNL     1      -0.867   3.905   1.026  0.00  0.00    +0.112 C 
BRANCH  22  23
ATOM     23  C   UNL     1      -2.022   4.837   1.292  0.00  0.00    -0.037 A 
ATOM     24  C   UNL     1      -2.808   5.278   0.245  0.00  0.00    +0.006 A 
ATOM     25  C   UNL     1      -3.871   6.128   0.489  0.00  0.00    +0.020 A 
ATOM     26  C   UNL     1      -4.141   6.545   1.780  0.00  0.00    +0.041 A 
ATOM     27  C   UNL     1      -3.349   6.107   2.827  0.00  0.00    +0.020 A 
ATOM     28  C   UNL     1      -2.291   5.253   2.583  0.00  0.00    +0.006 A 
ATOM     29 CL   UNL     1      -5.471   7.617   2.087  0.00  0.00    -0.084 Cl
ENDBRANCH  22  23
ENDBRANCH  21  22
ENDBRANCH   6  21
TORSDOF 5
