REMARK  Name = ZINC22078797
REMARK  5 active torsions:
REMARK  status: ('A' for Active; 'I' for Inactive)
REMARK    1  A    between atoms: C_1  and  C_2
REMARK    2  A    between atoms: C_2  and  C_23
REMARK    3  A    between atoms: C_7  and  C_10
REMARK    4  A    between atoms: C_13  and  O_17
REMARK    5  A    between atoms: C_15  and  O_16
REMARK                            x       y       z     vdW  Elec       q    Type
REMARK                         _______ _______ _______ _____ _____    ______ ____
ROOT
ATOM      1  C   UNL     1      -0.019   1.526   0.010  0.00  0.00    +0.040 C 
ATOM      2  C   UNL     1       0.002  -0.004   0.002  0.00  0.00    +0.131 C 
ATOM      3  C   UNL     1      -1.433  -0.562   0.095  0.00  0.00    +0.120 C 
ATOM      4  C   UNL     1      -1.313  -1.824   0.991  0.00  0.00    +0.111 C 
ATOM      5  C   UNL     1       0.186  -1.919   1.341  0.00  0.00    +0.101 C 
ATOM      6  N   UNL     1       0.686  -0.519   1.216  0.00  0.00    -0.293 NA
ATOM      7  C   UNL     1      -2.105  -1.453   2.225  0.00  0.00    +0.225 C 
ATOM      8  O   UNL     1      -2.270  -2.166   3.192  0.00  0.00    -0.275 OA
ATOM      9  N   UNL     1      -2.595  -0.216   2.083  0.00  0.00    -0.256 N 
ATOM     10  C   UNL     1      -2.283   0.386   0.912  0.00  0.00    +0.225 C 
ATOM     11  O   UNL     1      -2.622   1.498   0.567  0.00  0.00    -0.275 OA
ATOM     12  H   UNL     1       1.688  -0.506   1.099  0.00  0.00    +0.124 HD
ATOM     13  H   UNL     1      -3.135   0.215   2.764  0.00  0.00    +0.157 HD
ENDROOT
BRANCH   5  14
ATOM     14  C   UNL     1       0.364  -2.401   2.758  0.00  0.00    +0.012 A 
ATOM     15  C   UNL     1       0.525  -1.488   3.783  0.00  0.00    +0.012 A 
ATOM     16  C   UNL     1       0.689  -1.927   5.083  0.00  0.00    +0.046 A 
ATOM     17  C   UNL     1       0.692  -3.287   5.362  0.00  0.00    +0.120 A 
ATOM     18  C   UNL     1       0.531  -4.205   4.335  0.00  0.00    +0.091 A 
ATOM     19  C   UNL     1       0.361  -3.761   3.033  0.00  0.00    +0.125 A 
BRANCH  19  20
ATOM     20  O   UNL     1       0.197  -4.658   2.025  0.00  0.00    -0.506 OA
ATOM     21  H   UNL     1       1.025  -4.944   1.614  0.00  0.00    +0.292 HD
ENDBRANCH  19  20
BRANCH  17  22
ATOM     22  O   UNL     1       0.854  -3.718   6.640  0.00  0.00    -0.507 OA
ATOM     23  H   UNL     1       0.025  -3.821   7.128  0.00  0.00    +0.292 HD
ENDBRANCH  17  22
ENDBRANCH   5  14
BRANCH   2  24
ATOM     24  C   UNL     1       0.686  -0.512  -1.241  0.00  0.00    +0.376 C 
ATOM     25  O   UNL     1       1.691  -1.195  -1.148  0.00  0.00    -0.244 OA
ATOM     26  O   UNL     1       0.234  -0.240  -2.340  0.00  0.00    -0.244 OA
ENDBRANCH   2  24
TORSDOF 4
