REMARK  Name = ZINC14270167
REMARK  9 active torsions:
REMARK  status: ('A' for Active; 'I' for Inactive)
REMARK    1  A    between atoms: C_1  and  C_2
REMARK    2  A    between atoms: C_5  and  C_9
REMARK    3  A    between atoms: N_11  and  C_12
REMARK    4  A    between atoms: C_12  and  N_14
REMARK    5  A    between atoms: N_14  and  C_15
REMARK    6  A    between atoms: C_18  and  C_22
REMARK    7  A    between atoms: C_19  and  O_21
REMARK    8  A    between atoms: C_26  and  C_32
REMARK    9  A    between atoms: C_28  and  C_31
REMARK                            x       y       z     vdW  Elec       q    Type
REMARK                         _______ _______ _______ _____ _____    ______ ____
ROOT
ATOM      1  C   UNL     1       1.176   1.778   0.007  0.00  0.00    +0.036 A 
ATOM      2  C   UNL     1       1.143   3.143   0.281  0.00  0.00    +0.024 A 
ATOM      3  C   UNL     1      -0.058   3.815   0.304  0.00  0.00    +0.018 A 
ATOM      4  C   UNL     1      -1.248   3.128   0.052  0.00  0.00    +0.078 A 
ATOM      5  C   UNL     1      -1.213   1.755  -0.230  0.00  0.00    +0.131 A 
ATOM      6  C   UNL     1      -0.002   1.087  -0.245  0.00  0.00    +0.069 A 
ENDROOT
BRANCH   4   7
ATOM      7  C   UNL     1      -2.536   3.847   0.075  0.00  0.00    +0.232 A 
ATOM      8  N   UNL     1      -3.706   3.299  -0.146  0.00  0.00    -0.209 NA
ATOM      9  C   UNL     1      -4.662   4.258  -0.043  0.00  0.00    +0.110 A 
ATOM     10  C   UNL     1      -6.053   4.250  -0.176  0.00  0.00    +0.035 A 
ATOM     11  C   UNL     1      -6.762   5.419  -0.006  0.00  0.00    -0.048 A 
ATOM     12  C   UNL     1      -6.103   6.602   0.296  0.00  0.00    +0.010 A 
ATOM     13  C   UNL     1      -4.730   6.624   0.430  0.00  0.00    -0.006 A 
ATOM     14  C   UNL     1      -4.000   5.458   0.263  0.00  0.00    +0.159 A 
ATOM     15  O   UNL     1      -2.683   5.160   0.334  0.00  0.00    -0.435 OA
ATOM     16  C   UNL     1      -4.025   7.915   0.759  0.00  0.00    +0.047 C 
ATOM     17  C   UNL     1      -8.262   5.412  -0.149  0.00  0.00    +0.044 C 
ENDBRANCH   4   7
BRANCH   1  18
ATOM     18  N   UNL     1       2.397   1.102  -0.014  0.00  0.00    -0.296 N 
ATOM     19  H   UNL     1       3.066   1.287   0.664  0.00  0.00    +0.154 HD
BRANCH  18  20
ATOM     20  C   UNL     1       2.647   0.193  -0.978  0.00  0.00    +0.141 C 
ATOM     21  S   UNL     1       1.530  -0.031  -2.255  0.00  0.00    -0.018 S 
BRANCH  20  24
ATOM     22  C   UNL     1       4.029  -1.448  -1.898  0.00  0.00    +0.251 C 
ATOM     23  O   UNL     1       3.235  -1.607  -2.805  0.00  0.00    -0.270 OA
ATOM     24  N   UNL     1       3.778  -0.539  -0.935  0.00  0.00    -0.264 N 
ATOM     25  H   UNL     1       4.412  -0.412  -0.212  0.00  0.00    +0.157 HD
BRANCH  22  30
ATOM     26  C   UNL     1       8.855  -4.575  -1.716  0.00  0.00    +0.044 C 
ATOM     27  C   UNL     1       7.591  -3.757  -1.765  0.00  0.00    -0.049 A 
ATOM     28  C   UNL     1       7.336  -2.823  -0.775  0.00  0.00    +0.004 A 
ATOM     29  C   UNL     1       6.182  -2.071  -0.812  0.00  0.00    +0.015 A 
ATOM     30  C   UNL     1       5.267  -2.251  -1.852  0.00  0.00    +0.055 A 
ATOM     31  C   UNL     1       5.528  -3.198  -2.846  0.00  0.00    +0.053 A 
ATOM     32  C   UNL     1       6.691  -3.942  -2.798  0.00  0.00    +0.024 A 
ATOM     33 CL   UNL     1       4.395  -3.436  -4.140  0.00  0.00    -0.083 Cl
ENDBRANCH  22  30
ENDBRANCH  20  24
ENDBRANCH  18  20
ENDBRANCH   1  18
BRANCH   5  34
ATOM     34  O   UNL     1      -2.365   1.083  -0.481  0.00  0.00    -0.506 OA
ATOM     35  H   UNL     1      -2.785   0.712   0.308  0.00  0.00    +0.292 HD
ENDBRANCH   5  34
TORSDOF 6
