REMARK  Name = ZINC18580965
REMARK  11 active torsions:
REMARK  status: ('A' for Active; 'I' for Inactive)
REMARK    1  A    between atoms: C_1  and  C_2
REMARK    2  A    between atoms: C_2  and  C_3
REMARK    3  A    between atoms: C_3  and  C_4
REMARK    4  A    between atoms: C_3  and  C_5
REMARK    5  A    between atoms: C_5  and  C_6
REMARK    6  A    between atoms: C_7  and  C_34
REMARK    7  A    between atoms: C_14  and  S_16
REMARK    8  A    between atoms: S_16  and  C_17
REMARK    9  A    between atoms: C_17  and  C_18
REMARK   10  A    between atoms: C_17  and  C_19
REMARK   11  A    between atoms: N_21  and  C_22
REMARK                            x       y       z     vdW  Elec       q    Type
REMARK                         _______ _______ _______ _____ _____    ______ ____
ROOT
ATOM      1  S   UNL     1       7.710  -2.756  -2.538  0.00  0.00    -0.075 S 
ENDROOT
BRANCH   1  10
ATOM      2  C   UNL     1       1.758  -2.185  -2.579  0.00  0.00    -0.023 A 
ATOM      3  C   UNL     1       1.203  -2.336  -3.792  0.00  0.00    -0.007 A 
ATOM      4  S   UNL     1       2.604  -2.658  -4.846  0.00  0.00    -0.075 S 
ATOM      5  C   UNL     1       3.887  -2.579  -3.626  0.00  0.00    +0.092 A 
ATOM      6  C   UNL     1       3.199  -2.301  -2.441  0.00  0.00    +0.075 A 
ATOM      7  C   UNL     1       4.045  -2.173  -1.232  0.00  0.00    +0.282 A 
ATOM      8  O   UNL     1       3.539  -1.936  -0.146  0.00  0.00    -0.265 OA
ATOM      9  N   UNL     1       5.369  -2.321  -1.340  0.00  0.00    -0.185 NA
ATOM     10  C   UNL     1       5.958  -2.577  -2.489  0.00  0.00    +0.171 A 
ATOM     11  N   UNL     1       5.241  -2.719  -3.640  0.00  0.00    -0.328 N 
ATOM     12  C   UNL     1      -0.254  -2.253  -4.170  0.00  0.00    +0.052 C 
ATOM     13  H   UNL     1       5.699  -2.908  -4.474  0.00  0.00    +0.168 HD
BRANCH   2  14
ATOM     14  C   UNL     1       0.898  -1.893  -1.377  0.00  0.00    +0.040 C 
BRANCH  14  15
ATOM     15  C   UNL     1       0.744  -0.379  -1.216  0.00  0.00    -0.010 C 
ATOM     16  C   UNL     1      -0.025   0.186  -2.412  0.00  0.00    +0.008 C 
BRANCH  15  18
ATOM     17  C   UNL     1      -0.069   1.434   0.299  0.00  0.00    +0.004 C 
ATOM     18  C   UNL     1      -0.024  -0.079   0.073  0.00  0.00    +0.000 C 
ENDBRANCH  15  18
ENDBRANCH  14  15
ENDBRANCH   2  14
ENDBRANCH   1  10
BRANCH   1  19
ATOM     19  C   UNL     1       8.225  -2.506  -0.816  0.00  0.00    +0.137 C 
ATOM     20  C   UNL     1       7.912  -1.069  -0.394  0.00  0.00    +0.029 C 
BRANCH  19  21
ATOM     21  C   UNL     1       9.706  -2.754  -0.694  0.00  0.00    +0.230 C 
ATOM     22  O   UNL     1      10.426  -2.620  -1.661  0.00  0.00    -0.274 OA
ATOM     23  N   UNL     1      10.232  -3.125   0.491  0.00  0.00    -0.285 N 
ATOM     24  H   UNL     1       9.671  -3.159   1.281  0.00  0.00    +0.155 HD
BRANCH  23  25
ATOM     25  C   UNL     1      11.588  -3.463   0.580  0.00  0.00    +0.035 A 
ATOM     26  C   UNL     1      12.298  -3.183   1.743  0.00  0.00    +0.025 A 
ATOM     27  C   UNL     1      13.635  -3.514   1.837  0.00  0.00    +0.029 A 
ATOM     28  C   UNL     1      14.273  -4.127   0.769  0.00  0.00    +0.067 A 
ATOM     29  C   UNL     1      13.563  -4.409  -0.399  0.00  0.00    +0.069 A 
ATOM     30  C   UNL     1      12.220  -4.082  -0.489  0.00  0.00    +0.051 A 
ATOM     31  N   UNL     1      14.458  -5.016  -1.277  0.00  0.00    -0.306 N 
ATOM     32  H   UNL     1      14.252  -5.326  -2.173  0.00  0.00    +0.170 HD
ATOM     33  C   UNL     1      15.658  -5.100  -0.671  0.00  0.00    +0.325 A 
ATOM     34  O   UNL     1      16.661  -5.580  -1.166  0.00  0.00    -0.247 OA
ATOM     35  N   UNL     1      15.579  -4.572   0.565  0.00  0.00    -0.306 N 
ATOM     36  H   UNL     1      16.306  -4.511   1.203  0.00  0.00    +0.170 HD
ENDBRANCH  23  25
ENDBRANCH  19  21
ENDBRANCH   1  19
TORSDOF 7
