REMARK  Name = ZINC08636363
REMARK  7 active torsions:
REMARK  status: ('A' for Active; 'I' for Inactive)
REMARK    1  A    between atoms: C_1  and  O_2
REMARK    2  A    between atoms: O_2  and  C_3
REMARK    3  A    between atoms: C_6  and  N_9
REMARK    4  A    between atoms: C_12  and  C_26
REMARK    5  A    between atoms: C_15  and  O_25
REMARK    6  A    between atoms: C_17  and  O_24
REMARK    7  A    between atoms: N_28  and  C_29
REMARK                            x       y       z     vdW  Elec       q    Type
REMARK                         _______ _______ _______ _____ _____    ______ ____
ROOT
ATOM      1  N   UNL     1       0.987  -1.454   1.289  0.00  0.00    -0.277 N 
ATOM      2  C   UNL     1       1.609  -0.597   0.280  0.00  0.00    +0.115 C 
ATOM      3  C   UNL     1       2.716   0.259   0.784  0.00  0.00    +0.100 C 
ATOM      4  C   UNL     1       2.336   1.677   1.142  0.00  0.00    +0.048 C 
ATOM      5  C   UNL     1       1.460   2.311   0.089  0.00  0.00    +0.146 C 
ATOM      6  C   UNL     1       0.222   1.502  -0.202  0.00  0.00    +0.165 C 
ATOM      7  C   UNL     1       0.462   0.036  -0.475  0.00  0.00    +0.124 C 
ATOM      8  N   UNL     1      -0.719  -0.719   0.009  0.00  0.00    -0.319 N 
ATOM      9  C   UNL     1      -0.333  -1.499   1.038  0.00  0.00    +0.138 C 
ATOM     10  S   UNL     1      -1.424  -2.463   1.939  0.00  0.00    -0.018 S 
ATOM     11  H   UNL     1      -1.616  -0.659  -0.355  0.00  0.00    +0.148 HD
ENDROOT
BRANCH   1  15
ATOM     12  C   UNL     1       2.960  -3.409   4.398  0.00  0.00    +0.120 A 
ATOM     13  C   UNL     1       1.994  -2.455   4.682  0.00  0.00    +0.047 A 
ATOM     14  C   UNL     1       1.340  -1.807   3.652  0.00  0.00    +0.027 A 
ATOM     15  C   UNL     1       1.650  -2.111   2.333  0.00  0.00    +0.036 A 
ATOM     16  C   UNL     1       2.613  -3.070   2.050  0.00  0.00    +0.027 A 
ATOM     17  C   UNL     1       3.271  -3.712   3.081  0.00  0.00    +0.047 A 
BRANCH  12  19
ATOM     18  C   UNL     1       4.587  -5.017   5.048  0.00  0.00    +0.277 C 
ATOM     19  O   UNL     1       3.603  -4.047   5.412  0.00  0.00    -0.495 OA
ENDBRANCH  12  19
ENDBRANCH   1  15
BRANCH   3  20
ATOM     20  C   UNL     1       3.296  -0.395   2.012  0.00  0.00    +0.218 C 
ATOM     21  O   UNL     1       2.749  -0.259   3.086  0.00  0.00    -0.275 OA
ATOM     22  N   UNL     1       4.421  -1.129   1.917  0.00  0.00    -0.312 N 
ATOM     23  H   UNL     1       4.835  -1.273   1.051  0.00  0.00    +0.149 HD
BRANCH  22  24
ATOM     24  C   UNL     1       5.021  -1.710   3.120  0.00  0.00    +0.073 C 
ATOM     25  C   UNL     1       5.821  -0.635   3.884  0.00  0.00    +0.022 C 
ATOM     26  C   UNL     1       7.055  -1.395   4.430  0.00  0.00    +0.002 C 
ATOM     27  C   UNL     1       7.399  -2.365   3.272  0.00  0.00    +0.002 C 
ATOM     28  C   UNL     1       6.024  -2.810   2.731  0.00  0.00    +0.022 C 
ENDBRANCH  22  24
ENDBRANCH   3  20
BRANCH   6  29
ATOM     29  O   UNL     1      -0.661   1.613   0.916  0.00  0.00    -0.387 OA
ATOM     30  H   UNL     1      -0.871   2.524   1.163  0.00  0.00    +0.210 HD
ENDBRANCH   6  29
BRANCH   5  31
ATOM     31  O   UNL     1       2.221   2.441  -1.114  0.00  0.00    -0.389 OA
ATOM     32  H   UNL     1       3.036   2.950  -1.010  0.00  0.00    +0.210 HD
ENDBRANCH   5  31
TORSDOF 6
