REMARK  Name = ZINC04062213
REMARK  7 active torsions:
REMARK  status: ('A' for Active; 'I' for Inactive)
REMARK    1  A    between atoms: C_1  and  C_2
REMARK    2  A    between atoms: C_10  and  O_31
REMARK    3  A    between atoms: N_14  and  O_15
REMARK    4  A    between atoms: O_15  and  C_16
REMARK    5  A    between atoms: C_16  and  C_17
REMARK    6  A    between atoms: C_25  and  O_30
REMARK    7  A    between atoms: C_27  and  O_29
REMARK                            x       y       z     vdW  Elec       q    Type
REMARK                         _______ _______ _______ _____ _____    ______ ____
ROOT
ATOM      1  C   UNL     1       2.108   1.537   1.364  0.00  0.00    +0.014 C 
ATOM      2  C   UNL     1       1.499   1.861  -0.002  0.00  0.00    -0.000 C 
ATOM      3  C   UNL     1       1.695   3.332  -0.305  0.00  0.00    +0.010 C 
ATOM      4  C   UNL     1       1.097   4.128   0.869  0.00  0.00    +0.009 C 
ATOM      5  C   UNL     1      -0.370   3.777   1.078  0.00  0.00    +0.023 C 
ATOM      6  C   UNL     1      -0.948   4.543   2.233  0.00  0.00    -0.035 A 
ATOM      7  C   UNL     1      -0.449   5.799   2.532  0.00  0.00    +0.008 A 
ATOM      8  C   UNL     1      -0.969   6.525   3.585  0.00  0.00    +0.046 A 
ATOM      9  C   UNL     1      -1.999   6.005   4.357  0.00  0.00    +0.117 A 
ATOM     10  C   UNL     1      -2.506   4.748   4.071  0.00  0.00    +0.055 A 
ATOM     11  C   UNL     1      -1.978   4.012   3.010  0.00  0.00    +0.006 A 
ATOM     12  C   UNL     1      -2.509   2.660   2.720  0.00  0.00    +0.088 C 
ATOM     13  N   UNL     1      -3.323   2.074   3.536  0.00  0.00    -0.088 NA
ATOM     14  C   UNL     1      -2.068   1.986   1.437  0.00  0.00    +0.063 C 
ATOM     15  C   UNL     1      -0.572   2.269   1.266  0.00  0.00    +0.006 C 
ATOM     16  C   UNL     1      -0.029   1.583   0.028  0.00  0.00    +0.004 C 
ATOM     17  C   UNL     1      -0.063   0.051   0.044  0.00  0.00    +0.038 C 
ATOM     18  C   UNL     1       1.042  -0.333  -0.978  0.00  0.00    +0.144 C 
ATOM     19  C   UNL     1       2.015   0.872  -1.041  0.00  0.00    +0.149 C 
ENDROOT
BRANCH  19  20
ATOM     20  O   UNL     1       3.342   0.454  -0.712  0.00  0.00    -0.389 OA
ATOM     21  H   UNL     1       3.707  -0.207  -1.315  0.00  0.00    +0.210 HD
ENDBRANCH  19  20
BRANCH  18  22
ATOM     22  O   UNL     1       0.463  -0.563  -2.264  0.00  0.00    -0.389 OA
ATOM     23  H   UNL     1      -0.174  -1.290  -2.283  0.00  0.00    +0.210 HD
ENDBRANCH  18  22
BRANCH   9  24
ATOM     24  O   UNL     1      -2.510   6.727   5.389  0.00  0.00    -0.507 OA
ATOM     25  H   UNL     1      -3.250   7.298   5.141  0.00  0.00    +0.292 HD
ENDBRANCH   9  24
BRANCH  13  26
ATOM     26  O   UNL     1      -3.817   0.781   3.237  0.00  0.00    -0.382 OA
BRANCH  26  27
ATOM     27  C   UNL     1      -4.705   0.256   4.225  0.00  0.00    +0.387 C 
BRANCH  27  28
ATOM     28  C   UNL     1      -5.167  -1.117   3.806  0.00  0.00    +0.395 C 
ATOM     29  O   UNL     1      -4.775  -1.595   2.768  0.00  0.00    -0.242 OA
ATOM     30  O   UNL     1      -6.013  -1.807   4.586  0.00  0.00    -0.242 OA
ENDBRANCH  27  28
ENDBRANCH  26  27
ENDBRANCH  13  26
TORSDOF 6
