REMARK  Name = ZINC59912789
REMARK  9 active torsions:
REMARK  status: ('A' for Active; 'I' for Inactive)
REMARK    1  A    between atoms: C_4  and  N_7
REMARK    2  A    between atoms: N_7  and  S_8
REMARK    3  A    between atoms: S_8  and  C_11
REMARK    4  A    between atoms: C_14  and  N_17
REMARK    5  A    between atoms: C_18  and  C_20
REMARK    6  A    between atoms: C_20  and  S_21
REMARK    7  A    between atoms: S_21  and  C_22
REMARK    8  A    between atoms: C_25  and  C_28
REMARK    9  A    between atoms: N_26  and  N_27
REMARK                            x       y       z     vdW  Elec       q    Type
REMARK                         _______ _______ _______ _____ _____    ______ ____
ROOT
ATOM      1  C   UNL     1       2.623  -3.193   0.333  0.00  0.00    +0.109 A 
ATOM      2  C   UNL     1       1.336  -3.271   0.834  0.00  0.00    +0.030 A 
ATOM      3  C   UNL     1       0.459  -4.219   0.344  0.00  0.00    +0.025 A 
ATOM      4  C   UNL     1       0.870  -5.094  -0.653  0.00  0.00    +0.034 A 
ATOM      5  C   UNL     1       2.163  -5.013  -1.154  0.00  0.00    +0.025 A 
ATOM      6  C   UNL     1       3.034  -4.060  -0.663  0.00  0.00    +0.030 A 
ENDROOT
BRANCH   4   7
ATOM      7  N   UNL     1      -0.016  -6.056  -1.151  0.00  0.00    -0.285 N 
ATOM      8  C   UNL     1      -1.333  -5.782  -1.229  0.00  0.00    +0.227 C 
ATOM      9  O   UNL     1      -1.739  -4.672  -0.957  0.00  0.00    -0.275 OA
ATOM     10  H   UNL     1       0.318  -6.920  -1.440  0.00  0.00    +0.155 HD
BRANCH   8  11
ATOM     11  C   UNL     1      -2.302  -6.855  -1.655  0.00  0.00    +0.173 C 
BRANCH  11  12
ATOM     12  S   UNL     1      -3.986  -6.182  -1.662  0.00  0.00    -0.075 S 
BRANCH  12  13
ATOM     13  C   UNL     1      -4.986  -7.539  -2.173  0.00  0.00    +0.209 A 
ATOM     14  N   UNL     1      -4.569  -8.749  -2.467  0.00  0.00    -0.121 NA
ATOM     15  N   UNL     1      -5.567  -9.486  -2.801  0.00  0.00    -0.132 NA
ATOM     16  C   UNL     1      -6.672  -8.797  -2.741  0.00  0.00    +0.154 A 
ATOM     17  N   UNL     1      -6.342  -7.534  -2.333  0.00  0.00    -0.228 N 
BRANCH  17  18
ATOM     18  N   UNL     1      -7.192  -6.484  -2.132  0.00  0.00    -0.295 N 
ATOM     19  H   UNL     1      -7.310  -5.946  -2.978  0.00  0.00    +0.163 HD
ATOM     20  H   UNL     1      -8.082  -6.802  -1.778  0.00  0.00    +0.163 HD
ENDBRANCH  17  18
BRANCH  16  21
ATOM     21  C   UNL     1      -8.057  -9.300  -3.056  0.00  0.00    +0.059 C 
ATOM     22  C   UNL     1      -8.226 -10.802  -3.292  0.00  0.00    +0.012 C 
ATOM     23  C   UNL     1      -8.312  -9.829  -4.470  0.00  0.00    +0.012 C 
ENDBRANCH  16  21
ENDBRANCH  12  13
ENDBRANCH  11  12
ENDBRANCH   8  11
ENDBRANCH   4   7
BRANCH   1  24
ATOM     24  S   UNL     1       3.739  -1.983   0.961  0.00  0.00    +0.072 S 
ATOM     25  O   UNL     1       5.045  -2.407   0.597  0.00  0.00    -0.150 OA
ATOM     26  O   UNL     1       3.363  -1.746   2.311  0.00  0.00    -0.150 OA
BRANCH  24  27
ATOM     27  N   UNL     1       3.450  -0.577   0.135  0.00  0.00    -0.216 N 
ATOM     28  H   UNL     1       3.152   0.213   0.612  0.00  0.00    +0.174 HD
BRANCH  27  32
ATOM     29  C   UNL     1       4.007  -0.431  -3.989  0.00  0.00    +0.000 A 
ATOM     30  C   UNL     1       2.861   0.102  -3.428  0.00  0.00    +0.002 A 
ATOM     31  C   UNL     1       2.673   0.056  -2.061  0.00  0.00    +0.024 A 
ATOM     32  C   UNL     1       3.637  -0.528  -1.248  0.00  0.00    +0.048 A 
ATOM     33  C   UNL     1       4.787  -1.063  -1.815  0.00  0.00    +0.024 A 
ATOM     34  C   UNL     1       4.968  -1.012  -3.183  0.00  0.00    +0.002 A 
ENDBRANCH  27  32
ENDBRANCH  24  27
ENDBRANCH   1  24
TORSDOF 9
