REMARK  Name = ZINC12568695
REMARK  4 active torsions:
REMARK  status: ('A' for Active; 'I' for Inactive)
REMARK    1  A    between atoms: C_5  and  N_7
REMARK    2  A    between atoms: C_13  and  C_15
REMARK    3  A    between atoms: C_15  and  C_16
REMARK    4  A    between atoms: C_25  and  O_28
REMARK                            x       y       z     vdW  Elec       q    Type
REMARK                         _______ _______ _______ _____ _____    ______ ____
ROOT
ATOM      1  N   UNL     1      -3.468   3.143  -0.957  0.00  0.00    -0.325 N 
ATOM      2  C   UNL     1      -3.347   1.687  -1.105  0.00  0.00    +0.124 C 
ATOM      3  C   UNL     1      -2.466   1.133   0.020  0.00  0.00    +0.126 C 
ATOM      4  N   UNL     1      -1.191   1.867   0.018  0.00  0.00    -0.298 N 
ATOM      5  C   UNL     1      -1.233   3.337   0.032  0.00  0.00    +0.126 C 
ATOM      6  C   UNL     1      -2.163   3.803  -1.099  0.00  0.00    +0.124 C 
ATOM      7  C   UNL     1      -0.014   1.209   0.009  0.00  0.00    +0.216 C 
ATOM      8  O   UNL     1       0.002  -0.004   0.002  0.00  0.00    -0.276 OA
ENDROOT
BRANCH   1  13
ATOM      9  C   UNL     1      -6.628   3.752  -2.734  0.00  0.00    +0.002 A 
ATOM     10  C   UNL     1      -6.229   4.694  -3.665  0.00  0.00    +0.003 A 
ATOM     11  C   UNL     1      -4.915   5.123  -3.700  0.00  0.00    +0.040 A 
ATOM     12  C   UNL     1      -3.995   4.611  -2.803  0.00  0.00    +0.144 A 
ATOM     13  C   UNL     1      -4.394   3.664  -1.866  0.00  0.00    +0.065 A 
ATOM     14  C   UNL     1      -5.714   3.233  -1.838  0.00  0.00    +0.026 A 
ATOM     15  F   UNL     1      -2.711   5.029  -2.837  0.00  0.00    -0.204 F 
ENDBRANCH   1  13
BRANCH   7  16
ATOM     16  C   UNL     1       1.280   1.980   0.001  0.00  0.00    +0.103 C 
BRANCH  16  17
ATOM     17  C   UNL     1       2.457   1.002  -0.016  0.00  0.00    -0.018 C 
ATOM     18  C   UNL     1       2.399   0.114   1.229  0.00  0.00    +0.011 C 
ATOM     19  C   UNL     1       3.576  -0.864   1.213  0.00  0.00    -0.007 C 
ATOM     20  C   UNL     1       3.495  -1.738  -0.041  0.00  0.00    +0.007 C 
ATOM     21  C   UNL     1       3.552  -0.851  -1.286  0.00  0.00    -0.007 C 
ATOM     22  C   UNL     1       2.376   0.128  -1.269  0.00  0.00    +0.011 C 
ATOM     23  C   UNL     1       4.866  -0.068  -1.294  0.00  0.00    +0.038 C 
ATOM     24  C   UNL     1       4.947   0.806  -0.041  0.00  0.00    +0.067 C 
ATOM     25  C   UNL     1       4.890  -0.081   1.204  0.00  0.00    +0.038 C 
ATOM     26  C   UNL     1       3.771   1.784  -0.024  0.00  0.00    +0.042 C 
BRANCH  24  27
ATOM     27  O   UNL     1       6.175   1.537  -0.049  0.00  0.00    -0.389 OA
ATOM     28  H   UNL     1       6.412   2.224   0.778  0.00  0.00    +0.210 HD
ENDBRANCH  24  27
ENDBRANCH  16  17
ENDBRANCH   7  16
TORSDOF 4
