REMARK  Name = ZINC51583123
REMARK  4 active torsions:
REMARK  status: ('A' for Active; 'I' for Inactive)
REMARK    1  A    between atoms: C_1  and  C_2
REMARK    2  A    between atoms: C_5  and  N_9
REMARK    3  A    between atoms: C_16  and  C_19
REMARK    4  A    between atoms: N_21  and  C_22
REMARK                            x       y       z     vdW  Elec       q    Type
REMARK                         _______ _______ _______ _____ _____    ______ ____
ROOT
ATOM      1  N   UNL     1       0.051  -4.171  -0.023  0.00  0.00    -0.268 N 
ATOM      2  C   UNL     1      -0.040  -4.839  -1.190  0.00  0.00    +0.306 C 
ATOM      3  O   UNL     1      -0.048  -4.229  -2.241  0.00  0.00    -0.252 OA
ATOM      4  N   UNL     1      -0.124  -6.184  -1.190  0.00  0.00    -0.285 N 
ATOM      5  C   UNL     1      -0.225  -6.929   0.072  0.00  0.00    +0.109 C 
ATOM      6  C   UNL     1       0.878  -7.992   0.107  0.00  0.00    +0.020 C 
ATOM      7  C   UNL     1       0.780  -8.864  -1.147  0.00  0.00    +0.016 C 
ATOM      8  C   UNL     1       0.985  -7.997  -2.391  0.00  0.00    +0.092 C 
ATOM      9  C   UNL     1      -0.122  -6.934  -2.454  0.00  0.00    +0.122 C 
ATOM     10  H   UNL     1       0.092  -4.659   0.814  0.00  0.00    +0.156 HD
ENDROOT
BRANCH   1  15
ATOM     11  C   UNL     1       0.199   1.502  -0.009  0.00  0.00    +0.044 C 
ATOM     12  C   UNL     1       0.159  -0.005  -0.012  0.00  0.00    -0.049 A 
ATOM     13  C   UNL     1       0.525  -0.702  -1.149  0.00  0.00    +0.005 A 
ATOM     14  C   UNL     1       0.491  -2.083  -1.156  0.00  0.00    +0.025 A 
ATOM     15  C   UNL     1       0.088  -2.771  -0.019  0.00  0.00    +0.053 A 
ATOM     16  C   UNL     1      -0.279  -2.068   1.122  0.00  0.00    +0.062 A 
ATOM     17  C   UNL     1      -0.237  -0.686   1.123  0.00  0.00    +0.025 A 
ATOM     18 CL   UNL     1      -0.784  -2.924   2.545  0.00  0.00    -0.082 Cl
ENDBRANCH   1  15
BRANCH   8  19
ATOM     19  C   UNL     1       0.922  -8.862  -3.623  0.00  0.00    +0.218 C 
ATOM     20  O   UNL     1       0.732 -10.055  -3.517  0.00  0.00    -0.275 OA
ATOM     21  N   UNL     1       1.076  -8.310  -4.843  0.00  0.00    -0.312 N 
ATOM     22  H   UNL     1       1.228  -7.355  -4.927  0.00  0.00    +0.149 HD
BRANCH  21  23
ATOM     23  C   UNL     1       1.015  -9.151  -6.041  0.00  0.00    +0.073 C 
ATOM     24  C   UNL     1       2.063  -8.908  -7.129  0.00  0.00    +0.024 C 
ATOM     25  C   UNL     1       0.612  -8.479  -7.355  0.00  0.00    +0.024 C 
ENDBRANCH  21  23
ENDBRANCH   8  19
TORSDOF 3
