REMARK  Name = ZINC40429292
REMARK  5 active torsions:
REMARK  status: ('A' for Active; 'I' for Inactive)
REMARK    1  A    between atoms: C_3  and  O_23
REMARK    2  A    between atoms: C_6  and  N_7
REMARK    3  A    between atoms: N_10  and  C_11
REMARK    4  A    between atoms: C_15  and  C_17
REMARK    5  A    between atoms: O_23  and  C_24
REMARK                            x       y       z     vdW  Elec       q    Type
REMARK                         _______ _______ _______ _____ _____    ______ ____
ROOT
ATOM      1  C   UNL     1      -0.041   1.391  -0.185  0.00  0.00    +0.027 A 
ATOM      2  C   UNL     1       1.098   2.173  -0.171  0.00  0.00    +0.051 A 
ATOM      3  C   UNL     1       2.349   1.576  -0.131  0.00  0.00    +0.164 A 
ATOM      4  C   UNL     1       2.457   0.190  -0.105  0.00  0.00    +0.167 A 
ATOM      5  C   UNL     1       1.317  -0.592  -0.118  0.00  0.00    +0.065 A 
ATOM      6  C   UNL     1       0.065   0.008  -0.159  0.00  0.00    +0.038 A 
ATOM      7  F   UNL     1       3.676  -0.392  -0.066  0.00  0.00    -0.202 F 
ENDROOT
BRANCH   6   8
ATOM      8  N   UNL     1      -1.090  -0.784  -0.172  0.00  0.00    -0.269 N 
ATOM      9  C   UNL     1      -2.172  -0.386  -0.870  0.00  0.00    +0.308 C 
ATOM     10  O   UNL     1      -2.114   0.610  -1.567  0.00  0.00    -0.252 OA
ATOM     11  N   UNL     1      -3.319  -1.090  -0.796  0.00  0.00    -0.269 N 
ATOM     12  H   UNL     1      -1.112  -1.620   0.320  0.00  0.00    +0.156 HD
ATOM     13  H   UNL     1      -3.347  -1.920  -0.295  0.00  0.00    +0.156 HD
BRANCH  11  14
ATOM     14  C   UNL     1      -4.470  -0.624  -1.443  0.00  0.00    +0.035 A 
ATOM     15  C   UNL     1      -4.364   0.036  -2.661  0.00  0.00    +0.025 A 
ATOM     16  C   UNL     1      -5.500   0.495  -3.297  0.00  0.00    +0.022 A 
ATOM     17  C   UNL     1      -6.744   0.298  -2.722  0.00  0.00    +0.053 A 
ATOM     18  C   UNL     1      -6.852  -0.359  -1.509  0.00  0.00    +0.075 A 
ATOM     19  C   UNL     1      -5.719  -0.825  -0.872  0.00  0.00    +0.037 A 
ATOM     20 CL   UNL     1      -8.171   0.876  -3.525  0.00  0.00    -0.083 Cl
BRANCH  18  21
ATOM     21  C   UNL     1      -8.208  -0.571  -0.886  0.00  0.00    +0.419 C 
ATOM     22  F   UNL     1      -8.062  -1.252   0.327  0.00  0.00    -0.166 F 
ATOM     23  F   UNL     1      -8.814   0.668  -0.655  0.00  0.00    -0.166 F 
ATOM     24  F   UNL     1      -9.006  -1.327  -1.752  0.00  0.00    -0.166 F 
ENDBRANCH  18  21
ENDBRANCH  11  14
ENDBRANCH   6   8
BRANCH   3  25
ATOM     25  O   UNL     1       3.470   2.346  -0.118  0.00  0.00    -0.451 OA
BRANCH  25  26
ATOM     26  C   UNL     1       4.139   2.517  -1.287  0.00  0.00    +0.157 A 
ATOM     27  C   UNL     1       3.634   2.010  -2.483  0.00  0.00    +0.068 A 
ATOM     28  C   UNL     1       4.343   2.205  -3.651  0.00  0.00    +0.117 A 
ATOM     29  N   UNL     1       5.487   2.861  -3.655  0.00  0.00    -0.236 NA
ATOM     30  C   UNL     1       6.008   3.361  -2.545  0.00  0.00    +0.162 A 
ATOM     31  C   UNL     1       5.347   3.209  -1.326  0.00  0.00    +0.129 A 
ATOM     32  N   UNL     1       6.126   3.839  -0.358  0.00  0.00    -0.302 N 
ATOM     33  H   UNL     1       5.923   3.896   0.588  0.00  0.00    +0.171 HD
ATOM     34  C   UNL     1       7.212   4.356  -0.965  0.00  0.00    +0.326 A 
ATOM     35  O   UNL     1       8.100   4.973  -0.408  0.00  0.00    -0.247 OA
ATOM     36  N   UNL     1       7.171   4.075  -2.281  0.00  0.00    -0.291 N 
ATOM     37  H   UNL     1       7.835   4.337  -2.937  0.00  0.00    +0.172 HD
ENDBRANCH  25  26
ENDBRANCH   3  25
TORSDOF 5
