REMARK  Name = ZINC01021112
REMARK  8 active torsions:
REMARK  status: ('A' for Active; 'I' for Inactive)
REMARK    1  A    between atoms: C_1  and  C_2
REMARK    2  A    between atoms: C_6  and  O_8
REMARK    3  A    between atoms: O_8  and  C_9
REMARK    4  A    between atoms: C_9  and  C_10
REMARK    5  A    between atoms: N_12  and  N_13
REMARK    6  A    between atoms: C_14  and  C_15
REMARK    7  A    between atoms: C_18  and  O_23
REMARK    8  A    between atoms: C_20  and  O_21
REMARK                            x       y       z     vdW  Elec       q    Type
REMARK                         _______ _______ _______ _____ _____    ______ ____
ROOT
ATOM      1  N   UNL     1      -5.133  -2.848   0.011  0.00  0.00    -0.188 NA
ATOM      2  C   UNL     1      -5.288  -4.137   0.005  0.00  0.00    +0.142 C 
ENDROOT
BRANCH   2   3
ATOM      3  C   UNL     1      -6.642  -4.717   0.008  0.00  0.00    +0.038 A 
ATOM      4  C   UNL     1      -6.811  -6.104   0.001  0.00  0.00    +0.032 A 
ATOM      5  C   UNL     1      -8.080  -6.643   0.005  0.00  0.00    +0.061 A 
ATOM      6  C   UNL     1      -9.194  -5.810   0.015  0.00  0.00    +0.148 A 
ATOM      7  C   UNL     1      -9.036  -4.431   0.023  0.00  0.00    +0.102 A 
ATOM      8  C   UNL     1      -7.766  -3.879   0.024  0.00  0.00    +0.143 A 
ATOM      9 BR   UNL     1     -10.555  -3.306   0.038  0.00  0.00    -0.043 Br
ATOM     10 BR   UNL     1      -8.307  -8.520  -0.004  0.00  0.00    -0.046 Br
BRANCH   8  11
ATOM     11  O   UNL     1      -7.610  -2.530   0.035  0.00  0.00    -0.505 OA
ATOM     12  H   UNL     1      -7.571  -2.131  -0.845  0.00  0.00    +0.292 HD
ENDBRANCH   8  11
BRANCH   6  13
ATOM     13  O   UNL     1     -10.441  -6.348   0.019  0.00  0.00    -0.504 OA
ATOM     14  H   UNL     1     -10.798  -6.509   0.904  0.00  0.00    +0.292 HD
ENDBRANCH   6  13
ENDBRANCH   2   3
BRANCH   1  17
ATOM     15  C   UNL     1      -3.685  -0.959   0.014  0.00  0.00    +0.270 C 
ATOM     16  O   UNL     1      -4.656  -0.232   0.023  0.00  0.00    -0.270 OA
ATOM     17  N   UNL     1      -3.845  -2.297   0.008  0.00  0.00    -0.204 N 
ATOM     18  H   UNL     1      -3.069  -2.879   0.001  0.00  0.00    +0.177 HD
BRANCH  15  19
ATOM     19  C   UNL     1      -2.299  -0.366   0.011  0.00  0.00    +0.326 C 
BRANCH  19  20
ATOM     20  O   UNL     1      -2.391   1.060   0.019  0.00  0.00    -0.483 OA
BRANCH  20  26
ATOM     21  C   UNL     1      -0.065   5.351   0.029  0.00  0.00    +0.044 C 
ATOM     22  C   UNL     1      -0.049   3.844   0.022  0.00  0.00    -0.047 A 
ATOM     23  C   UNL     1       1.156   3.166   0.007  0.00  0.00    +0.003 A 
ATOM     24  C   UNL     1       1.174   1.783   0.000  0.00  0.00    +0.004 A 
ATOM     25  C   UNL     1      -0.013   1.076   0.008  0.00  0.00    +0.045 A 
ATOM     26  C   UNL     1      -1.223   1.754   0.017  0.00  0.00    +0.121 A 
ATOM     27  C   UNL     1      -1.238   3.141   0.029  0.00  0.00    +0.049 A 
ENDBRANCH  20  26
ENDBRANCH  19  20
ENDBRANCH  15  19
ENDBRANCH   1  17
TORSDOF 7
