REMARK  Name = ZINC13408471
REMARK  8 active torsions:
REMARK  status: ('A' for Active; 'I' for Inactive)
REMARK    1  A    between atoms: C_1  and  C_2
REMARK    2  A    between atoms: C_2  and  C_4
REMARK    3  A    between atoms: C_4  and  O_29
REMARK    4  A    between atoms: C_7  and  C_28
REMARK    5  A    between atoms: C_19  and  C_27
REMARK    6  A    between atoms: C_24  and  O_26
REMARK    7  A    between atoms: O_29  and  C_30
REMARK    8  A    between atoms: C_30  and  C_32
REMARK                            x       y       z     vdW  Elec       q    Type
REMARK                         _______ _______ _______ _____ _____    ______ ____
ROOT
ATOM      1  C   UNL     1      -0.000   0.022  -0.045  0.00  0.00    +0.171 C 
ATOM      2  C   UNL     1       0.901  -0.441  -1.187  0.00  0.00    +0.056 C 
ATOM      3  C   UNL     1       2.297   0.167  -1.074  0.00  0.00    +0.011 C 
ATOM      4  C   UNL     1       2.221   1.694  -1.049  0.00  0.00    -0.026 C 
ATOM      5  C   UNL     1       1.356   2.140   0.117  0.00  0.00    -0.001 C 
ATOM      6  C   UNL     1      -0.046   1.546   0.034  0.00  0.00    +0.060 C 
ATOM      7  C   UNL     1       1.279   3.666   0.150  0.00  0.00    +0.004 C 
ATOM      8  C   UNL     1       2.671   4.231   0.376  0.00  0.00    +0.004 C 
ATOM      9  C   UNL     1       3.681   3.776  -0.667  0.00  0.00    -0.004 C 
ATOM     10  C   UNL     1       3.598   2.306  -1.017  0.00  0.00    -0.001 C 
ATOM     11  C   UNL     1       4.612   1.493  -0.218  0.00  0.00    +0.005 C 
ATOM     12  C   UNL     1       6.034   1.818  -0.713  0.00  0.00    +0.010 C 
ATOM     13  C   UNL     1       6.148   3.309  -0.940  0.00  0.00    -0.003 C 
ATOM     14  C   UNL     1       5.075   4.048  -0.113  0.00  0.00    +0.001 C 
ATOM     15  C   UNL     1       5.529   5.512  -0.226  0.00  0.00    +0.007 C 
ATOM     16  C   UNL     1       7.076   5.421  -0.158  0.00  0.00    +0.032 C 
ATOM     17  C   UNL     1       7.444   3.937  -0.395  0.00  0.00    +0.121 C 
ATOM     18  C   UNL     1       6.048   3.641  -2.429  0.00  0.00    +0.014 C 
ATOM     19  C   UNL     1       1.570   2.147  -2.361  0.00  0.00    +0.012 C 
ENDROOT
BRANCH   1  21
ATOM     20  C   UNL     1       0.119  -1.967   1.639  0.00  0.00    +0.090 C 
ATOM     21  C   UNL     1       0.479  -0.553   1.261  0.00  0.00    +0.174 C 
ATOM     22  O   UNL     1       1.151   0.118   2.007  0.00  0.00    -0.293 OA
ENDBRANCH   1  21
BRANCH  17  23
ATOM     23  O   UNL     1       8.483   3.829  -1.366  0.00  0.00    -0.391 OA
ATOM     24  H   UNL     1       9.309   4.261  -1.108  0.00  0.00    +0.210 HD
ENDBRANCH  17  23
BRANCH   1  25
ATOM     25  O   UNL     1      -1.352  -0.469  -0.295  0.00  0.00    -0.451 OA
BRANCH  25  26
ATOM     26  C   UNL     1      -2.268  -0.246   0.661  0.00  0.00    +0.305 C 
ATOM     27  O   UNL     1      -1.981   0.416   1.630  0.00  0.00    -0.251 OA
ATOM     28  C   UNL     1      -3.654  -0.821   0.525  0.00  0.00    +0.136 C 
ENDBRANCH  25  26
ENDBRANCH   1  25
TORSDOF 4
