REMARK  Name = ZINC06884363
REMARK  7 active torsions:
REMARK  status: ('A' for Active; 'I' for Inactive)
REMARK    1  A    between atoms: C_5  and  C_7
REMARK    2  A    between atoms: C_8  and  C_9
REMARK    3  A    between atoms: N_11  and  C_12
REMARK    4  A    between atoms: C_12  and  N_14
REMARK    5  A    between atoms: N_14  and  N_15
REMARK    6  A    between atoms: C_16  and  C_18
REMARK    7  A    between atoms: C_23  and  O_24
REMARK                            x       y       z     vdW  Elec       q    Type
REMARK                         _______ _______ _______ _____ _____    ______ ____
ROOT
ATOM      1  C   UNL     1       3.578   1.856  -0.022  0.00  0.00    +0.153 C 
ATOM      2  S   UNL     1       3.555   3.568  -0.013  0.00  0.00    -0.017 S 
ENDROOT
BRANCH   1   5
ATOM      3  C   UNL     1       1.244   1.824   0.000  0.00  0.00    +0.242 C 
ATOM      4  O   UNL     1       1.228   3.041   0.007  0.00  0.00    -0.270 OA
ATOM      5  N   UNL     1       2.420   1.166  -0.015  0.00  0.00    -0.263 N 
ATOM      6  H   UNL     1       2.433   0.197  -0.020  0.00  0.00    +0.157 HD
BRANCH   3   8
ATOM      7  C   UNL     1      -1.190   1.734   0.017  0.00  0.00    +0.014 C 
ATOM      8  C   UNL     1      -0.013   1.076   0.008  0.00  0.00    +0.068 C 
BRANCH   7  13
ATOM      9  C   UNL     1      -3.628  -1.115   0.013  0.00  0.00    +0.001 A 
ATOM     10  C   UNL     1      -4.835  -0.436   0.022  0.00  0.00    +0.001 A 
ATOM     11  C   UNL     1      -4.859   0.947   0.030  0.00  0.00    +0.020 A 
ATOM     12  C   UNL     1      -3.678   1.661   0.034  0.00  0.00    +0.048 A 
ATOM     13  C   UNL     1      -2.454   0.982   0.019  0.00  0.00    -0.007 A 
ATOM     14  C   UNL     1      -2.440  -0.417   0.011  0.00  0.00    +0.009 A 
ATOM     15 CL   UNL     1      -3.710   3.397   0.052  0.00  0.00    -0.083 Cl
ENDBRANCH   7  13
ENDBRANCH   3   8
ENDBRANCH   1   5
BRANCH   1  16
ATOM     16  N   UNL     1       4.754   1.198  -0.037  0.00  0.00    -0.245 N 
ATOM     17  H   UNL     1       5.588   1.694  -0.042  0.00  0.00    +0.172 HD
BRANCH  16  18
ATOM     18  N   UNL     1       4.773  -0.203  -0.045  0.00  0.00    -0.231 N 
ATOM     19  C   UNL     1       5.949  -0.861  -0.059  0.00  0.00    +0.264 C 
ATOM     20  O   UNL     1       6.994  -0.238  -0.066  0.00  0.00    -0.269 OA
ATOM     21  H   UNL     1       3.940  -0.699  -0.039  0.00  0.00    +0.173 HD
BRANCH  19  22
ATOM     22  C   UNL     1       5.969  -2.336  -0.068  0.00  0.00    +0.079 A 
ATOM     23  C   UNL     1       4.772  -3.055  -0.054  0.00  0.00    +0.017 A 
ATOM     24  C   UNL     1       4.797  -4.432  -0.066  0.00  0.00    +0.001 A 
ATOM     25  C   UNL     1       6.006  -5.109  -0.081  0.00  0.00    +0.004 A 
ATOM     26  C   UNL     1       7.197  -4.411  -0.090  0.00  0.00    +0.046 A 
ATOM     27  C   UNL     1       7.190  -3.024  -0.083  0.00  0.00    +0.129 A 
BRANCH  27  28
ATOM     28  O   UNL     1       8.360  -2.337  -0.090  0.00  0.00    -0.506 OA
ATOM     29  H   UNL     1       8.707  -2.142   0.791  0.00  0.00    +0.292 HD
ENDBRANCH  27  28
ENDBRANCH  19  22
ENDBRANCH  16  18
ENDBRANCH   1  16
TORSDOF 7
