REMARK  Name = ZINC48866619
REMARK  4 active torsions:
REMARK  status: ('A' for Active; 'I' for Inactive)
REMARK    1  A    between atoms: C_4  and  N_20
REMARK    2  A    between atoms: C_5  and  C_7
REMARK    3  A    between atoms: N_11  and  C_12
REMARK    4  A    between atoms: C_12  and  C_13
REMARK                            x       y       z     vdW  Elec       q    Type
REMARK                         _______ _______ _______ _____ _____    ______ ____
ROOT
ATOM      1  C   UNL     1       1.246  -2.162  -0.021  0.00  0.00    +0.184 A 
ATOM      2  N   UNL     1       2.315  -2.925  -0.122  0.00  0.00    -0.108 NA
ATOM      3  N   UNL     1       1.985  -4.166  -0.096  0.00  0.00    -0.023 NA
ATOM      4  N   UNL     1       0.707  -4.288   0.021  0.00  0.00    -0.043 NA
ATOM      5  N   UNL     1       0.176  -2.988   0.080  0.00  0.00    -0.221 N 
ENDROOT
BRANCH   1  10
ATOM      6  C   UNL     1      -0.017   1.375  -0.016  0.00  0.00    +0.001 A 
ATOM      7  C   UNL     1       1.169   2.090   0.000  0.00  0.00    +0.002 A 
ATOM      8  C   UNL     1       2.382   1.430   0.009  0.00  0.00    +0.023 A 
ATOM      9  C   UNL     1       2.418   0.043   0.003  0.00  0.00    +0.035 A 
ATOM     10  C   UNL     1       1.220  -0.683  -0.014  0.00  0.00    +0.041 A 
ATOM     11  C   UNL     1       0.002  -0.004  -0.023  0.00  0.00    +0.013 A 
BRANCH   9  12
ATOM     12  N   UNL     1       3.641  -0.625   0.011  0.00  0.00    -0.357 N 
ATOM     13  H   UNL     1       4.469  -0.120   0.022  0.00  0.00    +0.142 HD
ATOM     14  H   UNL     1       3.664  -1.595   0.006  0.00  0.00    +0.142 HD
ENDBRANCH   9  12
ENDBRANCH   1  10
BRANCH   5  15
ATOM     15  C   UNL     1      -1.232  -2.608   0.217  0.00  0.00    +0.182 C 
BRANCH  15  16
ATOM     16  C   UNL     1      -2.070  -3.844   0.419  0.00  0.00    -0.025 A 
ATOM     17  C   UNL     1      -2.505  -4.569  -0.675  0.00  0.00    +0.005 A 
ATOM     18  C   UNL     1      -3.273  -5.704  -0.491  0.00  0.00    +0.001 A 
ATOM     19  C   UNL     1      -3.606  -6.114   0.786  0.00  0.00    +0.015 A 
ATOM     20  C   UNL     1      -3.170  -5.389   1.881  0.00  0.00    +0.018 A 
ATOM     21  C   UNL     1      -2.397  -4.257   1.696  0.00  0.00    +0.020 A 
ATOM     22 BR   UNL     1      -3.625  -5.950   3.628  0.00  0.00    -0.050 Br
ENDBRANCH  15  16
ENDBRANCH   5  15
TORSDOF 4
