REMARK  Name = ZINC14459720
REMARK  9 active torsions:
REMARK  status: ('A' for Active; 'I' for Inactive)
REMARK    1  A    between atoms: C_1  and  C_2
REMARK    2  A    between atoms: C_4  and  C_37
REMARK    3  A    between atoms: C_6  and  N_8
REMARK    4  A    between atoms: N_8  and  S_9
REMARK    5  A    between atoms: S_9  and  C_12
REMARK    6  A    between atoms: C_25  and  C_28
REMARK    7  A    between atoms: C_32  and  O_35
REMARK    8  A    between atoms: C_33  and  O_34
REMARK    9  A    between atoms: O_35  and  C_36
REMARK                            x       y       z     vdW  Elec       q    Type
REMARK                         _______ _______ _______ _____ _____    ______ ____
ROOT
ATOM      1  C   UNL     1       4.800  -0.220   1.888  0.00  0.00    +0.109 A 
ATOM      2  C   UNL     1       5.071  -0.259   0.532  0.00  0.00    +0.030 A 
ATOM      3  C   UNL     1       4.590   0.740  -0.290  0.00  0.00    +0.025 A 
ATOM      4  C   UNL     1       3.838   1.779   0.244  0.00  0.00    +0.031 A 
ATOM      5  C   UNL     1       3.565   1.823   1.602  0.00  0.00    -0.018 A 
ATOM      6  C   UNL     1       4.053   0.812   2.419  0.00  0.00    +0.034 A 
ATOM      7  C   UNL     1       2.763   2.923   2.222  0.00  0.00    +0.049 C 
ATOM      8  C   UNL     1       1.369   2.460   2.571  0.00  0.00    -0.023 C 
ATOM      9  C   UNL     1       0.506   3.427   2.369  0.00  0.00    -0.030 C 
ATOM     10  C   UNL     1       1.211   4.670   1.862  0.00  0.00    +0.033 C 
ATOM     11  C   UNL     1       2.541   4.115   1.271  0.00  0.00    +0.029 C 
ATOM     12  C   UNL     1       2.234   3.606  -0.140  0.00  0.00    +0.109 C 
ATOM     13  N   UNL     1       3.356   2.783  -0.603  0.00  0.00    -0.336 N 
ATOM     14  H   UNL     1       3.755   2.931  -1.475  0.00  0.00    +0.147 HD
ENDROOT
BRANCH  12  15
ATOM     15  C   UNL     1       0.977   2.775  -0.115  0.00  0.00    +0.018 A 
ATOM     16  C   UNL     1       1.050   1.417   0.135  0.00  0.00    +0.009 A 
ATOM     17  C   UNL     1      -0.101   0.652   0.160  0.00  0.00    +0.004 A 
ATOM     18  C   UNL     1      -1.331   1.241  -0.073  0.00  0.00    +0.049 A 
ATOM     19  C   UNL     1      -1.412   2.602  -0.319  0.00  0.00    +0.162 A 
ATOM     20  C   UNL     1      -0.253   3.372  -0.343  0.00  0.00    +0.163 A 
BRANCH  20  21
ATOM     21  O   UNL     1      -0.326   4.707  -0.589  0.00  0.00    -0.503 OA
ATOM     22  H   UNL     1      -0.263   4.938  -1.526  0.00  0.00    +0.292 HD
ENDBRANCH  20  21
BRANCH  19  23
ATOM     23  O   UNL     1      -2.621   3.183  -0.542  0.00  0.00    -0.491 OA
ATOM     24  C   UNL     1      -3.768   2.332  -0.502  0.00  0.00    +0.277 C 
ENDBRANCH  19  23
ENDBRANCH  12  15
BRANCH   1  25
ATOM     25  S   UNL     1       5.411  -1.493   2.942  0.00  0.00    +0.072 S 
ATOM     26  O   UNL     1       4.494  -1.601   4.022  0.00  0.00    -0.150 OA
ATOM     27  O   UNL     1       5.734  -2.594   2.103  0.00  0.00    -0.150 OA
BRANCH  25  28
ATOM     28  N   UNL     1       6.838  -0.953   3.586  0.00  0.00    -0.216 N 
ATOM     29  H   UNL     1       6.926  -0.841   4.545  0.00  0.00    +0.174 HD
BRANCH  28  35
ATOM     30  C   UNL     1       9.728  -2.208  -0.186  0.00  0.00    +0.044 C 
ATOM     31  C   UNL     1       9.339  -1.250   0.910  0.00  0.00    -0.048 A 
ATOM     32  C   UNL     1      10.051  -0.077   1.086  0.00  0.00    +0.006 A 
ATOM     33  C   UNL     1       9.698   0.805   2.091  0.00  0.00    -0.048 A 
ATOM     34  C   UNL     1       8.633   0.518   2.921  0.00  0.00    +0.028 A 
ATOM     35  C   UNL     1       7.915  -0.659   2.747  0.00  0.00    +0.049 A 
ATOM     36  C   UNL     1       8.276  -1.546   1.740  0.00  0.00    +0.028 A 
ATOM     37  C   UNL     1      10.476   2.082   2.279  0.00  0.00    +0.044 C 
ENDBRANCH  28  35
ENDBRANCH  25  28
ENDBRANCH   1  25
TORSDOF 6
