REMARK  Name = ZINC15523722
REMARK  13 active torsions:
REMARK  status: ('A' for Active; 'I' for Inactive)
REMARK    1  A    between atoms: C_1  and  C_2
REMARK    2  A    between atoms: C_2  and  C_3
REMARK    3  A    between atoms: C_2  and  C_4
REMARK    4  A    between atoms: C_4  and  C_6
REMARK    5  A    between atoms: C_4  and  N_18
REMARK    6  A    between atoms: C_9  and  C_12
REMARK    7  A    between atoms: N_18  and  C_19
REMARK    8  A    between atoms: C_19  and  C_20
REMARK    9  A    between atoms: N_22  and  C_23
REMARK   10  A    between atoms: C_23  and  C_24
REMARK   11  A    between atoms: C_24  and  C_25
REMARK   12  A    between atoms: C_28  and  S_31
REMARK   13  A    between atoms: S_31  and  N_34
REMARK                            x       y       z     vdW  Elec       q    Type
REMARK                         _______ _______ _______ _____ _____    ______ ____
ROOT
ATOM      1  C   UNL     1      -2.618   1.113  -1.198  0.00  0.00    +0.178 C 
ENDROOT
BRANCH   1   2
ATOM      2  C   UNL     1      -3.183   1.526  -2.533  0.00  0.00    +0.227 C 
ATOM      3  O   UNL     1      -3.123   0.768  -3.478  0.00  0.00    -0.274 OA
ATOM      4  N   UNL     1      -3.753   2.739  -2.676  0.00  0.00    -0.314 N 
ATOM      5  H   UNL     1      -3.800   3.345  -1.921  0.00  0.00    +0.149 HD
BRANCH   4   6
ATOM      6  C   UNL     1      -4.302   3.141  -3.974  0.00  0.00    +0.109 C 
BRANCH   6   7
ATOM      7  C   UNL     1      -4.886   4.551  -3.865  0.00  0.00    +0.054 C 
BRANCH   7   8
ATOM      8  C   UNL     1      -5.450   4.965  -5.200  0.00  0.00    -0.046 A 
ATOM      9  C   UNL     1      -4.647   5.613  -6.119  0.00  0.00    +0.005 A 
ATOM     10  C   UNL     1      -5.165   5.993  -7.343  0.00  0.00    +0.029 A 
ATOM     11  C   UNL     1      -6.486   5.724  -7.648  0.00  0.00    +0.105 A 
ATOM     12  C   UNL     1      -7.289   5.075  -6.729  0.00  0.00    +0.029 A 
ATOM     13  C   UNL     1      -6.770   4.692  -5.507  0.00  0.00    +0.005 A 
BRANCH  11  14
ATOM     14  S   UNL     1      -7.146   6.209  -9.208  0.00  0.00    +0.056 S 
ATOM     15  O   UNL     1      -8.552   6.329  -9.035  0.00  0.00    -0.153 OA
ATOM     16  O   UNL     1      -6.342   7.284  -9.674  0.00  0.00    -0.153 OA
BRANCH  14  17
ATOM     17  N   UNL     1      -6.905   4.949 -10.255  0.00  0.00    -0.204 NA
ATOM     18  H   UNL     1      -7.525   4.800 -10.986  0.00  0.00    +0.144 HD
ATOM     19  H   UNL     1      -6.143   4.360 -10.138  0.00  0.00    +0.144 HD
ENDBRANCH  14  17
ENDBRANCH  11  14
ENDBRANCH   7   8
ENDBRANCH   6   7
ENDBRANCH   4   6
ENDBRANCH   1   2
BRANCH   1  20
ATOM     20  N   UNL     1      -2.057  -0.241  -1.302  0.00  0.00    -0.301 NA
ATOM     21  H   UNL     1      -1.305  -0.270  -1.974  0.00  0.00    +0.123 HD
BRANCH  20  22
ATOM     22  C   UNL     1      -1.611  -0.728   0.010  0.00  0.00    +0.087 C 
BRANCH  22  23
ATOM     23  C   UNL     1      -1.665  -2.234   0.031  0.00  0.00    -0.030 A 
ATOM     24  C   UNL     1      -1.267  -2.956  -1.078  0.00  0.00    +0.005 A 
ATOM     25  C   UNL     1      -1.317  -4.337  -1.058  0.00  0.00    +0.004 A 
ATOM     26  C   UNL     1      -1.764  -4.997   0.071  0.00  0.00    -0.044 A 
ATOM     27  C   UNL     1      -2.160  -4.275   1.181  0.00  0.00    +0.004 A 
ATOM     28  C   UNL     1      -2.107  -2.894   1.163  0.00  0.00    +0.005 A 
BRANCH  26  29
ATOM     29  C   UNL     1      -1.819  -6.503   0.093  0.00  0.00    +0.019 C 
ATOM     30  C   UNL     1      -3.260  -6.957   0.334  0.00  0.00    +0.008 C 
ATOM     31  C   UNL     1      -3.316  -8.486   0.355  0.00  0.00    +0.001 C 
ATOM     32  C   UNL     1      -2.420  -9.013   1.478  0.00  0.00    +0.000 C 
ATOM     33  C   UNL     1      -0.979  -8.559   1.237  0.00  0.00    +0.001 C 
ATOM     34  C   UNL     1      -0.923  -7.030   1.216  0.00  0.00    +0.008 C 
ENDBRANCH  26  29
ENDBRANCH  22  23
BRANCH  22  36
ATOM     35  C   UNL     1       0.246  -0.663   1.680  0.00  0.00    +0.009 C 
ATOM     36  C   UNL     1      -0.174  -0.266   0.264  0.00  0.00    +0.004 C 
ATOM     37  C   UNL     1       0.761  -0.927  -0.751  0.00  0.00    +0.009 C 
ENDBRANCH  22  36
ENDBRANCH  20  22
ENDBRANCH   1  20
TORSDOF 11
