REMARK  Name = ZINC13152244
REMARK  5 active torsions:
REMARK  status: ('A' for Active; 'I' for Inactive)
REMARK    1  A    between atoms: C_1  and  C_2
REMARK    2  A    between atoms: C_2  and  C_3
REMARK    3  A    between atoms: C_3  and  C_4
REMARK    4  A    between atoms: N_12  and  C_15
REMARK    5  A    between atoms: N_22  and  C_23
REMARK                            x       y       z     vdW  Elec       q    Type
REMARK                         _______ _______ _______ _____ _____    ______ ____
ROOT
ATOM      1  C   UNL     1      -1.442  -1.963  -0.056  0.00  0.00    +0.127 C 
ATOM      2  C   UNL     1      -2.832  -2.544  -0.285  0.00  0.00    +0.141 C 
ATOM      3  C   UNL     1      -3.168  -2.857   1.222  0.00  0.00    +0.249 C 
ATOM      4  C   UNL     1      -4.610  -2.998   1.175  0.00  0.00    +0.258 C 
ATOM      5  O   UNL     1      -5.300  -3.733   1.848  0.00  0.00    -0.272 OA
ATOM      6  N   UNL     1      -5.027  -2.122   0.206  0.00  0.00    -0.208 N 
ATOM      7  C   UNL     1      -3.995  -1.647  -0.573  0.00  0.00    +0.234 C 
ATOM      8  O   UNL     1      -4.014  -0.700  -1.330  0.00  0.00    -0.274 OA
ATOM      9  O   UNL     1      -2.050  -3.515   1.652  0.00  0.00    -0.258 OA
ATOM     10  N   UNL     1      -0.951  -2.689   1.151  0.00  0.00    -0.248 N 
ENDROOT
BRANCH   6  11
ATOM     11  C   UNL     1      -6.367  -1.756   0.017  0.00  0.00    +0.044 A 
ATOM     12  C   UNL     1      -6.708  -0.866  -0.992  0.00  0.00    +0.024 A 
ATOM     13  C   UNL     1      -8.029  -0.507  -1.177  0.00  0.00    +0.002 A 
ATOM     14  C   UNL     1      -9.011  -1.033  -0.357  0.00  0.00    +0.000 A 
ATOM     15  C   UNL     1      -8.674  -1.919   0.649  0.00  0.00    +0.002 A 
ATOM     16  C   UNL     1      -7.356  -2.287   0.834  0.00  0.00    +0.024 A 
ENDBRANCH   6  11
BRANCH  10  17
ATOM     17  C   UNL     1       0.332  -2.601   1.697  0.00  0.00    +0.065 A 
ATOM     18  C   UNL     1       0.498  -2.247   3.030  0.00  0.00    +0.028 A 
ATOM     19  C   UNL     1       1.768  -2.161   3.566  0.00  0.00    +0.002 A 
ATOM     20  C   UNL     1       2.873  -2.426   2.778  0.00  0.00    +0.000 A 
ATOM     21  C   UNL     1       2.711  -2.778   1.451  0.00  0.00    +0.002 A 
ATOM     22  C   UNL     1       1.444  -2.872   0.909  0.00  0.00    +0.028 A 
ENDBRANCH  10  17
BRANCH   1  23
ATOM     23  C   UNL     1      -1.525  -0.460   0.216  0.00  0.00    +0.028 C 
BRANCH  23  25
ATOM     24  C   UNL     1      -0.187   1.615   0.600  0.00  0.00    +0.004 C 
ATOM     25  C   UNL     1      -0.119   0.093   0.460  0.00  0.00    -0.001 C 
ENDBRANCH  23  25
ENDBRANCH   1  23
TORSDOF 4
