REMARK  Name = ZINC00691704
REMARK  13 active torsions:
REMARK  status: ('A' for Active; 'I' for Inactive)
REMARK    1  A    between atoms: C_1  and  C_2
REMARK    2  A    between atoms: C_2  and  C_3
REMARK    3  A    between atoms: C_2  and  C_4
REMARK    4  A    between atoms: C_2  and  C_5
REMARK    5  A    between atoms: C_13  and  N_33
REMARK    6  A    between atoms: C_14  and  C_18
REMARK    7  A    between atoms: N_20  and  C_21
REMARK    8  A    between atoms: C_21  and  C_22
REMARK    9  A    between atoms: C_22  and  C_23
REMARK   10  A    between atoms: C_26  and  O_31
REMARK   11  A    between atoms: C_27  and  O_29
REMARK   12  A    between atoms: O_29  and  C_30
REMARK   13  A    between atoms: O_31  and  C_32
REMARK                            x       y       z     vdW  Elec       q    Type
REMARK                         _______ _______ _______ _____ _____    ______ ____
ROOT
ATOM      1  C   UNL     1       0.002  -0.004   0.002  0.00  0.00    -0.001 C 
ATOM      2  C   UNL     1       0.743  -0.517   1.242  0.00  0.00    +0.010 C 
ATOM      3  C   UNL     1       0.536  -2.027   1.337  0.00  0.00    +0.056 C 
ATOM      4  C   UNL     1       0.875  -2.692   0.027  0.00  0.00    +0.046 A 
ATOM      5  C   UNL     1       0.965  -1.990  -1.161  0.00  0.00    -0.025 A 
ATOM      6  C   UNL     1       1.273  -2.652  -2.333  0.00  0.00    +0.017 A 
ATOM      7  C   UNL     1       1.499  -4.048  -2.309  0.00  0.00    +0.029 A 
ATOM      8  C   UNL     1       1.834  -4.939  -3.410  0.00  0.00    +0.053 A 
ATOM      9  C   UNL     1       2.009  -6.277  -3.138  0.00  0.00    +0.097 A 
ATOM     10  S   UNL     1       1.728  -6.382  -1.381  0.00  0.00    -0.062 S 
ATOM     11  C   UNL     1       1.387  -4.672  -1.045  0.00  0.00    +0.111 A 
ATOM     12  N   UNL     1       1.090  -4.000   0.042  0.00  0.00    -0.244 NA
ATOM     13  C   UNL     1       0.740  -0.502  -1.239  0.00  0.00    +0.041 C 
ENDROOT
BRANCH   1  15
ATOM     14  C   UNL     1       1.417   2.055  -0.000  0.00  0.00    +0.011 C 
ATOM     15  C   UNL     1      -0.019   1.526   0.010  0.00  0.00    -0.035 C 
ATOM     16  C   UNL     1      -0.759   2.033  -1.229  0.00  0.00    +0.011 C 
ATOM     17  C   UNL     1      -0.735   2.019   1.269  0.00  0.00    +0.011 C 
ENDBRANCH   1  15
BRANCH   9  18
ATOM     18  C   UNL     1       2.335  -7.322  -4.039  0.00  0.00    +0.253 C 
ATOM     19  O   UNL     1       2.495  -7.078  -5.221  0.00  0.00    -0.270 OA
ATOM     20  N   UNL     1       2.468  -8.585  -3.587  0.00  0.00    -0.311 N 
ATOM     21  H   UNL     1       2.340  -8.779  -2.646  0.00  0.00    +0.149 HD
BRANCH  20  22
ATOM     22  C   UNL     1       2.804  -9.664  -4.519  0.00  0.00    +0.109 C 
BRANCH  22  23
ATOM     23  C   UNL     1       2.894 -10.987  -3.755  0.00  0.00    +0.054 C 
BRANCH  23  24
ATOM     24  C   UNL     1       3.240 -12.097  -4.714  0.00  0.00    -0.042 A 
ATOM     25  C   UNL     1       2.233 -12.802  -5.346  0.00  0.00    +0.007 A 
ATOM     26  C   UNL     1       2.546 -13.818  -6.230  0.00  0.00    +0.049 A 
ATOM     27  C   UNL     1       3.871 -14.139  -6.476  0.00  0.00    +0.161 A 
ATOM     28  C   UNL     1       4.885 -13.433  -5.835  0.00  0.00    +0.162 A 
ATOM     29  C   UNL     1       4.565 -12.412  -4.954  0.00  0.00    +0.053 A 
BRANCH  28  30
ATOM     30  O   UNL     1       6.187 -13.744  -6.073  0.00  0.00    -0.491 OA
ATOM     31  C   UNL     1       7.175 -12.977  -5.381  0.00  0.00    +0.277 C 
ENDBRANCH  28  30
BRANCH  27  32
ATOM     32  O   UNL     1       4.180 -15.141  -7.341  0.00  0.00    -0.491 OA
ATOM     33  C   UNL     1       3.088 -15.822  -7.962  0.00  0.00    +0.277 C 
ENDBRANCH  27  32
ENDBRANCH  23  24
ENDBRANCH  22  23
ENDBRANCH  20  22
ENDBRANCH   9  18
BRANCH   8  34
ATOM     34  N   UNL     1       1.972  -4.451  -4.702  0.00  0.00    -0.356 N 
ATOM     35  H   UNL     1       1.845  -3.506  -4.880  0.00  0.00    +0.142 HD
ATOM     36  H   UNL     1       2.195  -5.056  -5.427  0.00  0.00    +0.142 HD
ENDBRANCH   8  34
TORSDOF 8
