REMARK  Name = ZINC03305838
REMARK  12 active torsions:
REMARK  status: ('A' for Active; 'I' for Inactive)
REMARK    1  A    between atoms: C_1  and  C_2
REMARK    2  A    between atoms: C_2  and  C_3
REMARK    3  A    between atoms: C_2  and  C_4
REMARK    4  A    between atoms: C_4  and  C_5
REMARK    5  A    between atoms: C_5  and  N_6
REMARK    6  A    between atoms: N_6  and  C_7
REMARK    7  A    between atoms: N_6  and  C_24
REMARK    8  A    between atoms: C_8  and  N_23
REMARK    9  A    between atoms: N_9  and  C_16
REMARK   10  A    between atoms: C_16  and  C_17
REMARK   11  A    between atoms: C_24  and  N_26
REMARK   12  A    between atoms: C_27  and  C_29
REMARK                            x       y       z     vdW  Elec       q    Type
REMARK                         _______ _______ _______ _____ _____    ______ ____
ROOT
ATOM      1  C   UNL     1      -4.622  -0.087  -0.732  0.00  0.00    +0.139 A 
ATOM      2  C   UNL     1      -5.152   1.109  -1.169  0.00  0.00    +0.128 A 
ATOM      3  N   UNL     1      -6.290   1.598  -0.571  0.00  0.00    -0.276 N 
ATOM      4  C   UNL     1      -6.879   0.918   0.430  0.00  0.00    +0.331 A 
ATOM      5  O   UNL     1      -7.885   1.367   0.946  0.00  0.00    -0.246 OA
ATOM      6  N   UNL     1      -6.377  -0.250   0.869  0.00  0.00    -0.273 N 
ATOM      7  H   UNL     1      -6.820  -0.721   1.591  0.00  0.00    +0.173 HD
ATOM      8  C   UNL     1      -5.267  -0.775   0.313  0.00  0.00    +0.277 A 
ATOM      9  O   UNL     1      -4.823  -1.837   0.716  0.00  0.00    -0.266 OA
ENDROOT
BRANCH   2  10
ATOM     10  N   UNL     1      -4.551   1.804  -2.191  0.00  0.00    -0.343 N 
ATOM     11  H   UNL     1      -3.711   1.491  -2.562  0.00  0.00    +0.144 HD
ATOM     12  H   UNL     1      -4.966   2.607  -2.542  0.00  0.00    +0.144 HD
ENDBRANCH   2  10
BRANCH   1  13
ATOM     13  N   UNL     1      -3.456  -0.616  -1.326  0.00  0.00    -0.275 N 
BRANCH  13  14
ATOM     14  C   UNL     1      -3.516  -1.770  -2.019  0.00  0.00    +0.144 C 
ATOM     15  S   UNL     1      -5.029  -2.523  -2.299  0.00  0.00    -0.018 S 
BRANCH  14  16
ATOM     16  N   UNL     1      -2.386  -2.333  -2.491  0.00  0.00    -0.267 N 
ATOM     17  C   UNL     1      -2.447  -3.488  -3.183  0.00  0.00    +0.222 C 
ATOM     18  O   UNL     1      -3.518  -4.020  -3.382  0.00  0.00    -0.275 OA
ATOM     19  H   UNL     1      -1.530  -1.907  -2.332  0.00  0.00    +0.157 HD
BRANCH  17  20
ATOM     20  C   UNL     1      -1.183  -4.117  -3.711  0.00  0.00    +0.075 C 
ATOM     21  C   UNL     1      -0.245  -4.434  -2.545  0.00  0.00    +0.013 C 
ATOM     22  C   UNL     1       1.038  -5.072  -3.081  0.00  0.00    +0.001 C 
ATOM     23  C   UNL     1       0.692  -6.365  -3.824  0.00  0.00    +0.000 C 
ATOM     24  C   UNL     1      -0.245  -6.047  -4.990  0.00  0.00    +0.001 C 
ATOM     25  C   UNL     1      -1.528  -5.409  -4.454  0.00  0.00    +0.013 C 
ENDBRANCH  17  20
ENDBRANCH  14  16
ENDBRANCH  13  14
BRANCH  13  26
ATOM     26  C   UNL     1      -2.180   0.091  -1.190  0.00  0.00    +0.113 C 
BRANCH  26  27
ATOM     27  C   UNL     1      -1.509  -0.315   0.124  0.00  0.00    +0.022 C 
BRANCH  27  29
ATOM     28  C   UNL     1      -0.437   1.925   0.391  0.00  0.00    +0.007 C 
ATOM     29  C   UNL     1      -0.177   0.423   0.266  0.00  0.00    -0.016 C 
ATOM     30  C   UNL     1       0.551  -0.075   1.516  0.00  0.00    +0.007 C 
ENDBRANCH  27  29
ENDBRANCH  26  27
ENDBRANCH  13  26
ENDBRANCH   1  13
BRANCH   3  31
ATOM     31  C   UNL     1      -6.864   2.867  -1.025  0.00  0.00    +0.163 C 
BRANCH  31  32
ATOM     32  C   UNL     1      -7.859   2.603  -2.126  0.00  0.00    -0.028 A 
ATOM     33  C   UNL     1      -7.441   2.580  -3.443  0.00  0.00    +0.005 A 
ATOM     34  C   UNL     1      -8.353   2.339  -4.454  0.00  0.00    +0.000 A 
ATOM     35  C   UNL     1      -9.683   2.119  -4.146  0.00  0.00    +0.000 A 
ATOM     36  C   UNL     1     -10.100   2.141  -2.828  0.00  0.00    +0.000 A 
ATOM     37  C   UNL     1      -9.187   2.379  -1.818  0.00  0.00    +0.005 A 
ENDBRANCH  31  32
ENDBRANCH   3  31
TORSDOF 10
