REMARK  Name = ZINC22283929
REMARK  9 active torsions:
REMARK  status: ('A' for Active; 'I' for Inactive)
REMARK    1  A    between atoms: C_1  and  C_2
REMARK    2  A    between atoms: C_2  and  N_3
REMARK    3  A    between atoms: C_6  and  C_19
REMARK    4  A    between atoms: C_7  and  N_18
REMARK    5  A    between atoms: N_8  and  C_11
REMARK    6  A    between atoms: C_11  and  C_12
REMARK    7  A    between atoms: C_19  and  C_21
REMARK    8  A    between atoms: C_21  and  S_22
REMARK    9  A    between atoms: S_22  and  C_23
REMARK                            x       y       z     vdW  Elec       q    Type
REMARK                         _______ _______ _______ _____ _____    ______ ____
ROOT
ATOM      1  N   UNL     1       0.125   0.947   2.333  0.00  0.00    -0.260 N 
ATOM      2  C   UNL     1      -0.327  -0.140   2.993  0.00  0.00    +0.269 A 
ATOM      3  O   UNL     1      -1.192  -0.846   2.508  0.00  0.00    -0.267 OA
ATOM      4  C   UNL     1       0.249  -0.455   4.306  0.00  0.00    +0.121 A 
ATOM      5  C   UNL     1       1.240   0.404   4.812  0.00  0.00    +0.116 A 
ATOM      6  N   UNL     1       1.623   1.482   4.066  0.00  0.00    -0.277 N 
ATOM      7  C   UNL     1       1.074   1.732   2.867  0.00  0.00    +0.334 A 
ATOM      8  O   UNL     1       1.450   2.704   2.242  0.00  0.00    -0.246 OA
ENDROOT
BRANCH   5   9
ATOM      9  N   UNL     1       1.807   0.166   6.026  0.00  0.00    -0.344 N 
ATOM     10  H   UNL     1       2.581   0.845   6.414  0.00  0.00    +0.144 HD
ATOM     11  H   UNL     1       1.491  -0.704   6.620  0.00  0.00    +0.144 HD
ENDBRANCH   5   9
BRANCH   1  13
ATOM     12  C   UNL     1       0.392   0.593  -0.072  0.00  0.00    +0.027 C 
ATOM     13  C   UNL     1      -0.432   1.278   1.019  0.00  0.00    +0.126 C 
ENDBRANCH   1  13
BRANCH   4  14
ATOM     14  C   UNL     1      -0.181  -1.582   5.038  0.00  0.00    +0.182 C 
ATOM     15  O   UNL     1       0.379  -1.884   6.073  0.00  0.00    -0.291 OA
BRANCH  14  16
ATOM     16  C   UNL     1      -1.335  -2.411   4.537  0.00  0.00    +0.157 C 
BRANCH  16  17
ATOM     17  S   UNL     1      -1.643  -3.774   5.687  0.00  0.00    -0.078 S 
BRANCH  17  18
ATOM     18  C   UNL     1      -3.001  -4.555   4.879  0.00  0.00    +0.191 A 
ATOM     19  N   UNL     1      -3.542  -5.641   5.417  0.00  0.00    -0.207 NA
ATOM     20  C   UNL     1      -4.565  -6.267   4.860  0.00  0.00    +0.129 A 
ATOM     21  C   UNL     1      -5.102  -5.772   3.638  0.00  0.00    +0.047 A 
ATOM     22  C   UNL     1      -6.205  -6.278   2.838  0.00  0.00    +0.021 A 
ATOM     23  C   UNL     1      -6.539  -5.641   1.707  0.00  0.00    +0.048 A 
ATOM     24  S   UNL     1      -5.377  -4.291   1.631  0.00  0.00    -0.077 S 
ATOM     25  C   UNL     1      -4.474  -4.619   3.121  0.00  0.00    +0.114 A 
ATOM     26  N   UNL     1      -3.459  -4.050   3.742  0.00  0.00    -0.215 NA
ATOM     27  N   UNL     1      -5.105  -7.392   5.456  0.00  0.00    -0.343 N 
ATOM     28  H   UNL     1      -5.956  -7.908   4.987  0.00  0.00    +0.144 HD
ATOM     29  H   UNL     1      -4.683  -7.771   6.398  0.00  0.00    +0.144 HD
ENDBRANCH  17  18
ENDBRANCH  16  17
ENDBRANCH  14  16
ENDBRANCH   4  14
BRANCH   6  30
ATOM     30  C   UNL     1       2.655   2.384   4.585  0.00  0.00    +0.163 C 
BRANCH  30  31
ATOM     31  C   UNL     1       2.006   3.482   5.387  0.00  0.00    -0.028 A 
ATOM     32  C   UNL     1       1.625   4.657   4.767  0.00  0.00    +0.005 A 
ATOM     33  C   UNL     1       1.025   5.663   5.501  0.00  0.00    +0.000 A 
ATOM     34  C   UNL     1       0.815   5.497   6.858  0.00  0.00    +0.000 A 
ATOM     35  C   UNL     1       1.200   4.324   7.478  0.00  0.00    +0.000 A 
ATOM     36  C   UNL     1       1.796   3.316   6.743  0.00  0.00    +0.005 A 
ENDBRANCH  30  31
ENDBRANCH   6  30
TORSDOF 8
