REMARK  Name = ZINC39933211
REMARK  1 active torsions:
REMARK  status: ('A' for Active; 'I' for Inactive)
REMARK    1  A    between atoms: C_8  and  C_10
REMARK                            x       y       z     vdW  Elec       q    Type
REMARK                         _______ _______ _______ _____ _____    ______ ____
ROOT
ATOM      1  C   UNL     1      -0.016   1.346   0.009  0.00  0.00    +0.099 A 
ATOM      2  N   UNL     1      -1.214   2.007   0.019  0.00  0.00    -0.314 N 
ATOM      3  C   UNL     1      -2.374   1.325   0.021  0.00  0.00    +0.327 A 
ATOM      4  O   UNL     1      -3.427   1.933   0.029  0.00  0.00    -0.247 OA
ATOM      5  N   UNL     1      -2.384  -0.021   0.013  0.00  0.00    -0.275 N 
ATOM      6  C   UNL     1      -1.225  -0.710   0.004  0.00  0.00    +0.260 A 
ATOM      7  O   UNL     1      -1.234  -1.927  -0.003  0.00  0.00    -0.267 OA
ATOM      8  C   UNL     1       0.002  -0.004   0.002  0.00  0.00    +0.065 A 
ATOM      9  H   UNL     1      -1.227   2.977   0.024  0.00  0.00    +0.170 HD
ATOM     10  H   UNL     1      -3.229  -0.497   0.014  0.00  0.00    +0.173 HD
ENDROOT
BRANCH   8  11
ATOM     11  C   UNL     1       1.312  -0.750  -0.014  0.00  0.00    +0.193 C 
ATOM     12  N   UNL     1       1.373  -1.701  -1.145  0.00  0.00    -0.224 NA
ATOM     13  C   UNL     1       1.489  -3.029  -0.798  0.00  0.00    +0.098 C 
ATOM     14  C   UNL     1       1.542  -3.433   0.461  0.00  0.00    +0.075 C 
ATOM     15  S   UNL     1       1.431  -1.918   1.402  0.00  0.00    -0.101 S 
ATOM     16 BR   UNL     1       1.576  -4.323  -2.174  0.00  0.00    -0.031 Br
ENDBRANCH   8  11
TORSDOF 1
