REMARK  Name = ZINC36556560
REMARK  13 active torsions:
REMARK  status: ('A' for Active; 'I' for Inactive)
REMARK    1  A    between atoms: C_1  and  C_2
REMARK    2  A    between atoms: C_7  and  C_8
REMARK    3  A    between atoms: C_8  and  C_9
REMARK    4  A    between atoms: N_11  and  C_12
REMARK    5  A    between atoms: N_11  and  C_19
REMARK    6  A    between atoms: C_12  and  C_13
REMARK    7  A    between atoms: C_16  and  C_18
REMARK    8  A    between atoms: C_19  and  C_21
REMARK    9  A    between atoms: C_19  and  C_30
REMARK   10  A    between atoms: C_22  and  O_29
REMARK   11  A    between atoms: C_24  and  O_28
REMARK   12  A    between atoms: C_26  and  O_27
REMARK   13  A    between atoms: N_32  and  C_33
REMARK                            x       y       z     vdW  Elec       q    Type
REMARK                         _______ _______ _______ _____ _____    ______ ____
ROOT
ATOM      1  C   UNL     1      -2.989   1.073   4.311  0.00  0.00    +0.200 C 
ENDROOT
BRANCH   1   2
ATOM      2  C   UNL     1      -2.444   2.370   4.852  0.00  0.00    +0.065 A 
ATOM      3  C   UNL     1      -1.373   2.359   5.732  0.00  0.00    +0.129 A 
ATOM      4  C   UNL     1      -0.872   3.552   6.230  0.00  0.00    +0.091 A 
ATOM      5  C   UNL     1      -1.442   4.757   5.848  0.00  0.00    +0.124 A 
ATOM      6  C   UNL     1      -2.513   4.768   4.967  0.00  0.00    +0.091 A 
ATOM      7  C   UNL     1      -3.011   3.575   4.465  0.00  0.00    +0.129 A 
BRANCH   7   8
ATOM      8  O   UNL     1      -4.057   3.587   3.598  0.00  0.00    -0.506 OA
ATOM      9  H   UNL     1      -4.923   3.543   4.027  0.00  0.00    +0.292 HD
ENDBRANCH   7   8
BRANCH   5  10
ATOM     10  O   UNL     1      -0.951   5.926   6.337  0.00  0.00    -0.507 OA
ATOM     11  H   UNL     1      -0.248   6.314   5.797  0.00  0.00    +0.292 HD
ENDBRANCH   5  10
BRANCH   3  12
ATOM     12  O   UNL     1      -0.814   1.178   6.107  0.00  0.00    -0.506 OA
ATOM     13  H   UNL     1      -0.036   0.929   5.590  0.00  0.00    +0.292 HD
ENDBRANCH   3  12
ENDBRANCH   1   2
BRANCH   1  14
ATOM     14  C   UNL     1      -3.836   0.406   5.363  0.00  0.00    +0.239 C 
ATOM     15  O   UNL     1      -3.310  -0.226   6.254  0.00  0.00    -0.273 OA
ATOM     16  N   UNL     1      -5.179   0.512   5.314  0.00  0.00    -0.311 N 
ATOM     17  H   UNL     1      -5.600   1.018   4.601  0.00  0.00    +0.149 HD
BRANCH  16  18
ATOM     18  C   UNL     1      -6.003  -0.136   6.337  0.00  0.00    +0.073 C 
ATOM     19  C   UNL     1      -6.250  -1.594   5.944  0.00  0.00    +0.022 C 
ATOM     20  C   UNL     1      -7.111  -2.271   7.013  0.00  0.00    +0.002 C 
ATOM     21  C   UNL     1      -8.450  -1.539   7.128  0.00  0.00    +0.000 C 
ATOM     22  C   UNL     1      -8.202  -0.082   7.522  0.00  0.00    +0.002 C 
ATOM     23  C   UNL     1      -7.342   0.596   6.453  0.00  0.00    +0.022 C 
ENDBRANCH  16  18
ENDBRANCH   1  14
BRANCH   1  26
ATOM     24  C   UNL     1      -0.911   0.631   3.118  0.00  0.00    +0.221 C 
ATOM     25  O   UNL     1      -0.961   1.758   2.671  0.00  0.00    -0.275 OA
ATOM     26  N   UNL     1      -1.877   0.191   3.947  0.00  0.00    -0.278 N 
BRANCH  24  27
ATOM     27  C   UNL     1       0.233  -0.277   2.744  0.00  0.00    +0.131 C 
BRANCH  27  34
ATOM     28  C   UNL     1       2.302   1.430   3.817  0.00  0.00    +0.044 C 
ATOM     29  C   UNL     1       2.158   1.267   2.326  0.00  0.00    -0.047 A 
ATOM     30  C   UNL     1       3.019   1.930   1.471  0.00  0.00    +0.003 A 
ATOM     31  C   UNL     1       2.887   1.780   0.104  0.00  0.00    +0.000 A 
ATOM     32  C   UNL     1       1.893   0.968  -0.410  0.00  0.00    +0.000 A 
ATOM     33  C   UNL     1       1.033   0.305   0.444  0.00  0.00    +0.004 A 
ATOM     34  C   UNL     1       1.168   0.451   1.812  0.00  0.00    -0.036 A 
ENDBRANCH  27  34
ENDBRANCH  24  27
BRANCH  26  35
ATOM     35  C   UNL     1      -1.816  -1.170   4.486  0.00  0.00    +0.183 C 
BRANCH  35  36
ATOM     36  C   UNL     1      -0.710  -1.258   5.506  0.00  0.00    +0.122 A 
ATOM     37  C   UNL     1      -0.860  -1.153   6.839  0.00  0.00    +0.046 A 
ATOM     38  C   UNL     1       0.427  -1.294   7.408  0.00  0.00    +0.045 A 
ATOM     39  C   UNL     1       1.286  -1.476   6.389  0.00  0.00    +0.102 A 
ATOM     40  O   UNL     1       0.590  -1.459   5.240  0.00  0.00    -0.463 OA
ATOM     41  C   UNL     1       2.775  -1.671   6.515  0.00  0.00    +0.086 C 
ENDBRANCH  35  36
ENDBRANCH  26  35
ENDBRANCH   1  26
TORSDOF 11
