REMARK  Name = ZINC05242358
REMARK  7 active torsions:
REMARK  status: ('A' for Active; 'I' for Inactive)
REMARK    1  A    between atoms: C_1  and  O_2
REMARK    2  A    between atoms: O_2  and  C_3
REMARK    3  A    between atoms: C_3  and  C_5
REMARK    4  A    between atoms: C_10  and  N_27
REMARK    5  A    between atoms: C_11  and  C_25
REMARK    6  A    between atoms: C_12  and  C_20
REMARK    7  A    between atoms: C_14  and  C_17
REMARK                            x       y       z     vdW  Elec       q    Type
REMARK                         _______ _______ _______ _____ _____    ______ ____
ROOT
ATOM      1  C   UNL     1       1.302   6.420   0.525  0.00  0.00    +0.103 C 
ATOM      2  C   UNL     1       2.160   5.689  -0.227  0.00  0.00    +0.090 C 
ATOM      3  C   UNL     1       2.183   4.237  -0.192  0.00  0.00    +0.251 C 
ATOM      4  O   UNL     1       3.207   3.667  -0.522  0.00  0.00    -0.270 OA
ATOM      5  N   UNL     1       1.133   3.493   0.185  0.00  0.00    -0.217 N 
ATOM      6  C   UNL     1       1.154   2.120   0.002  0.00  0.00    +0.110 C 
ATOM      7  C   UNL     1      -0.017   1.439  -0.129  0.00  0.00    +0.078 C 
ATOM      8  C   UNL     1      -1.331   2.174  -0.119  0.00  0.00    +0.107 C 
ATOM      9  C   UNL     1      -1.194   3.454   0.672  0.00  0.00    +0.056 C 
ATOM     10  C   UNL     1       0.019   4.070   0.756  0.00  0.00    +0.090 C 
ATOM     11  S   UNL     1       0.183   5.601   1.616  0.00  0.00    -0.066 S 
ENDROOT
BRANCH   9  12
ATOM     12  C   UNL     1      -2.311   4.010   1.313  0.00  0.00    +0.241 C 
ATOM     13  O   UNL     1      -2.198   5.045   1.947  0.00  0.00    -0.271 OA
ATOM     14  N   UNL     1      -3.510   3.399   1.229  0.00  0.00    -0.326 N 
ATOM     15  H   UNL     1      -3.600   2.575   0.724  0.00  0.00    +0.145 HD
ATOM     16  H   UNL     1      -4.282   3.783   1.672  0.00  0.00    +0.145 HD
ENDBRANCH   9  12
BRANCH   8  17
ATOM     17  C   UNL     1      -1.736   2.496  -1.535  0.00  0.00    +0.003 A 
ATOM     18  C   UNL     1      -2.844   2.112  -2.214  0.00  0.00    +0.012 A 
ATOM     19  C   UNL     1      -3.010   2.535  -3.519  0.00  0.00    +0.008 A 
ATOM     20  C   UNL     1      -2.055   3.312  -4.085  0.00  0.00    +0.045 A 
ATOM     21  S   UNL     1      -0.875   3.474  -2.755  0.00  0.00    -0.101 S 
ENDBRANCH   8  17
BRANCH   6  22
ATOM     22  N   UNL     1       2.352   1.449  -0.046  0.00  0.00    -0.345 N 
ATOM     23  H   UNL     1       2.394   0.559  -0.428  0.00  0.00    +0.144 HD
ATOM     24  H   UNL     1       3.156   1.866   0.303  0.00  0.00    +0.144 HD
ENDBRANCH   6  22
BRANCH   1  25
ATOM     25  C   UNL     1       1.304   7.899   0.433  0.00  0.00    +0.346 C 
ATOM     26  O   UNL     1       2.076   8.459  -0.319  0.00  0.00    -0.244 OA
BRANCH  25  28
ATOM     27  C   UNL     1       0.508  10.066   1.040  0.00  0.00    +0.280 C 
ATOM     28  O   UNL     1       0.450   8.622   1.182  0.00  0.00    -0.464 OA
ENDBRANCH  25  28
ENDBRANCH   1  25
BRANCH   7  29
ATOM     29  C   UNL     1       0.002   0.015  -0.283  0.00  0.00    +0.099 C 
ATOM     30  N   UNL     1       0.016  -1.114  -0.406  0.00  0.00    -0.191 NA
ENDBRANCH   7  29
TORSDOF 6
