REMARK  Name = ZINC12710033
REMARK  9 active torsions:
REMARK  status: ('A' for Active; 'I' for Inactive)
REMARK    1  A    between atoms: C_3  and  C_6
REMARK    2  A    between atoms: C_6  and  N_7
REMARK    3  A    between atoms: N_7  and  C_8
REMARK    4  A    between atoms: C_8  and  C_9
REMARK    5  A    between atoms: N_11  and  C_12
REMARK    6  A    between atoms: C_18  and  C_20
REMARK    7  A    between atoms: C_21  and  N_34
REMARK    8  A    between atoms: C_22  and  C_25
REMARK    9  A    between atoms: N_27  and  C_28
REMARK                            x       y       z     vdW  Elec       q    Type
REMARK                         _______ _______ _______ _____ _____    ______ ____
ROOT
ATOM      1  N   UNL     1      -3.582   1.819  -0.017  0.00  0.00    -0.283 N 
ATOM      2  C   UNL     1      -4.021   2.426   1.104  0.00  0.00    +0.257 C 
ATOM      3  O   UNL     1      -3.500   2.175   2.175  0.00  0.00    -0.269 OA
ENDROOT
BRANCH   2   4
ATOM      4  C   UNL     1      -5.124   3.386   1.033  0.00  0.00    +0.115 A 
ATOM      5  C   UNL     1      -5.791   4.045   2.067  0.00  0.00    +0.076 A 
ATOM      6  C   UNL     1      -6.796   4.891   1.599  0.00  0.00    +0.156 A 
ATOM      7  N   UNL     1      -7.009   4.984   0.305  0.00  0.00    -0.203 NA
ATOM      8  S   UNL     1      -5.968   4.031  -0.396  0.00  0.00    +0.019 S 
BRANCH   6   9
ATOM      9  C   UNL     1      -7.612   5.673   2.547  0.00  0.00    +0.265 C 
ATOM     10  O   UNL     1      -7.410   5.582   3.742  0.00  0.00    -0.268 OA
ATOM     11  N   UNL     1      -8.582   6.489   2.087  0.00  0.00    -0.307 N 
ATOM     12  H   UNL     1      -8.743   6.562   1.133  0.00  0.00    +0.149 HD
BRANCH  11  13
ATOM     13  C   UNL     1      -9.392   7.266   3.029  0.00  0.00    +0.073 C 
ATOM     14  C   UNL     1     -10.555   6.407   3.529  0.00  0.00    +0.022 C 
ATOM     15  C   UNL     1     -11.402   7.219   4.512  0.00  0.00    +0.002 C 
ATOM     16  C   UNL     1     -11.951   8.461   3.808  0.00  0.00    +0.000 C 
ATOM     17  C   UNL     1     -10.788   9.319   3.307  0.00  0.00    +0.002 C 
ATOM     18  C   UNL     1      -9.941   8.508   2.324  0.00  0.00    +0.022 C 
ENDBRANCH  11  13
ENDBRANCH   6   9
BRANCH   5  19
ATOM     19  N   UNL     1      -5.488   3.876   3.411  0.00  0.00    -0.355 N 
ATOM     20  H   UNL     1      -4.776   3.272   3.676  0.00  0.00    +0.142 HD
ATOM     21  H   UNL     1      -5.988   4.362   4.086  0.00  0.00    +0.142 HD
ENDBRANCH   5  19
ENDBRANCH   2   4
BRANCH   1  22
ATOM     22  C   UNL     1      -4.125   2.208  -1.321  0.00  0.00    +0.151 C 
BRANCH  22  25
ATOM     23  C   UNL     1      -1.774   4.660  -3.043  0.00  0.00    +0.008 A 
ATOM     24  C   UNL     1      -2.312   3.436  -2.693  0.00  0.00    +0.013 A 
ATOM     25  C   UNL     1      -3.369   3.401  -1.845  0.00  0.00    +0.007 A 
ATOM     26  S   UNL     1      -3.627   5.134  -1.505  0.00  0.00    -0.100 S 
ATOM     27  C   UNL     1      -2.313   5.789  -2.521  0.00  0.00    +0.045 A 
ENDBRANCH  22  25
ENDBRANCH   1  22
BRANCH   1  28
ATOM     28  C   UNL     1      -2.561   0.771   0.069  0.00  0.00    +0.204 C 
BRANCH  28  29
ATOM     29  C   UNL     1      -1.193   1.394  -0.034  0.00  0.00    +0.231 C 
ATOM     30  O   UNL     1      -1.081   2.594  -0.166  0.00  0.00    -0.274 OA
ATOM     31  N   UNL     1      -0.093   0.616   0.020  0.00  0.00    -0.311 N 
ATOM     32  H   UNL     1      -0.183  -0.344   0.125  0.00  0.00    +0.149 HD
BRANCH  31  33
ATOM     33  C   UNL     1       1.237   1.220  -0.086  0.00  0.00    +0.073 C 
ATOM     34  C   UNL     1       1.603   1.392  -1.562  0.00  0.00    +0.022 C 
ATOM     35  C   UNL     1       2.993   2.023  -1.673  0.00  0.00    +0.002 C 
ATOM     36  C   UNL     1       4.021   1.115  -0.994  0.00  0.00    +0.000 C 
ATOM     37  C   UNL     1       3.655   0.944   0.481  0.00  0.00    +0.002 C 
ATOM     38  C   UNL     1       2.265   0.313   0.592  0.00  0.00    +0.022 C 
ENDBRANCH  31  33
ENDBRANCH  28  29
ENDBRANCH   1  28
TORSDOF 9
