REMARK  Name = ZINC43553319
REMARK  9 active torsions:
REMARK  status: ('A' for Active; 'I' for Inactive)
REMARK    1  A    between atoms: C_1  and  C_2
REMARK    2  A    between atoms: C_13  and  C_35
REMARK    3  A    between atoms: C_14  and  C_16
REMARK    4  A    between atoms: C_16  and  C_17
REMARK    5  A    between atoms: N_19  and  C_20
REMARK    6  A    between atoms: C_28  and  O_34
REMARK    7  A    between atoms: C_30  and  C_31
REMARK    8  A    between atoms: C_30  and  C_32
REMARK    9  A    between atoms: C_32  and  O_33
REMARK                            x       y       z     vdW  Elec       q    Type
REMARK                         _______ _______ _______ _____ _____    ______ ____
ROOT
ATOM      1  C   UNL     1      -0.240   1.516  -1.013  0.00  0.00    +0.109 C 
ATOM      2  C   UNL     1      -0.212   0.021  -0.828  0.00  0.00    +0.216 C 
ATOM      3  O   UNL     1       0.847  -0.570  -0.826  0.00  0.00    -0.276 OA
ATOM      4  N   UNL     1      -1.364  -0.659  -0.663  0.00  0.00    -0.265 N 
ATOM      5  C   UNL     1      -1.339  -2.038  -0.492  0.00  0.00    +0.165 A 
ATOM      6  N   UNL     1      -2.353  -2.858  -0.319  0.00  0.00    -0.229 NA
ATOM      7  C   UNL     1      -2.173  -4.164  -0.161  0.00  0.00    +0.058 A 
ATOM      8  C   UNL     1      -0.883  -4.582  -0.200  0.00  0.00    +0.015 A 
ATOM      9  S   UNL     1      -0.003  -3.065  -0.455  0.00  0.00    -0.057 S 
ATOM     10  C   UNL     1      -0.368  -5.969  -0.063  0.00  0.00    +0.049 C 
ATOM     11  C   UNL     1      -1.491  -6.985   0.221  0.00  0.00    +0.011 C 
ATOM     12  C   UNL     1      -2.790  -6.558  -0.452  0.00  0.00    -0.019 C 
ATOM     13  C   UNL     1      -3.261  -5.194   0.065  0.00  0.00    +0.054 C 
ATOM     14  C   UNL     1      -2.594  -6.554  -1.963  0.00  0.00    +0.010 C 
ATOM     15  C   UNL     1      -2.270  -7.973  -2.433  0.00  0.00    +0.032 C 
ATOM     16  C   UNL     1      -1.029  -8.525  -1.758  0.00  0.00    +0.123 C 
ATOM     17  C   UNL     1      -0.988  -8.349  -0.249  0.00  0.00    +0.021 C 
ATOM     18  C   UNL     1      -1.728  -9.504   0.439  0.00  0.00    +0.016 C 
ATOM     19  C   UNL     1      -3.941  -7.516  -0.108  0.00  0.00    +0.012 C 
ATOM     20  H   UNL     1      -2.211  -0.186  -0.664  0.00  0.00    +0.157 HD
ENDROOT
BRANCH  16  21
ATOM     21  O   UNL     1       0.141  -7.952  -2.354  0.00  0.00    -0.391 OA
ATOM     22  H   UNL     1       0.229  -8.133  -3.300  0.00  0.00    +0.210 HD
ENDBRANCH  16  21
BRANCH  13  23
ATOM     23  C   UNL     1      -4.552  -4.771  -0.628  0.00  0.00    +0.106 C 
BRANCH  23  24
ATOM     24  C   UNL     1      -5.098  -3.534   0.036  0.00  0.00    +0.218 C 
ATOM     25  O   UNL     1      -4.509  -3.040   0.974  0.00  0.00    -0.275 OA
ATOM     26  N   UNL     1      -6.240  -2.977  -0.411  0.00  0.00    -0.285 N 
ATOM     27  H   UNL     1      -6.750  -3.411  -1.113  0.00  0.00    +0.155 HD
BRANCH  26  28
ATOM     28  C   UNL     1      -6.692  -1.771   0.137  0.00  0.00    +0.033 A 
ATOM     29  C   UNL     1      -7.340  -0.841  -0.666  0.00  0.00    +0.023 A 
ATOM     30  C   UNL     1      -7.785   0.348  -0.123  0.00  0.00    +0.002 A 
ATOM     31  C   UNL     1      -7.585   0.614   1.220  0.00  0.00    +0.000 A 
ATOM     32  C   UNL     1      -6.939  -0.309   2.022  0.00  0.00    +0.002 A 
ATOM     33  C   UNL     1      -6.498  -1.503   1.485  0.00  0.00    +0.023 A 
ENDBRANCH  26  28
ENDBRANCH  23  24
ENDBRANCH  13  23
BRANCH  17  34
ATOM     34  C   UNL     1       0.493  -8.497   0.187  0.00  0.00    +0.165 C 
BRANCH  34  35
ATOM     35  O   UNL     1       0.991  -9.767  -0.240  0.00  0.00    -0.394 OA
ATOM     36  H   UNL     1       1.914  -9.928  -0.001  0.00  0.00    +0.209 HD
ENDBRANCH  34  35
ENDBRANCH  17  34
TORSDOF 6
