REMARK  Name = ZINC05128777
REMARK  7 active torsions:
REMARK  status: ('A' for Active; 'I' for Inactive)
REMARK    1  A    between atoms: C_1  and  C_2
REMARK    2  A    between atoms: C_2  and  C_3
REMARK    3  A    between atoms: C_3  and  N_4
REMARK    4  A    between atoms: N_12  and  N_13
REMARK    5  A    between atoms: C_14  and  C_16
REMARK    6  A    between atoms: C_18  and  N_23
REMARK    7  A    between atoms: C_21  and  O_22
REMARK                            x       y       z     vdW  Elec       q    Type
REMARK                         _______ _______ _______ _____ _____    ______ ____
ROOT
ATOM      1  N   UNL     1       8.195   2.539  -0.357  0.00  0.00    -0.266 N 
ATOM      2  C   UNL     1       7.523   3.755  -0.286  0.00  0.00    +0.046 A 
ATOM      3  C   UNL     1       7.982   5.067  -0.326  0.00  0.00    +0.025 A 
ATOM      4  C   UNL     1       7.090   6.116  -0.235  0.00  0.00    +0.022 A 
ATOM      5  C   UNL     1       5.731   5.878  -0.105  0.00  0.00    +0.042 A 
ATOM      6  C   UNL     1       5.257   4.581  -0.064  0.00  0.00    +0.032 A 
ATOM      7  C   UNL     1       6.149   3.518  -0.154  0.00  0.00    +0.030 A 
ATOM      8  C   UNL     1       5.978   2.046  -0.144  0.00  0.00    +0.153 C 
ATOM      9  N   UNL     1       4.857   1.374  -0.038  0.00  0.00    -0.174 NA
ATOM     10  C   UNL     1       7.344   1.502  -0.273  0.00  0.00    +0.271 C 
ATOM     11  O   UNL     1       7.646   0.324  -0.301  0.00  0.00    -0.268 OA
ATOM     12 CL   UNL     1       4.623   7.210   0.008  0.00  0.00    -0.084 Cl
ENDROOT
BRANCH   9  13
ATOM     13  N   UNL     1       3.656   2.049   0.217  0.00  0.00    -0.202 N 
ATOM     14  C   UNL     1       2.489   1.376   0.204  0.00  0.00    +0.267 C 
ATOM     15  O   UNL     1       2.477   0.183  -0.029  0.00  0.00    -0.268 OA
ATOM     16  H   UNL     1       3.665   3.001   0.402  0.00  0.00    +0.178 HD
BRANCH  14  17
ATOM     17  C   UNL     1       1.225   2.086   0.472  0.00  0.00    +0.081 A 
ATOM     18  C   UNL     1       1.234   3.458   0.740  0.00  0.00    +0.039 A 
ATOM     19  C   UNL     1       0.043   4.118   0.990  0.00  0.00    +0.025 A 
ATOM     20  C   UNL     1      -1.160   3.419   0.976  0.00  0.00    +0.026 A 
ATOM     21  C   UNL     1      -1.176   2.066   0.707  0.00  0.00    +0.048 A 
ATOM     22  C   UNL     1       0.009   1.390   0.460  0.00  0.00    +0.129 A 
BRANCH  19  23
ATOM     23  N   UNL     1       0.050   5.492   1.258  0.00  0.00    -0.358 N 
ATOM     24  H   UNL     1       0.888   5.980   1.269  0.00  0.00    +0.142 HD
ATOM     25  H   UNL     1      -0.784   5.955   1.434  0.00  0.00    +0.142 HD
ENDBRANCH  19  23
BRANCH  22  26
ATOM     26  O   UNL     1      -0.009   0.057   0.201  0.00  0.00    -0.506 OA
ATOM     27  H   UNL     1       0.073  -0.498   0.989  0.00  0.00    +0.292 HD
ENDBRANCH  22  26
ENDBRANCH  14  17
ENDBRANCH   9  13
BRANCH   1  28
ATOM     28  C   UNL     1       9.647   2.405  -0.498  0.00  0.00    +0.114 C 
BRANCH  28  30
ATOM     29  C   UNL     1      11.808   2.213   0.741  0.00  0.00    +0.005 C 
ATOM     30  C   UNL     1      10.291   2.353   0.889  0.00  0.00    +0.016 C 
ENDBRANCH  28  30
ENDBRANCH   1  28
TORSDOF 6
