REMARK  Name = ZINC40159226
REMARK  7 active torsions:
REMARK  status: ('A' for Active; 'I' for Inactive)
REMARK    1  A    between atoms: C_1  and  C_2
REMARK    2  A    between atoms: C_2  and  C_4
REMARK    3  A    between atoms: C_2  and  S_24
REMARK    4  A    between atoms: C_7  and  C_19
REMARK    5  A    between atoms: C_10  and  C_12
REMARK    6  A    between atoms: S_24  and  C_25
REMARK    7  A    between atoms: C_29  and  N_31
REMARK                            x       y       z     vdW  Elec       q    Type
REMARK                         _______ _______ _______ _____ _____    ______ ____
ROOT
ATOM      1  C   UNL     1       0.731  -0.503   1.223  0.00  0.00    +0.249 C 
ATOM      2  O   UNL     1       0.105  -0.891   2.187  0.00  0.00    -0.273 OA
ATOM      3  N   UNL     1       2.079  -0.519   1.244  0.00  0.00    -0.181 N 
ATOM      4  C   UNL     1       2.912  -0.984   2.364  0.00  0.00    +0.173 C 
ATOM      5  C   UNL     1       4.352  -0.781   1.852  0.00  0.00    +0.090 C 
ATOM      6  C   UNL     1       4.168  -0.210   0.464  0.00  0.00    +0.069 C 
ATOM      7  N   UNL     1       2.910  -0.102   0.206  0.00  0.00    -0.181 NA
ENDROOT
BRANCH   6   8
ATOM      8  C   UNL     1       5.259   0.162  -0.455  0.00  0.00    -0.002 A 
ATOM      9  C   UNL     1       6.591  -0.011  -0.068  0.00  0.00    +0.011 A 
ATOM     10  C   UNL     1       7.607   0.339  -0.932  0.00  0.00    +0.020 A 
ATOM     11  C   UNL     1       7.310   0.860  -2.181  0.00  0.00    +0.041 A 
ATOM     12  C   UNL     1       5.992   1.034  -2.570  0.00  0.00    +0.020 A 
ATOM     13  C   UNL     1       4.967   0.683  -1.717  0.00  0.00    +0.011 A 
ATOM     14 CL   UNL     1       8.596   1.298  -3.262  0.00  0.00    -0.084 Cl
ENDBRANCH   6   8
BRANCH   4  15
ATOM     15  C   UNL     1       2.648  -2.439   2.653  0.00  0.00    +0.128 A 
ATOM     16  C   UNL     1       2.587  -3.001   3.873  0.00  0.00    +0.046 A 
ATOM     17  C   UNL     1       2.321  -4.376   3.679  0.00  0.00    +0.041 A 
ATOM     18  C   UNL     1       2.234  -4.572   2.351  0.00  0.00    +0.195 A 
ATOM     19  O   UNL     1       2.428  -3.395   1.735  0.00  0.00    -0.466 OA
ENDBRANCH   4  15
BRANCH   1  21
ATOM     20  C   UNL     1      -0.019   1.526   0.010  0.00  0.00    +0.029 C 
ATOM     21  C   UNL     1       0.002  -0.004   0.002  0.00  0.00    +0.139 C 
BRANCH  21  22
ATOM     22  S   UNL     1      -1.700  -0.632   0.015  0.00  0.00    -0.073 S 
BRANCH  22  23
ATOM     23  C   UNL     1      -2.365  -0.093  -1.525  0.00  0.00    +0.192 A 
ATOM     24  N   UNL     1      -1.596   0.600  -2.353  0.00  0.00    -0.207 NA
ATOM     25  C   UNL     1      -2.064   1.023  -3.525  0.00  0.00    +0.122 A 
ATOM     26  C   UNL     1      -3.378   0.728  -3.876  0.00  0.00    +0.086 A 
ATOM     27  C   UNL     1      -4.155  -0.003  -2.981  0.00  0.00    +0.122 A 
ATOM     28  N   UNL     1      -3.618  -0.397  -1.829  0.00  0.00    -0.207 NA
ATOM     29  N   UNL     1      -1.254   1.749  -4.384  0.00  0.00    -0.343 N 
ATOM     30  H   UNL     1      -0.339   1.951  -4.133  0.00  0.00    +0.144 HD
ATOM     31  H   UNL     1      -1.602   2.054  -5.237  0.00  0.00    +0.144 HD
BRANCH  27  32
ATOM     32  N   UNL     1      -5.469  -0.320  -3.288  0.00  0.00    -0.343 N 
ATOM     33  H   UNL     1      -5.853  -0.033  -4.132  0.00  0.00    +0.144 HD
ATOM     34  H   UNL     1      -6.005  -0.830  -2.660  0.00  0.00    +0.144 HD
ENDBRANCH  27  32
ENDBRANCH  22  23
ENDBRANCH  21  22
ENDBRANCH   1  21
TORSDOF 6
