REMARK  Name = ZINC58236152
REMARK  12 active torsions:
REMARK  status: ('A' for Active; 'I' for Inactive)
REMARK    1  A    between atoms: C_1  and  C_2
REMARK    2  A    between atoms: C_2  and  O_3
REMARK    3  A    between atoms: O_3  and  C_4
REMARK    4  A    between atoms: C_7  and  C_13
REMARK    5  A    between atoms: C_9  and  O_10
REMARK    6  A    between atoms: O_10  and  C_11
REMARK    7  A    between atoms: C_11  and  C_12
REMARK    8  A    between atoms: C_14  and  C_15
REMARK    9  A    between atoms: N_17  and  C_18
REMARK   10  A    between atoms: C_18  and  C_19
REMARK   11  A    between atoms: C_18  and  C_20
REMARK   12  A    between atoms: C_23  and  N_26
REMARK                            x       y       z     vdW  Elec       q    Type
REMARK                         _______ _______ _______ _____ _____    ______ ____
ROOT
ATOM      1  C   UNL     1       0.954  -8.330  -1.080  0.00  0.00    +0.237 C 
ATOM      2  O   UNL     1       1.389  -8.840  -2.096  0.00  0.00    -0.271 OA
ATOM      3  N   UNL     1       0.389  -9.100  -0.128  0.00  0.00    -0.305 N 
ATOM      4  H   UNL     1       0.043  -8.693   0.681  0.00  0.00    +0.150 HD
ENDROOT
BRANCH   1   6
ATOM      5  C   UNL     1       1.610  -6.112  -1.844  0.00  0.00    +0.013 C 
ATOM      6  C   UNL     1       1.045  -6.883  -0.891  0.00  0.00    +0.068 C 
BRANCH   5  10
ATOM      7  C   UNL     1       1.871  -1.911  -1.291  0.00  0.00    +0.162 A 
ATOM      8  C   UNL     1       1.289  -2.705  -0.312  0.00  0.00    +0.050 A 
ATOM      9  C   UNL     1       1.202  -4.069  -0.487  0.00  0.00    +0.012 A 
ATOM     10  C   UNL     1       1.701  -4.657  -1.655  0.00  0.00    -0.021 A 
ATOM     11  C   UNL     1       2.288  -3.856  -2.641  0.00  0.00    +0.057 A 
ATOM     12  C   UNL     1       2.366  -2.489  -2.459  0.00  0.00    +0.162 A 
BRANCH   7  13
ATOM     13  O   UNL     1       1.954  -0.568  -1.113  0.00  0.00    -0.489 OA
BRANCH  13  15
ATOM     14  C   UNL     1       1.609   1.478   0.128  0.00  0.00    +0.048 C 
ATOM     15  C   UNL     1       1.428  -0.041   0.107  0.00  0.00    +0.226 C 
ENDBRANCH  13  15
ENDBRANCH   7  13
BRANCH  12  16
ATOM     16  O   UNL     1       2.931  -1.707  -3.418  0.00  0.00    -0.489 OA
BRANCH  16  17
ATOM     17  C   UNL     1       3.417  -2.366  -4.589  0.00  0.00    +0.226 C 
ATOM     18  C   UNL     1       4.013  -1.331  -5.546  0.00  0.00    +0.048 C 
ENDBRANCH  16  17
ENDBRANCH  12  16
ENDBRANCH   5  10
ENDBRANCH   1   6
BRANCH   3  19
ATOM     19  C   UNL     1       0.299 -10.550  -0.317  0.00  0.00    +0.100 C 
ATOM     20  C   UNL     1      -0.958 -10.881  -1.124  0.00  0.00    +0.033 C 
BRANCH  19  21
ATOM     21  C   UNL     1       0.226 -11.228   1.027  0.00  0.00    -0.027 A 
ATOM     22  C   UNL     1      -0.536 -10.673   2.039  0.00  0.00    +0.007 A 
ATOM     23  C   UNL     1      -0.604 -11.292   3.272  0.00  0.00    +0.023 A 
ATOM     24  C   UNL     1       0.093 -12.473   3.494  0.00  0.00    +0.035 A 
ATOM     25  C   UNL     1       0.857 -13.027   2.475  0.00  0.00    +0.023 A 
ATOM     26  C   UNL     1       0.917 -12.406   1.243  0.00  0.00    +0.007 A 
BRANCH  24  27
ATOM     27  N   UNL     1       0.026 -13.102   4.742  0.00  0.00    -0.270 N 
ATOM     28  C   UNL     1      -1.107 -13.038   5.469  0.00  0.00    +0.301 C 
ATOM     29  O   UNL     1      -2.101 -12.517   5.001  0.00  0.00    -0.253 OA
ATOM     30  N   UNL     1      -1.138 -13.551   6.715  0.00  0.00    -0.313 N 
ATOM     31  H   UNL     1       0.795 -13.585   5.084  0.00  0.00    +0.156 HD
ATOM     32  H   UNL     1      -0.345 -13.966   7.088  0.00  0.00    +0.146 HD
ATOM     33  H   UNL     1      -1.954 -13.504   7.239  0.00  0.00    +0.146 HD
ENDBRANCH  24  27
ENDBRANCH  19  21
ENDBRANCH   3  19
TORSDOF 9
