REMARK  Name = ZINC42625556
REMARK  9 active torsions:
REMARK  status: ('A' for Active; 'I' for Inactive)
REMARK    1  A    between atoms: C_1  and  C_2
REMARK    2  A    between atoms: C_5  and  N_9
REMARK    3  A    between atoms: C_6  and  C_8
REMARK    4  A    between atoms: C_13  and  C_15
REMARK    5  A    between atoms: C_15  and  C_17
REMARK    6  A    between atoms: C_15  and  N_18
REMARK    7  A    between atoms: N_18  and  C_19
REMARK    8  A    between atoms: C_19  and  C_20
REMARK    9  A    between atoms: C_20  and  N_26
REMARK                            x       y       z     vdW  Elec       q    Type
REMARK                         _______ _______ _______ _____ _____    ______ ____
ROOT
ATOM      1  C   UNL     1      -0.310  -8.309  -2.395  0.00  0.00    +0.013 C 
ATOM      2  C   UNL     1      -1.534  -8.746  -1.589  0.00  0.00    -0.004 C 
ENDROOT
BRANCH   1   7
ATOM      3  N   UNL     1       0.041  -4.079  -0.138  0.00  0.00    -0.269 N 
ATOM      4  C   UNL     1      -0.065  -4.768  -1.292  0.00  0.00    +0.310 C 
ATOM      5  O   UNL     1      -0.102  -4.176  -2.353  0.00  0.00    -0.252 OA
ATOM      6  N   UNL     1      -0.131  -6.114  -1.268  0.00  0.00    -0.241 N 
ATOM      7  C   UNL     1      -0.237  -6.804  -2.421  0.00  0.00    +0.206 C 
ATOM      8  O   UNL     1      -0.273  -6.214  -3.480  0.00  0.00    -0.277 OA
ATOM      9  H   UNL     1       0.126  -4.552   0.704  0.00  0.00    +0.156 HD
ATOM     10  H   UNL     1      -0.101  -6.587  -0.421  0.00  0.00    +0.159 HD
BRANCH   3  15
ATOM     11  C   UNL     1      -0.011   1.594  -0.212  0.00  0.00    +0.044 C 
ATOM     12  C   UNL     1       0.003   0.087  -0.192  0.00  0.00    -0.050 A 
ATOM     13  C   UNL     1       0.588  -0.611  -1.233  0.00  0.00    +0.005 A 
ATOM     14  C   UNL     1       0.602  -1.992  -1.218  0.00  0.00    +0.024 A 
ATOM     15  C   UNL     1       0.028  -2.680  -0.156  0.00  0.00    +0.038 A 
ATOM     16  C   UNL     1      -0.557  -1.976   0.887  0.00  0.00    -0.029 A 
ATOM     17  C   UNL     1      -0.564  -0.595   0.869  0.00  0.00    +0.008 A 
ATOM     18  C   UNL     1      -1.180  -2.718   2.042  0.00  0.00    +0.045 C 
ENDBRANCH   3  15
ENDBRANCH   1   7
BRANCH   1  19
ATOM     19  N   UNL     1      -0.421  -8.818  -3.769  0.00  0.00    +0.388 N 
ATOM     20  H   UNL     1      -1.295  -8.515  -4.170  0.00  0.00    -0.085 HD
ATOM     21  H   UNL     1       0.344  -8.462  -4.322  0.00  0.00    -0.085 HD
BRANCH  19  22
ATOM     22  C   UNL     1      -0.371 -10.286  -3.753  0.00  0.00    -0.059 C 
BRANCH  22  23
ATOM     23  C   UNL     1      -0.362 -10.812  -5.190  0.00  0.00    +0.007 C 
ATOM     24  C   UNL     1      -0.346 -12.341  -5.173  0.00  0.00    +0.020 C 
ATOM     25  C   UNL     1       0.906 -12.831  -4.443  0.00  0.00    +0.002 C 
ATOM     26  C   UNL     1       2.152 -12.315  -5.166  0.00  0.00    +0.000 C 
ATOM     27  C   UNL     1       2.136 -10.786  -5.183  0.00  0.00    +0.002 C 
ATOM     28  C   UNL     1       0.884 -10.297  -5.913  0.00  0.00    +0.020 C 
BRANCH  23  29
ATOM     29  N   UNL     1      -1.565 -10.342  -5.891  0.00  0.00    -0.294 NA
ATOM     30  C   UNL     1      -2.779 -10.666  -5.128  0.00  0.00    +0.113 C 
ATOM     31  C   UNL     1      -4.001 -10.108  -5.863  0.00  0.00    +0.175 C 
ATOM     32  O   UNL     1      -4.036 -10.640  -7.191  0.00  0.00    -0.377 OA
ATOM     33  C   UNL     1      -2.869 -10.342  -7.962  0.00  0.00    +0.175 C 
ATOM     34  C   UNL     1      -1.636 -10.903  -7.248  0.00  0.00    +0.113 C 
ENDBRANCH  23  29
ENDBRANCH  22  23
ENDBRANCH  19  22
ENDBRANCH   1  19
TORSDOF 6
