REMARK  Name = ZINC14544847
REMARK  6 active torsions:
REMARK  status: ('A' for Active; 'I' for Inactive)
REMARK    1  A    between atoms: C_1  and  C_2
REMARK    2  A    between atoms: C_2  and  C_3
REMARK    3  A    between atoms: C_2  and  N_4
REMARK    4  A    between atoms: N_4  and  S_5
REMARK    5  A    between atoms: S_5  and  C_8
REMARK    6  A    between atoms: C_21  and  C_24
REMARK                            x       y       z     vdW  Elec       q    Type
REMARK                         _______ _______ _______ _____ _____    ______ ____
ROOT
ATOM      1  C   UNL     1       1.510   2.683   1.528  0.00  0.00    +0.106 A 
ATOM      2  C   UNL     1       2.109   2.086   2.622  0.00  0.00    +0.030 A 
ATOM      3  C   UNL     1       2.186   2.771   3.818  0.00  0.00    +0.025 A 
ATOM      4  C   UNL     1       1.662   4.054   3.920  0.00  0.00    +0.031 A 
ATOM      5  C   UNL     1       1.058   4.655   2.826  0.00  0.00    -0.018 A 
ATOM      6  C   UNL     1       0.993   3.959   1.627  0.00  0.00    +0.034 A 
ATOM      7  C   UNL     1       0.477   6.032   2.890  0.00  0.00    +0.049 C 
ATOM      8  C   UNL     1       1.362   7.037   2.192  0.00  0.00    -0.023 C 
ATOM      9  C   UNL     1       1.339   8.182   2.830  0.00  0.00    -0.030 C 
ATOM     10  C   UNL     1       0.429   8.096   4.041  0.00  0.00    +0.033 C 
ATOM     11  C   UNL     1       0.357   6.567   4.330  0.00  0.00    +0.029 C 
ATOM     12  C   UNL     1       1.610   6.197   5.129  0.00  0.00    +0.107 C 
ATOM     13  N   UNL     1       1.753   4.737   5.137  0.00  0.00    -0.336 N 
ATOM     14  H   UNL     1       1.908   4.258   5.966  0.00  0.00    +0.147 HD
ENDROOT
BRANCH  12  15
ATOM     15  C   UNL     1       2.822   6.819   4.485  0.00  0.00    -0.002 A 
ATOM     16  C   UNL     1       3.647   6.234   3.603  0.00  0.00    +0.089 A 
ATOM     17  N   UNL     1       4.635   7.106   3.238  0.00  0.00    -0.360 N 
ATOM     18  H   UNL     1       5.349   6.910   2.611  0.00  0.00    +0.165 HD
ATOM     19  C   UNL     1       4.467   8.305   3.894  0.00  0.00    +0.047 A 
ATOM     20  C   UNL     1       3.320   8.180   4.700  0.00  0.00    +0.005 A 
ATOM     21  C   UNL     1       2.906   9.251   5.493  0.00  0.00    +0.010 A 
ATOM     22  C   UNL     1       3.610  10.422   5.473  0.00  0.00    +0.001 A 
ATOM     23  C   UNL     1       4.739  10.553   4.676  0.00  0.00    +0.002 A 
ATOM     24  C   UNL     1       5.169   9.506   3.890  0.00  0.00    +0.026 A 
ENDBRANCH  12  15
BRANCH   1  25
ATOM     25  S   UNL     1       1.412   1.813  -0.002  0.00  0.00    +0.059 S 
ATOM     26  O   UNL     1       2.457   0.851   0.010  0.00  0.00    -0.153 OA
ATOM     27  O   UNL     1       1.292   2.796  -1.021  0.00  0.00    -0.153 OA
BRANCH  25  28
ATOM     28  N   UNL     1      -0.011   0.966   0.007  0.00  0.00    -0.187 NA
ATOM     29  H   UNL     1       0.002  -0.004   0.002  0.00  0.00    +0.148 HD
BRANCH  28  31
ATOM     30  C   UNL     1      -1.803   1.828  -1.417  0.00  0.00    +0.025 C 
ATOM     31  C   UNL     1      -1.290   1.681   0.017  0.00  0.00    +0.070 C 
ATOM     32  C   UNL     1      -2.308   0.894   0.845  0.00  0.00    +0.025 C 
ENDBRANCH  28  31
ENDBRANCH  25  28
ENDBRANCH   1  25
TORSDOF 4
