REMARK  Name = ZINC08227749
REMARK  6 active torsions:
REMARK  status: ('A' for Active; 'I' for Inactive)
REMARK    1  A    between atoms: C_1  and  C_2
REMARK    2  A    between atoms: C_2  and  O_3
REMARK    3  A    between atoms: O_3  and  C_4
REMARK    4  A    between atoms: C_4  and  C_6
REMARK    5  A    between atoms: C_7  and  C_25
REMARK    6  A    between atoms: C_17  and  C_19
REMARK                            x       y       z     vdW  Elec       q    Type
REMARK                         _______ _______ _______ _____ _____    ______ ____
ROOT
ATOM      1  C   UNL     1      -2.858  -2.581   0.613  0.00  0.00    +0.070 C 
ATOM      2  C   UNL     1      -2.935  -3.743  -0.088  0.00  0.00    +0.051 C 
ATOM      3  N   UNL     1      -4.117  -4.130  -0.676  0.00  0.00    -0.300 N 
ATOM      4  C   UNL     1      -5.305  -3.565  -0.278  0.00  0.00    +0.110 A 
ATOM      5  C   UNL     1      -5.319  -2.391   0.418  0.00  0.00    +0.042 A 
ATOM      6  C   UNL     1      -6.554  -1.852   0.810  0.00  0.00    +0.126 A 
ATOM      7  N   UNL     1      -7.679  -2.487   0.498  0.00  0.00    -0.208 NA
ATOM      8  C   UNL     1      -7.655  -3.629  -0.182  0.00  0.00    +0.180 A 
ATOM      9  S   UNL     1      -9.128  -4.413  -0.564  0.00  0.00    -0.011 S 
ATOM     10  N   UNL     1      -6.491  -4.180  -0.576  0.00  0.00    -0.322 N 
ATOM     11  N   UNL     1      -6.600  -0.668   1.515  0.00  0.00    -0.343 N 
ATOM     12  C   UNL     1      -4.046  -1.677   0.769  0.00  0.00    +0.094 C 
ATOM     13  H   UNL     1      -4.112  -4.804  -1.374  0.00  0.00    +0.154 HD
ATOM     14  H   UNL     1      -7.455  -0.297   1.786  0.00  0.00    +0.144 HD
ATOM     15  H   UNL     1      -5.777  -0.206   1.742  0.00  0.00    +0.144 HD
ATOM     16  H   UNL     1      -6.493  -5.013  -1.073  0.00  0.00    +0.169 HD
ENDROOT
BRANCH  12  17
ATOM     17  C   UNL     1      -3.885  -0.486  -0.140  0.00  0.00    -0.035 A 
ATOM     18  C   UNL     1      -3.782  -0.669  -1.507  0.00  0.00    +0.004 A 
ATOM     19  C   UNL     1      -3.635   0.424  -2.341  0.00  0.00    +0.000 A 
ATOM     20  C   UNL     1      -3.590   1.699  -1.808  0.00  0.00    +0.000 A 
ATOM     21  C   UNL     1      -3.694   1.881  -0.442  0.00  0.00    +0.000 A 
ATOM     22  C   UNL     1      -3.846   0.789   0.392  0.00  0.00    +0.004 A 
ENDBRANCH  12  17
BRANCH   2  23
ATOM     23  C   UNL     1      -1.738  -4.598  -0.219  0.00  0.00    -0.003 A 
ATOM     24  C   UNL     1      -1.714  -5.865   0.366  0.00  0.00    +0.010 A 
ATOM     25  C   UNL     1      -0.592  -6.659   0.239  0.00  0.00    +0.001 A 
ATOM     26  C   UNL     1       0.506  -6.201  -0.467  0.00  0.00    +0.000 A 
ATOM     27  C   UNL     1       0.489  -4.946  -1.049  0.00  0.00    +0.001 A 
ATOM     28  C   UNL     1      -0.627  -4.144  -0.935  0.00  0.00    +0.010 A 
ENDBRANCH   2  23
BRANCH   1  29
ATOM     29  C   UNL     1      -1.636  -2.219   1.211  0.00  0.00    +0.338 C 
ATOM     30  O   UNL     1      -0.699  -2.996   1.200  0.00  0.00    -0.245 OA
BRANCH  29  31
ATOM     31  O   UNL     1      -1.503  -1.010   1.798  0.00  0.00    -0.462 OA
BRANCH  31  33
ATOM     32  C   UNL     1      -0.277   0.693   2.996  0.00  0.00    +0.048 C 
ATOM     33  C   UNL     1      -0.236  -0.709   2.385  0.00  0.00    +0.229 C 
ENDBRANCH  31  33
ENDBRANCH  29  31
ENDBRANCH   1  29
TORSDOF 5
