REMARK  Name = ZINC37473916
REMARK  4 active torsions:
REMARK  status: ('A' for Active; 'I' for Inactive)
REMARK    1  A    between atoms: C_3  and  O_15
REMARK    2  A    between atoms: C_6  and  N_7
REMARK    3  A    between atoms: N_7  and  C_8
REMARK    4  A    between atoms: C_8  and  C_9
REMARK                            x       y       z     vdW  Elec       q    Type
REMARK                         _______ _______ _______ _____ _____    ______ ____
ROOT
ATOM      1  N   UNL     1      -1.202  -0.722   0.006  0.00  0.00    -0.245 N 
ATOM      2  C   UNL     1      -2.375  -0.068   0.127  0.00  0.00    +0.304 C 
ATOM      3  O   UNL     1      -2.395   1.147   0.137  0.00  0.00    -0.252 OA
ATOM      4  N   UNL     1      -3.525  -0.763   0.236  0.00  0.00    -0.313 N 
ATOM      5  H   UNL     1      -3.503  -1.730   0.304  0.00  0.00    +0.146 HD
ATOM      6  H   UNL     1      -4.375  -0.295   0.247  0.00  0.00    +0.146 HD
ENDROOT
BRANCH   1  12
ATOM      7  C   UNL     1       0.311   0.826   1.079  0.00  0.00    +0.027 A 
ATOM      8  C   UNL     1       1.499   1.531   1.084  0.00  0.00    +0.047 A 
ATOM      9  C   UNL     1       2.383   1.408   0.022  0.00  0.00    +0.117 A 
ATOM     10  C   UNL     1       2.075   0.578  -1.045  0.00  0.00    +0.047 A 
ATOM     11  C   UNL     1       0.887  -0.127  -1.051  0.00  0.00    +0.027 A 
ATOM     12  C   UNL     1       0.003  -0.005   0.012  0.00  0.00    +0.039 A 
BRANCH   9  13
ATOM     13  O   UNL     1       3.552   2.103   0.028  0.00  0.00    -0.507 OA
ATOM     14  H   UNL     1       4.289   1.630   0.439  0.00  0.00    +0.292 HD
ENDBRANCH   9  13
ENDBRANCH   1  12
BRANCH   1  15
ATOM     15  C   UNL     1      -1.187  -2.180  -0.130  0.00  0.00    +0.240 C 
BRANCH  15  16
ATOM     16  C   UNL     1      -1.110  -2.812   1.236  0.00  0.00    +0.373 C 
ATOM     17  O   UNL     1      -1.071  -2.109   2.231  0.00  0.00    -0.245 OA
ATOM     18  O   UNL     1      -1.086  -4.026   1.345  0.00  0.00    -0.245 OA
ENDBRANCH  15  16
ENDBRANCH   1  15
TORSDOF 4
