REMARK  Name = ZINC67517781
REMARK  6 active torsions:
REMARK  status: ('A' for Active; 'I' for Inactive)
REMARK    1  A    between atoms: C_1  and  C_2
REMARK    2  A    between atoms: C_5  and  C_8
REMARK    3  A    between atoms: C_10  and  C_13
REMARK    4  A    between atoms: C_13  and  C_14
REMARK    5  A    between atoms: C_14  and  C_15
REMARK    6  A    between atoms: C_27  and  C_30
REMARK                            x       y       z     vdW  Elec       q    Type
REMARK                         _______ _______ _______ _____ _____    ______ ____
ROOT
ATOM      1  C   UNL     1      -1.335  -7.901   1.959  0.00  0.00    +0.105 C 
ENDROOT
BRANCH   1   2
ATOM      2  C   UNL     1      -1.319  -9.084   2.892  0.00  0.00    +0.216 C 
ATOM      3  O   UNL     1      -0.263  -9.546   3.267  0.00  0.00    -0.276 OA
ATOM      4  N   UNL     1      -2.479  -9.628   3.311  0.00  0.00    -0.298 N 
ATOM      5  C   UNL     1      -3.772  -9.087   2.864  0.00  0.00    +0.108 C 
ATOM      6  C   UNL     1      -4.636  -8.776   4.090  0.00  0.00    +0.019 C 
ATOM      7  C   UNL     1      -4.740 -10.021   4.976  0.00  0.00    +0.007 C 
ATOM      8  C   UNL     1      -3.343 -10.423   5.444  0.00  0.00    +0.010 C 
ATOM      9  C   UNL     1      -2.487 -10.780   4.219  0.00  0.00    +0.079 C 
ATOM     10  C   UNL     1      -1.067 -11.111   4.678  0.00  0.00    +0.023 C 
ATOM     11  C   UNL     1      -1.116 -12.320   5.617  0.00  0.00    +0.005 C 
ATOM     12  C   UNL     1      -1.993 -12.001   6.829  0.00  0.00    -0.014 C 
ATOM     13  C   UNL     1      -3.411 -11.638   6.367  0.00  0.00    +0.008 C 
ATOM     14  C   UNL     1      -2.052 -13.222   7.749  0.00  0.00    +0.007 C 
ENDBRANCH   1   2
BRANCH   1  15
ATOM     15  C   UNL     1       0.102  -7.482   1.642  0.00  0.00    +0.108 C 
BRANCH  15  18
ATOM     16  C   UNL     1       0.059  -4.256  -0.021  0.00  0.00    +0.202 A 
ATOM     17  N   UNL     1       0.070  -5.047   1.067  0.00  0.00    -0.191 NA
ATOM     18  C   UNL     1       0.086  -6.299   0.708  0.00  0.00    +0.228 A 
ATOM     19  O   UNL     1       0.086  -6.357  -0.630  0.00  0.00    -0.338 OA
ATOM     20  N   UNL     1       0.064  -5.015  -1.090  0.00  0.00    -0.056 NA
BRANCH  16  25
ATOM     21  C   UNL     1      -0.018   1.503   0.010  0.00  0.00    +0.044 C 
ATOM     22  C   UNL     1       0.002  -0.004   0.002  0.00  0.00    -0.050 A 
ATOM     23  C   UNL     1       0.006  -0.686  -1.201  0.00  0.00    +0.004 A 
ATOM     24  C   UNL     1       0.024  -2.067  -1.214  0.00  0.00    +0.012 A 
ATOM     25  C   UNL     1       0.040  -2.772  -0.013  0.00  0.00    +0.022 A 
ATOM     26  C   UNL     1       0.036  -2.080   1.196  0.00  0.00    +0.012 A 
ATOM     27  C   UNL     1       0.023  -0.700   1.198  0.00  0.00    +0.004 A 
ENDBRANCH  16  25
ENDBRANCH  15  18
ENDBRANCH   1  15
TORSDOF 4
