REMARK  Name = ZINC65393819
REMARK  1 active torsions:
REMARK  status: ('A' for Active; 'I' for Inactive)
REMARK    1  A    between atoms: C_4  and  C_12
REMARK                            x       y       z     vdW  Elec       q    Type
REMARK                         _______ _______ _______ _____ _____    ______ ____
ROOT
ATOM      1  C   UNL     1      -0.061   1.464   0.024  0.00  0.00    +0.067 C 
ATOM      2  C   UNL     1       1.412   1.888  -0.075  0.00  0.00    +0.087 C 
ATOM      3  N   UNL     1       2.306   0.773   0.230  0.00  0.00    -0.307 NA
ATOM      4  C   UNL     1       1.977   0.013   1.435  0.00  0.00    +0.107 C 
ATOM      5  C   UNL     1       0.677  -0.764   1.220  0.00  0.00    +0.121 C 
ATOM      6  C   UNL     1      -0.060  -0.047   0.093  0.00  0.00    +0.035 C 
ATOM      7  N   UNL     1      -0.565  -0.898  -0.693  0.00  0.00    -0.276 NA
ATOM      8  C   UNL     1      -0.235  -2.264  -0.256  0.00  0.00    +0.225 C 
ATOM      9  N   UNL     1       0.915  -2.123   0.697  0.00  0.00    -0.288 NA
ATOM     10  H   UNL     1       2.407   0.163  -0.566  0.00  0.00    +0.123 HD
ATOM     11  H   UNL     1       1.796  -2.173   0.208  0.00  0.00    +0.124 HD
ENDROOT
BRANCH   4  12
ATOM     12  C   UNL     1       3.092  -0.955   1.737  0.00  0.00    -0.028 C 
ATOM     13  C   UNL     1       4.130  -1.096   0.858  0.00  0.00    +0.011 C 
ATOM     14  C   UNL     1       5.144  -1.981   1.268  0.00  0.00    -0.018 C 
ATOM     15  C   UNL     1       5.986  -2.782   0.595  0.00  0.00    +0.025 C 
ATOM     16  C   UNL     1       6.599  -3.680   1.498  0.00  0.00    +0.106 C 
ATOM     17  N   UNL     1       6.288  -3.419   2.736  0.00  0.00    -0.279 NA
ATOM     18  C   UNL     1       5.449  -2.229   2.736  0.00  0.00    +0.158 C 
ATOM     19  C   UNL     1       4.140  -2.370   3.453  0.00  0.00    +0.004 C 
ATOM     20  C   UNL     1       3.067  -1.735   2.971  0.00  0.00    +0.003 C 
ENDBRANCH   4  12
TORSDOF 1
