REMARK  Name = ZINC00893795
REMARK  6 active torsions:
REMARK  status: ('A' for Active; 'I' for Inactive)
REMARK    1  A    between atoms: C_1  and  C_2
REMARK    2  A    between atoms: C_6  and  C_15
REMARK    3  A    between atoms: C_13  and  C_14
REMARK    4  A    between atoms: C_15  and  C_17
REMARK    5  A    between atoms: C_15  and  N_61
REMARK    6  A    between atoms: N_21  and  C_22
REMARK                            x       y       z     vdW  Elec       q    Type
REMARK                         _______ _______ _______ _____ _____    ______ ____
ROOT
ATOM      1  C   UNL     1      -4.986   3.843   0.043  0.00  0.00    +0.039 C 
ENDROOT
BRANCH   1   7
ATOM      2  C   UNL     1       2.471   3.924  -0.002  0.00  0.00    +0.044 C 
ATOM      3  C   UNL     1       1.165   3.172   0.007  0.00  0.00    -0.047 A 
ATOM      4  C   UNL     1      -0.014   3.863   0.021  0.00  0.00    +0.013 A 
ATOM      5  C   UNL     1      -1.226   3.165   0.030  0.00  0.00    -0.001 A 
ATOM      6  C   UNL     1      -2.507   3.874   0.045  0.00  0.00    +0.017 A 
ATOM      7  C   UNL     1      -3.650   3.145   0.035  0.00  0.00    +0.011 A 
ATOM      8  C   UNL     1      -3.594   1.735   0.028  0.00  0.00    +0.251 A 
ATOM      9  O   UNL     1      -4.634   1.099   0.029  0.00  0.00    -0.268 OA
ATOM     10  N   UNL     1      -2.423   1.075   0.019  0.00  0.00    -0.322 N 
ATOM     11  H   UNL     1      -2.420   0.075   0.015  0.00  0.00    +0.169 HD
ATOM     12  C   UNL     1      -1.225   1.757   0.017  0.00  0.00    +0.049 A 
ATOM     13  C   UNL     1      -0.013   1.076   0.008  0.00  0.00    +0.030 A 
ATOM     14  C   UNL     1       1.170   1.784   0.001  0.00  0.00    -0.046 A 
ATOM     15  C   UNL     1       2.482   1.043  -0.015  0.00  0.00    +0.044 C 
ENDBRANCH   1   7
BRANCH   1  21
ATOM     16  C   UNL     1      -5.082   3.575  -2.363  0.00  0.00    -0.049 C 
ATOM     17  C   UNL     1      -5.930   3.017  -3.509  0.00  0.00    +0.141 C 
ATOM     18  O   UNL     1      -7.213   3.648  -3.498  0.00  0.00    -0.383 OA
ATOM     19  C   UNL     1      -7.932   3.470  -2.274  0.00  0.00    +0.141 C 
ATOM     20  C   UNL     1      -7.105   4.033  -1.116  0.00  0.00    -0.049 C 
ATOM     21  N   UNL     1      -5.797   3.345  -1.089  0.00  0.00    +0.392 N 
ATOM     22  H   UNL     1      -5.952   2.337  -0.971  0.00  0.00    -0.080 HD
ENDBRANCH   1  21
BRANCH   1  23
ATOM     23  C   UNL     1      -5.705   3.538   1.331  0.00  0.00    +0.143 A 
ATOM     24  N   UNL     1      -6.296   2.412   1.650  0.00  0.00    -0.115 NA
ATOM     25  N   UNL     1      -6.792   2.543   2.832  0.00  0.00    -0.023 NA
ATOM     26  N   UNL     1      -6.533   3.724   3.275  0.00  0.00    -0.044 NA
ATOM     27  N   UNL     1      -5.859   4.366   2.381  0.00  0.00    -0.227 N 
BRANCH  27  28
ATOM     28  C   UNL     1      -5.360   5.739   2.487  0.00  0.00    +0.111 C 
ATOM     29  C   UNL     1      -4.405   5.843   3.678  0.00  0.00    +0.027 C 
ATOM     30  C   UNL     1      -3.883   7.277   3.789  0.00  0.00    +0.002 C 
ATOM     31  C   UNL     1      -5.059   8.234   3.993  0.00  0.00    +0.000 C 
ATOM     32  C   UNL     1      -6.015   8.129   2.803  0.00  0.00    +0.002 C 
ATOM     33  C   UNL     1      -6.536   6.695   2.692  0.00  0.00    +0.027 C 
ENDBRANCH  27  28
ENDBRANCH   1  23
TORSDOF 4
