REMARK  Name = ZINC33919145
REMARK  9 active torsions:
REMARK  status: ('A' for Active; 'I' for Inactive)
REMARK    1  A    between atoms: C_1  and  C_2
REMARK    2  A    between atoms: C_2  and  C_3
REMARK    3  A    between atoms: C_2  and  C_4
REMARK    4  A    between atoms: C_2  and  N_5
REMARK    5  A    between atoms: C_10  and  C_23
REMARK    6  A    between atoms: C_13  and  C_18
REMARK    7  A    between atoms: C_13  and  C_20
REMARK    8  A    between atoms: C_18  and  O_19
REMARK    9  A    between atoms: C_28  and  O_29
REMARK                            x       y       z     vdW  Elec       q    Type
REMARK                         _______ _______ _______ _____ _____    ______ ____
ROOT
ATOM      1  N   UNL     1       0.737  -0.504  -1.314  0.00  0.00    -0.236 N 
ATOM      2  C   UNL     1       0.170  -1.301  -2.277  0.00  0.00    +0.225 C 
ATOM      3  O   UNL     1      -1.005  -1.558  -2.430  0.00  0.00    -0.275 OA
ATOM      4  C   UNL     1       1.286  -1.766  -3.068  0.00  0.00    +0.077 C 
ATOM      5  C   UNL     1       1.567  -2.355  -4.385  0.00  0.00    -0.023 C 
ATOM      6  N   UNL     1       3.031  -2.108  -4.596  0.00  0.00    +0.397 N 
ATOM      7  C   UNL     1       3.518  -1.275  -3.449  0.00  0.00    +0.071 C 
ATOM      8  C   UNL     1       2.242  -0.508  -3.043  0.00  0.00    +0.088 C 
ATOM      9  C   UNL     1       2.038  -0.188  -1.587  0.00  0.00    +0.225 C 
ATOM     10  O   UNL     1       2.860   0.257  -0.815  0.00  0.00    -0.275 OA
ATOM     11  H   UNL     1       3.527  -2.986  -4.617  0.00  0.00    -0.083 HD
ATOM     12  H   UNL     1       3.173  -1.612  -5.464  0.00  0.00    -0.083 HD
ENDROOT
BRANCH   5  13
ATOM     13  C   UNL     1       0.754  -1.669  -5.453  0.00  0.00    -0.018 A 
ATOM     14  C   UNL     1       1.280  -0.589  -6.135  0.00  0.00    +0.020 A 
ATOM     15  C   UNL     1       0.535   0.041  -7.115  0.00  0.00    +0.018 A 
ATOM     16  C   UNL     1      -0.739  -0.409  -7.415  0.00  0.00    +0.019 A 
ATOM     17  C   UNL     1      -1.268  -1.489  -6.736  0.00  0.00    +0.047 A 
ATOM     18  C   UNL     1      -0.520  -2.126  -5.756  0.00  0.00    +0.119 A 
ATOM     19 BR   UNL     1       1.257   1.520  -8.046  0.00  0.00    -0.050 Br
BRANCH  18  20
ATOM     20  O   UNL     1      -1.037  -3.192  -5.090  0.00  0.00    -0.507 OA
ATOM     21  H   UNL     1      -1.526  -2.956  -4.290  0.00  0.00    +0.292 HD
ENDBRANCH  18  20
ENDBRANCH   5  13
BRANCH   1  23
ATOM     22  C   UNL     1      -0.014   1.493  -0.118  0.00  0.00    +0.031 C 
ATOM     23  C   UNL     1       0.022  -0.037  -0.124  0.00  0.00    +0.036 C 
ATOM     24  C   UNL     1       0.741  -0.535   1.131  0.00  0.00    +0.031 C 
ATOM     25  C   UNL     1      -1.408  -0.580  -0.142  0.00  0.00    +0.031 C 
ENDBRANCH   1  23
BRANCH   7  26
ATOM     26  C   UNL     1       4.588  -0.315  -3.902  0.00  0.00    +0.348 C 
ATOM     27  O   UNL     1       4.956  -0.316  -5.064  0.00  0.00    -0.248 OA
ATOM     28  O   UNL     1       5.084   0.464  -3.106  0.00  0.00    -0.248 OA
ENDBRANCH   7  26
BRANCH   7  29
ATOM     29  C   UNL     1       4.031  -2.163  -2.314  0.00  0.00    +0.155 C 
BRANCH  29  30
ATOM     30  O   UNL     1       5.124  -2.955  -2.785  0.00  0.00    -0.396 OA
ATOM     31  H   UNL     1       5.500  -3.543  -2.116  0.00  0.00    +0.209 HD
ENDBRANCH  29  30
ENDBRANCH   7  29
TORSDOF 6
