REMARK  Name = ZINC39882065
REMARK  13 active torsions:
REMARK  status: ('A' for Active; 'I' for Inactive)
REMARK    1  A    between atoms: C_1  and  C_2
REMARK    2  A    between atoms: C_2  and  C_3
REMARK    3  A    between atoms: C_2  and  C_4
REMARK    4  A    between atoms: C_7  and  C_10
REMARK    5  A    between atoms: C_11  and  C_12
REMARK    6  A    between atoms: C_11  and  N_25
REMARK    7  A    between atoms: N_14  and  C_15
REMARK    8  A    between atoms: C_18  and  S_21
REMARK    9  A    between atoms: S_21  and  N_24
REMARK   10  A    between atoms: C_26  and  C_28
REMARK   11  A    between atoms: C_28  and  C_29
REMARK   12  A    between atoms: C_28  and  C_30
REMARK   13  A    between atoms: C_28  and  C_31
REMARK                            x       y       z     vdW  Elec       q    Type
REMARK                         _______ _______ _______ _____ _____    ______ ____
ROOT
ATOM      1  C   UNL     1      -4.729  -1.800   0.340  0.00  0.00    +0.036 C 
ATOM      2  C   UNL     1      -5.167  -2.576  -0.679  0.00  0.00    +0.097 C 
ENDROOT
BRANCH   1   6
ATOM      3  C   UNL     1      -0.672  -0.571   0.473  0.00  0.00    -0.045 A 
ATOM      4  C   UNL     1      -0.993  -1.835   0.012  0.00  0.00    +0.004 A 
ATOM      5  C   UNL     1      -2.309  -2.243  -0.035  0.00  0.00    +0.008 A 
ATOM      6  C   UNL     1      -3.321  -1.374   0.387  0.00  0.00    -0.023 A 
ATOM      7  C   UNL     1      -2.989  -0.098   0.852  0.00  0.00    +0.008 A 
ATOM      8  C   UNL     1      -1.667   0.293   0.897  0.00  0.00    +0.004 A 
BRANCH   3  10
ATOM      9  C   UNL     1       1.559  -1.078   1.429  0.00  0.00    +0.012 C 
ATOM     10  C   UNL     1       0.770  -0.134   0.521  0.00  0.00    +0.013 C 
ATOM     11  C   UNL     1       1.361  -0.170  -0.890  0.00  0.00    +0.012 C 
ENDBRANCH   3  10
ENDBRANCH   1   6
BRANCH   2  12
ATOM     12  C   UNL     1      -4.274  -2.884  -1.805  0.00  0.00    +0.262 C 
ATOM     13  O   UNL     1      -3.746  -3.978  -1.881  0.00  0.00    -0.268 OA
ATOM     14  N   UNL     1      -4.040  -1.955  -2.753  0.00  0.00    -0.280 N 
ATOM     15  H   UNL     1      -4.421  -1.067  -2.667  0.00  0.00    +0.155 HD
BRANCH  14  16
ATOM     16  C   UNL     1      -3.248  -2.271  -3.861  0.00  0.00    +0.034 A 
ATOM     17  C   UNL     1      -3.262  -3.559  -4.382  0.00  0.00    +0.025 A 
ATOM     18  C   UNL     1      -2.479  -3.868  -5.477  0.00  0.00    +0.030 A 
ATOM     19  C   UNL     1      -1.681  -2.897  -6.054  0.00  0.00    +0.105 A 
ATOM     20  C   UNL     1      -1.665  -1.614  -5.538  0.00  0.00    +0.030 A 
ATOM     21  C   UNL     1      -2.450  -1.297  -4.447  0.00  0.00    +0.025 A 
BRANCH  19  22
ATOM     22  S   UNL     1      -0.684  -3.295  -7.451  0.00  0.00    +0.056 S 
ATOM     23  O   UNL     1       0.383  -2.357  -7.469  0.00  0.00    -0.153 OA
ATOM     24  O   UNL     1      -0.463  -4.698  -7.406  0.00  0.00    -0.153 OA
BRANCH  22  25
ATOM     25  N   UNL     1      -1.595  -3.003  -8.803  0.00  0.00    -0.204 NA
ATOM     26  H   UNL     1      -2.502  -2.672  -8.714  0.00  0.00    +0.144 HD
ATOM     27  H   UNL     1      -1.221  -3.162  -9.683  0.00  0.00    +0.144 HD
ENDBRANCH  22  25
ENDBRANCH  19  22
ENDBRANCH  14  16
ENDBRANCH   2  12
BRANCH   2  28
ATOM     28  N   UNL     1      -6.470  -3.084  -0.660  0.00  0.00    -0.281 N 
ATOM     29  C   UNL     1      -6.947  -3.755  -1.727  0.00  0.00    +0.223 C 
ATOM     30  O   UNL     1      -6.221  -3.989  -2.670  0.00  0.00    -0.275 OA
ATOM     31  H   UNL     1      -7.030  -2.954   0.121  0.00  0.00    +0.155 HD
BRANCH  29  32
ATOM     32  C   UNL     1      -8.382  -4.215  -1.748  0.00  0.00    +0.039 C 
ATOM     33  C   UNL     1      -8.664  -4.945  -3.062  0.00  0.00    +0.020 C 
ATOM     34  C   UNL     1      -8.631  -5.163  -0.574  0.00  0.00    +0.020 C 
ATOM     35  C   UNL     1      -9.307  -3.002  -1.630  0.00  0.00    +0.020 C 
ENDBRANCH  29  32
ENDBRANCH   2  28
TORSDOF 8
