REMARK  Name = ZINC62716117
REMARK  4 active torsions:
REMARK  status: ('A' for Active; 'I' for Inactive)
REMARK    1  A    between atoms: C_3  and  C_10
REMARK    2  A    between atoms: C_5  and  N_7
REMARK    3  A    between atoms: C_15  and  C_18
REMARK    4  A    between atoms: C_16  and  O_17
REMARK                            x       y       z     vdW  Elec       q    Type
REMARK                         _______ _______ _______ _____ _____    ______ ____
ROOT
ATOM      1  C   UNL     1       3.653   2.162   0.018  0.00  0.00    +0.015 C 
ATOM      2  C   UNL     1       3.639   3.506  -0.096  0.00  0.00    -0.005 C 
ATOM      3  C   UNL     1       2.336   4.279  -0.099  0.00  0.00    +0.039 C 
ATOM      4  C   UNL     1       2.441   5.354  -1.189  0.00  0.00    +0.010 C 
ATOM      5  C   UNL     1       3.571   6.319  -0.835  0.00  0.00    +0.042 C 
ATOM      6  C   UNL     1       4.851   5.582  -0.574  0.00  0.00    +0.032 C 
ATOM      7  C   UNL     1       4.885   4.271  -0.217  0.00  0.00    +0.126 C 
ENDROOT
BRANCH   6   8
ATOM      8  C   UNL     1       6.072   6.280  -0.699  0.00  0.00    +0.099 C 
ATOM      9  N   UNL     1       6.974   5.998  -1.637  0.00  0.00    -0.371 N 
ATOM     10  C   UNL     1       8.123   6.904  -1.493  0.00  0.00    +0.132 C 
ATOM     11  C   UNL     1       7.741   7.788  -0.288  0.00  0.00    +0.124 C 
ATOM     12  N   UNL     1       6.417   7.282   0.107  0.00  0.00    -0.329 N 
ATOM     13  H   UNL     1       5.882   7.623   0.841  0.00  0.00    +0.147 HD
ATOM     14  H   UNL     1       6.887   5.303  -2.309  0.00  0.00    +0.161 HD
ENDBRANCH   6   8
BRANCH   1  17
ATOM     15  C   UNL     1       0.307   1.285   1.469  0.00  0.00    +0.003 A 
ATOM     16  C   UNL     1       1.473   1.972   1.202  0.00  0.00    +0.008 A 
ATOM     17  C   UNL     1       2.407   1.435   0.310  0.00  0.00    -0.023 A 
ATOM     18  C   UNL     1       2.151   0.205  -0.303  0.00  0.00    +0.040 A 
ATOM     19  C   UNL     1       0.981  -0.470  -0.025  0.00  0.00    +0.127 A 
ATOM     20  C   UNL     1       0.061   0.068   0.859  0.00  0.00    +0.033 A 
BRANCH  19  21
ATOM     21  N   UNL     1       0.708  -1.772  -0.673  0.00  0.00    +0.056 N 
ATOM     22  O   UNL     1       1.510  -2.243  -1.446  0.00  0.00    -0.126 OA
ATOM     23  O   UNL     1      -0.317  -2.365  -0.431  0.00  0.00    -0.126 OA
ENDBRANCH  19  21
ENDBRANCH   1  17
BRANCH   7  24
ATOM     24  O   UNL     1       6.073   3.666   0.022  0.00  0.00    -0.506 OA
ATOM     25  H   UNL     1       5.997   2.733   0.265  0.00  0.00    +0.292 HD
ENDBRANCH   7  24
TORSDOF 4
