REMARK  Name = ZINC06585218
REMARK  5 active torsions:
REMARK  status: ('A' for Active; 'I' for Inactive)
REMARK    1  A    between atoms: C_3  and  N_22
REMARK    2  A    between atoms: C_6  and  C_7
REMARK    3  A    between atoms: N_8  and  O_9
REMARK    4  A    between atoms: N_13  and  C_14
REMARK    5  A    between atoms: C_23  and  C_25
REMARK                            x       y       z     vdW  Elec       q    Type
REMARK                         _______ _______ _______ _____ _____    ______ ____
ROOT
ATOM      1  C   UNL     1      -1.330  -0.734  -0.028  0.00  0.00    +0.172 C 
ATOM      2  N   UNL     1      -2.319  -0.330  -0.769  0.00  0.00    -0.071 NA
ATOM      3  N   UNL     1      -1.458  -1.891   0.731  0.00  0.00    -0.251 N 
ATOM      4  C   UNL     1      -2.607  -2.595   0.698  0.00  0.00    +0.309 C 
ATOM      5  O   UNL     1      -3.532  -2.217   0.004  0.00  0.00    -0.252 OA
ATOM      6  N   UNL     1      -2.732  -3.717   1.433  0.00  0.00    -0.269 N 
ATOM      7  H   UNL     1      -0.721  -2.193   1.284  0.00  0.00    +0.158 HD
ATOM      8  H   UNL     1      -1.973  -4.056   1.933  0.00  0.00    +0.156 HD
ENDROOT
BRANCH   6   9
ATOM      9  C   UNL     1      -3.957  -4.394   1.475  0.00  0.00    +0.036 A 
ATOM     10  C   UNL     1      -4.371  -5.009   2.650  0.00  0.00    +0.025 A 
ATOM     11  C   UNL     1      -5.579  -5.677   2.689  0.00  0.00    +0.023 A 
ATOM     12  C   UNL     1      -6.378  -5.733   1.560  0.00  0.00    +0.059 A 
ATOM     13  C   UNL     1      -5.967  -5.121   0.388  0.00  0.00    +0.061 A 
ATOM     14  C   UNL     1      -4.761  -4.447   0.345  0.00  0.00    +0.044 A 
ATOM     15 CL   UNL     1      -6.971  -5.195  -1.026  0.00  0.00    -0.082 Cl
ATOM     16 CL   UNL     1      -7.896  -6.573   1.614  0.00  0.00    -0.082 Cl
ENDBRANCH   6   9
BRANCH   1  22
ATOM     17  C   UNL     1      -0.086   1.416  -0.209  0.00  0.00    +0.013 A 
ATOM     18  C   UNL     1       1.090   2.132  -0.174  0.00  0.00    +0.024 A 
ATOM     19  C   UNL     1       2.294   1.483   0.077  0.00  0.00    +0.033 A 
ATOM     20  C   UNL     1       2.314   0.110   0.293  0.00  0.00    +0.024 A 
ATOM     21  C   UNL     1       1.141  -0.612   0.260  0.00  0.00    +0.013 A 
ATOM     22  C   UNL     1      -0.069   0.037   0.009  0.00  0.00    +0.018 A 
BRANCH  19  23
ATOM     23  N   UNL     1       3.485   2.212   0.111  0.00  0.00    -0.285 N 
ATOM     24  C   UNL     1       3.488   3.477   0.575  0.00  0.00    +0.220 C 
ATOM     25  O   UNL     1       2.477   3.951   1.050  0.00  0.00    -0.275 OA
ATOM     26  H   UNL     1       4.310   1.808  -0.200  0.00  0.00    +0.155 HD
BRANCH  24  27
ATOM     27  C   UNL     1       4.746   4.303   0.504  0.00  0.00    +0.075 C 
ATOM     28  C   UNL     1       5.439   4.651   1.823  0.00  0.00    +0.013 C 
ATOM     29  C   UNL     1       4.685   5.732   1.047  0.00  0.00    +0.013 C 
ENDBRANCH  24  27
ENDBRANCH  19  23
ENDBRANCH   1  22
BRANCH   2  30
ATOM     30  O   UNL     1      -2.144   0.769  -1.645  0.00  0.00    -0.408 OA
ATOM     31  H   UNL     1      -2.934   0.996  -2.154  0.00  0.00    +0.328 HD
ENDBRANCH   2  30
TORSDOF 5
