REMARK  Name = ZINC01085755
REMARK  4 active torsions:
REMARK  status: ('A' for Active; 'I' for Inactive)
REMARK    1  A    between atoms: C_6  and  C_7
REMARK    2  A    between atoms: C_9  and  C_19
REMARK    3  A    between atoms: C_14  and  N_18
REMARK    4  A    between atoms: C_15  and  C_16
REMARK                            x       y       z     vdW  Elec       q    Type
REMARK                         _______ _______ _______ _____ _____    ______ ____
ROOT
ATOM      1  C   UNL     1       1.120   3.642   0.822  0.00  0.00    +0.080 C 
ATOM      2  C   UNL     1       1.278   2.360   0.003  0.00  0.00    +0.139 C 
ATOM      3  C   UNL     1      -0.020   1.595   0.011  0.00  0.00    +0.067 C 
ATOM      4  S   UNL     1       0.002  -0.004   0.002  0.00  0.00    -0.039 S 
ATOM      5  N   UNL     1      -1.197   2.247   0.020  0.00  0.00    -0.299 N 
ATOM      6  C   UNL     1      -1.239   3.623   0.039  0.00  0.00    +0.100 C 
ATOM      7  C   UNL     1      -0.149   4.345   0.414  0.00  0.00    +0.073 C 
ATOM      8  H   UNL     1      -2.025   1.742   0.018  0.00  0.00    +0.154 HD
ENDROOT
BRANCH   1  14
ATOM      9  C   UNL     1       0.047   2.478   2.761  0.00  0.00    +0.005 A 
ATOM     10  C   UNL     1      -0.010   2.158   4.104  0.00  0.00    +0.015 A 
ATOM     11  C   UNL     1       0.935   2.665   4.977  0.00  0.00    +0.018 A 
ATOM     12  C   UNL     1       1.941   3.489   4.504  0.00  0.00    +0.015 A 
ATOM     13  C   UNL     1       2.001   3.804   3.159  0.00  0.00    +0.005 A 
ATOM     14  C   UNL     1       1.055   3.297   2.288  0.00  0.00    -0.038 A 
ATOM     15 BR   UNL     1       0.854   2.232   6.816  0.00  0.00    -0.050 Br
ENDBRANCH   1  14
BRANCH   2  16
ATOM     16  C   UNL     1       2.366   1.510   0.605  0.00  0.00    +0.221 C 
ATOM     17  O   UNL     1       2.957   1.892   1.593  0.00  0.00    -0.275 OA
ATOM     18  N   UNL     1       2.683   0.325   0.046  0.00  0.00    -0.329 N 
ATOM     19  H   UNL     1       2.211   0.020  -0.744  0.00  0.00    +0.145 HD
ATOM     20  H   UNL     1       3.384  -0.222   0.434  0.00  0.00    +0.145 HD
ENDBRANCH   2  16
BRANCH   6  21
ATOM     21  N   UNL     1      -2.392   4.272  -0.331  0.00  0.00    -0.346 N 
ATOM     22  H   UNL     1      -2.426   5.241  -0.324  0.00  0.00    +0.143 HD
ATOM     23  H   UNL     1      -3.172   3.761  -0.599  0.00  0.00    +0.143 HD
ENDBRANCH   6  21
BRANCH   7  24
ATOM     24  C   UNL     1      -0.208   5.776   0.423  0.00  0.00    +0.099 C 
ATOM     25  N   UNL     1      -0.255   6.911   0.430  0.00  0.00    -0.191 NA
ENDBRANCH   7  24
TORSDOF 4
