REMARK  Name = ZINC02882829
REMARK  5 active torsions:
REMARK  status: ('A' for Active; 'I' for Inactive)
REMARK    1  A    between atoms: C_3  and  N_9
REMARK    2  A    between atoms: N_9  and  S_10
REMARK    3  A    between atoms: S_10  and  C_13
REMARK    4  A    between atoms: C_16  and  N_19
REMARK    5  A    between atoms: N_22  and  C_23
REMARK                            x       y       z     vdW  Elec       q    Type
REMARK                         _______ _______ _______ _____ _____    ______ ____
ROOT
ATOM      1  C   UNL     1      -0.124   1.950  -0.269  0.00  0.00    +0.109 A 
ATOM      2  C   UNL     1       0.873   2.889  -0.460  0.00  0.00    +0.030 A 
ATOM      3  C   UNL     1       2.169   2.481  -0.712  0.00  0.00    +0.025 A 
ATOM      4  C   UNL     1       2.469   1.127  -0.773  0.00  0.00    +0.035 A 
ATOM      5  C   UNL     1       1.466   0.186  -0.581  0.00  0.00    +0.025 A 
ATOM      6  C   UNL     1       0.172   0.600  -0.330  0.00  0.00    +0.030 A 
ENDROOT
BRANCH   4   7
ATOM      7  N   UNL     1       3.781   0.711  -1.027  0.00  0.00    -0.269 N 
ATOM      8  C   UNL     1       4.564   1.421  -1.863  0.00  0.00    +0.308 C 
ATOM      9  O   UNL     1       4.160   2.468  -2.331  0.00  0.00    -0.252 OA
ATOM     10  N   UNL     1       5.793   0.971  -2.181  0.00  0.00    -0.269 N 
ATOM     11  H   UNL     1       4.127  -0.089  -0.601  0.00  0.00    +0.156 HD
ATOM     12  H   UNL     1       6.090   0.104  -1.862  0.00  0.00    +0.156 HD
BRANCH  10  13
ATOM     13  C   UNL     1       6.643   1.754  -2.970  0.00  0.00    +0.035 A 
ATOM     14  C   UNL     1       6.119   2.538  -3.990  0.00  0.00    +0.025 A 
ATOM     15  C   UNL     1       6.959   3.315  -4.764  0.00  0.00    +0.022 A 
ATOM     16  C   UNL     1       8.323   3.303  -4.532  0.00  0.00    +0.041 A 
ATOM     17  C   UNL     1       8.849   2.519  -3.520  0.00  0.00    +0.022 A 
ATOM     18  C   UNL     1       8.012   1.745  -2.740  0.00  0.00    +0.025 A 
ATOM     19 CL   UNL     1       9.377   4.275  -5.511  0.00  0.00    -0.084 Cl
ENDBRANCH  10  13
ENDBRANCH   4   7
BRANCH   1  20
ATOM     20  S   UNL     1      -1.777   2.474   0.044  0.00  0.00    +0.072 S 
ATOM     21  O   UNL     1      -1.895   3.785  -0.489  0.00  0.00    -0.150 OA
ATOM     22  O   UNL     1      -2.624   1.408  -0.360  0.00  0.00    -0.150 OA
BRANCH  20  23
ATOM     23  N   UNL     1      -1.943   2.614   1.686  0.00  0.00    -0.215 N 
ATOM     24  H   UNL     1      -2.600   2.076   2.155  0.00  0.00    +0.174 HD
BRANCH  23  27
ATOM     25  C   UNL     1       0.025   5.602   2.530  0.00  0.00    +0.003 A 
ATOM     26  C   UNL     1      -0.772   4.720   1.826  0.00  0.00    +0.026 A 
ATOM     27  C   UNL     1      -1.136   3.507   2.396  0.00  0.00    +0.068 A 
ATOM     28  C   UNL     1      -0.702   3.186   3.677  0.00  0.00    +0.082 A 
ATOM     29  C   UNL     1       0.101   4.071   4.374  0.00  0.00    +0.061 A 
ATOM     30  C   UNL     1       0.461   5.278   3.802  0.00  0.00    +0.021 A 
ATOM     31 CL   UNL     1       0.651   3.669   5.971  0.00  0.00    -0.082 Cl
ATOM     32 CL   UNL     1      -1.160   1.675   4.397  0.00  0.00    -0.080 Cl
ENDBRANCH  23  27
ENDBRANCH  20  23
ENDBRANCH   1  20
TORSDOF 5
