REMARK  Name = ZINC58159204
REMARK  13 active torsions:
REMARK  status: ('A' for Active; 'I' for Inactive)
REMARK    1  A    between atoms: C_1  and  C_2
REMARK    2  A    between atoms: C_2  and  C_4
REMARK    3  A    between atoms: C_2  and  N_26
REMARK    4  A    between atoms: N_10  and  C_11
REMARK    5  A    between atoms: C_11  and  C_12
REMARK    6  A    between atoms: N_17  and  C_18
REMARK    7  A    between atoms: C_21  and  O_24
REMARK    8  A    between atoms: O_24  and  C_25
REMARK    9  A    between atoms: C_27  and  O_29
REMARK   10  A    between atoms: O_29  and  C_30
REMARK   11  A    between atoms: C_30  and  C_31
REMARK   12  A    between atoms: C_30  and  C_32
REMARK   13  A    between atoms: C_30  and  C_33
REMARK                            x       y       z     vdW  Elec       q    Type
REMARK                         _______ _______ _______ _____ _____    ______ ____
ROOT
ATOM      1  C   UNL     1      -1.529  -0.417  -0.076  0.00  0.00    -0.047 C 
ATOM      2  C   UNL     1      -1.629  -1.943  -0.027  0.00  0.00    -0.014 C 
ATOM      3  C   UNL     1      -3.105  -2.352  -0.004  0.00  0.00    -0.003 C 
ATOM      4  C   UNL     1      -3.790  -1.686   1.193  0.00  0.00    -0.019 C 
ATOM      5  C   UNL     1      -3.610  -0.170   1.098  0.00  0.00    -0.078 C 
ATOM      6  N   UNL     1      -2.179   0.158   1.108  0.00  0.00    +0.388 N 
ATOM      7  H   UNL     1      -1.753  -0.221   1.941  0.00  0.00    -0.081 HD
ENDROOT
BRANCH   1   9
ATOM      8  C   UNL     1       0.607  -0.550  -1.366  0.00  0.00    +0.026 C 
ATOM      9  C   UNL     1      -0.056  -0.004  -0.100  0.00  0.00    +0.060 C 
BRANCH   9  10
ATOM     10  N   UNL     1       0.623  -0.548   1.079  0.00  0.00    -0.280 N 
ATOM     11  C   UNL     1       1.731   0.053   1.556  0.00  0.00    +0.401 C 
ATOM     12  O   UNL     1       2.167   1.046   1.008  0.00  0.00    -0.226 OA
ATOM     13  H   UNL     1       0.274  -1.340   1.517  0.00  0.00    +0.152 HD
BRANCH  11  14
ATOM     14  O   UNL     1       2.354  -0.447   2.640  0.00  0.00    -0.445 OA
BRANCH  14  15
ATOM     15  C   UNL     1       3.523   0.241   3.090  0.00  0.00    +0.107 C 
ATOM     16  C   UNL     1       3.159   1.682   3.453  0.00  0.00    +0.055 C 
ATOM     17  C   UNL     1       4.089  -0.468   4.322  0.00  0.00    +0.055 C 
ATOM     18  C   UNL     1       4.573   0.245   1.977  0.00  0.00    +0.055 C 
ENDBRANCH  14  15
ENDBRANCH  11  14
ENDBRANCH   9  10
ENDBRANCH   1   9
BRANCH   6  19
ATOM     19  C   UNL     1      -2.012   1.617   1.096  0.00  0.00    +0.019 C 
BRANCH  19  20
ATOM     20  C   UNL     1      -2.524   2.191   2.392  0.00  0.00    +0.204 C 
ATOM     21  O   UNL     1      -2.982   1.458   3.241  0.00  0.00    -0.277 OA
ATOM     22  N   UNL     1      -2.472   3.521   2.606  0.00  0.00    -0.241 N 
ATOM     23  C   UNL     1      -2.930   4.035   3.765  0.00  0.00    +0.310 C 
ATOM     24  O   UNL     1      -3.390   3.299   4.617  0.00  0.00    -0.252 OA
ATOM     25  N   UNL     1      -2.879   5.364   3.980  0.00  0.00    -0.269 N 
ATOM     26  H   UNL     1      -2.106   4.108   1.927  0.00  0.00    +0.159 HD
ATOM     27  H   UNL     1      -2.450   5.944   3.331  0.00  0.00    +0.156 HD
BRANCH  25  28
ATOM     28  C   UNL     1      -3.445   5.909   5.140  0.00  0.00    +0.035 A 
ATOM     29  C   UNL     1      -4.062   7.152   5.094  0.00  0.00    +0.027 A 
ATOM     30  C   UNL     1      -4.620   7.688   6.238  0.00  0.00    +0.047 A 
ATOM     31  C   UNL     1      -4.563   6.986   7.433  0.00  0.00    +0.120 A 
ATOM     32  C   UNL     1      -3.946   5.744   7.480  0.00  0.00    +0.047 A 
ATOM     33  C   UNL     1      -3.393   5.204   6.335  0.00  0.00    +0.027 A 
BRANCH  31  34
ATOM     34  O   UNL     1      -5.112   7.514   8.559  0.00  0.00    -0.495 OA
ATOM     35  C   UNL     1      -5.017   6.737   9.754  0.00  0.00    +0.277 C 
ENDBRANCH  31  34
ENDBRANCH  25  28
ENDBRANCH  19  20
ENDBRANCH   6  19
TORSDOF 8
