REMARK  Name = ZINC04236960
REMARK  10 active torsions:
REMARK  status: ('A' for Active; 'I' for Inactive)
REMARK    1  A    between atoms: C_1  and  C_2
REMARK    2  A    between atoms: C_5  and  O_32
REMARK    3  A    between atoms: C_7  and  C_29
REMARK    4  A    between atoms: C_7  and  C_30
REMARK    5  A    between atoms: C_12  and  O_28
REMARK    6  A    between atoms: C_14  and  C_16
REMARK    7  A    between atoms: C_16  and  C_17
REMARK    8  A    between atoms: N_19  and  C_20
REMARK    9  A    between atoms: C_20  and  C_21
REMARK   10  A    between atoms: C_30  and  O_31
REMARK                            x       y       z     vdW  Elec       q    Type
REMARK                         _______ _______ _______ _____ _____    ______ ____
ROOT
ATOM      1  C   UNL     1       0.497   1.264   0.228  0.00  0.00    +0.012 C 
ATOM      2  C   UNL     1      -0.219   1.758   1.487  0.00  0.00    -0.023 C 
ATOM      3  C   UNL     1      -1.732   1.635   1.294  0.00  0.00    +0.010 C 
ATOM      4  C   UNL     1      -2.097   0.171   1.041  0.00  0.00    +0.032 C 
ATOM      5  C   UNL     1      -1.665  -0.677   2.239  0.00  0.00    +0.123 C 
ATOM      6  C   UNL     1      -0.152  -0.554   2.432  0.00  0.00    +0.020 C 
ATOM      7  C   UNL     1       0.213   0.910   2.685  0.00  0.00    +0.006 C 
ATOM      8  C   UNL     1       1.726   1.033   2.877  0.00  0.00    +0.007 C 
ATOM      9  C   UNL     1       2.090   2.497   3.131  0.00  0.00    +0.032 C 
ATOM     10  C   UNL     1       1.658   3.345   1.933  0.00  0.00    +0.119 C 
ATOM     11  C   UNL     1       0.145   3.222   1.740  0.00  0.00    +0.032 C 
ATOM     12  C   UNL     1       0.281  -1.402   3.630  0.00  0.00    +0.016 C 
ENDROOT
BRANCH  10  13
ATOM     13  O   UNL     1       2.327   2.884   0.757  0.00  0.00    -0.391 OA
ATOM     14  H   UNL     1       3.292   2.933   0.808  0.00  0.00    +0.210 HD
ENDBRANCH  10  13
BRANCH   5  15
ATOM     15  O   UNL     1      -2.005  -2.045   2.002  0.00  0.00    -0.391 OA
ATOM     16  H   UNL     1      -2.951  -2.198   1.871  0.00  0.00    +0.210 HD
ENDBRANCH   5  15
BRANCH  11  17
ATOM     17  C   UNL     1      -0.287   4.070   0.542  0.00  0.00    +0.102 C 
BRANCH  17  18
ATOM     18  C   UNL     1      -0.040   5.526   0.842  0.00  0.00    +0.214 C 
ATOM     19  O   UNL     1       0.435   5.853   1.909  0.00  0.00    -0.276 OA
ATOM     20  N   UNL     1      -0.347   6.464  -0.075  0.00  0.00    -0.311 N 
ATOM     21  H   UNL     1      -0.727   6.202  -0.929  0.00  0.00    +0.149 HD
BRANCH  20  22
ATOM     22  C   UNL     1      -0.107   7.880   0.216  0.00  0.00    +0.139 C 
BRANCH  22  23
ATOM     23  C   UNL     1      -0.533   8.715  -0.964  0.00  0.00    -0.030 A 
ATOM     24  C   UNL     1       0.375   9.011  -1.964  0.00  0.00    +0.008 A 
ATOM     25  C   UNL     1      -0.015   9.773  -3.049  0.00  0.00    +0.038 A 
ATOM     26  C   UNL     1      -1.313  10.248  -3.129  0.00  0.00    +0.123 A 
ATOM     27  C   UNL     1      -2.220   9.955  -2.124  0.00  0.00    +0.038 A 
ATOM     28  C   UNL     1      -1.829   9.189  -1.043  0.00  0.00    +0.008 A 
ATOM     29  F   UNL     1      -1.695  10.997  -4.187  0.00  0.00    -0.205 F 
ENDBRANCH  22  23
ENDBRANCH  20  22
ENDBRANCH  17  18
ENDBRANCH  11  17
BRANCH   6  30
ATOM     30  C   UNL     1       0.565  -1.048   1.173  0.00  0.00    +0.165 C 
BRANCH  30  31
ATOM     31  O   UNL     1       0.383  -2.459   1.044  0.00  0.00    -0.394 OA
ATOM     32  H   UNL     1       0.812  -2.842   0.266  0.00  0.00    +0.209 HD
ENDBRANCH  30  31
ENDBRANCH   6  30
TORSDOF 8
