REMARK  Name = ZINC12759595
REMARK  8 active torsions:
REMARK  status: ('A' for Active; 'I' for Inactive)
REMARK    1  A    between atoms: C_4  and  C_7
REMARK    2  A    between atoms: C_7  and  C_8
REMARK    3  A    between atoms: C_8  and  C_10
REMARK    4  A    between atoms: C_8  and  N_23
REMARK    5  A    between atoms: N_12  and  C_13
REMARK    6  A    between atoms: C_13  and  C_14
REMARK    7  A    between atoms: C_14  and  S_15
REMARK    8  A    between atoms: S_15  and  C_16
REMARK                            x       y       z     vdW  Elec       q    Type
REMARK                         _______ _______ _______ _____ _____    ______ ____
ROOT
ATOM      1  C   UNL     1      -2.449   1.120   0.020  0.00  0.00    +0.165 C 
ENDROOT
BRANCH   1   2
ATOM      2  N   UNL     1      -1.191   1.870   0.018  0.00  0.00    -0.288 N 
ATOM      3  C   UNL     1      -0.014   1.212   0.009  0.00  0.00    +0.298 C 
ATOM      4  O   UNL     1       0.002  -0.004   0.002  0.00  0.00    -0.253 OA
ATOM      5  N   UNL     1       1.143   1.901   0.001  0.00  0.00    -0.313 N 
ATOM      6  H   UNL     1      -1.204   2.840   0.023  0.00  0.00    +0.151 HD
ATOM      7  H   UNL     1       1.990   1.428  -0.009  0.00  0.00    +0.146 HD
ATOM      8  H   UNL     1       1.130   2.871   0.007  0.00  0.00    +0.146 HD
ENDBRANCH   1   2
BRANCH   1   9
ATOM      9  C   UNL     1      -2.511   0.246   1.246  0.00  0.00    +0.234 C 
ATOM     10  O   UNL     1      -1.493  -0.039   1.840  0.00  0.00    -0.274 OA
ATOM     11  N   UNL     1      -3.699  -0.219   1.682  0.00  0.00    -0.313 N 
ATOM     12  H   UNL     1      -4.513   0.008   1.207  0.00  0.00    +0.149 HD
BRANCH  11  13
ATOM     13  C   UNL     1      -3.759  -1.069   2.874  0.00  0.00    +0.115 C 
BRANCH  13  14
ATOM     14  C   UNL     1      -5.213  -1.457   3.151  0.00  0.00    +0.093 C 
BRANCH  14  15
ATOM     15  S   UNL     1      -5.288  -2.509   4.626  0.00  0.00    -0.124 S 
BRANCH  15  16
ATOM     16  C   UNL     1      -7.004  -2.865   4.809  0.00  0.00    +0.008 A 
ATOM     17  C   UNL     1      -7.923  -2.343   3.908  0.00  0.00    +0.016 A 
ATOM     18  C   UNL     1      -9.267  -2.629   4.051  0.00  0.00    +0.016 A 
ATOM     19  C   UNL     1      -9.699  -3.424   5.097  0.00  0.00    +0.018 A 
ATOM     20  C   UNL     1      -8.787  -3.941   6.000  0.00  0.00    +0.016 A 
ATOM     21  C   UNL     1      -7.441  -3.664   5.859  0.00  0.00    +0.016 A 
ATOM     22 BR   UNL     1     -11.541  -3.806   5.294  0.00  0.00    -0.050 Br
ENDBRANCH  15  16
ENDBRANCH  14  15
ENDBRANCH  13  14
ENDBRANCH  11  13
ENDBRANCH   1   9
BRANCH   1  23
ATOM     23  C   UNL     1      -2.524   0.246  -1.234  0.00  0.00    +0.067 C 
BRANCH  23  27
ATOM     24  C   UNL     1      -2.699   2.738  -4.699  0.00  0.00    +0.000 A 
ATOM     25  C   UNL     1      -1.475   2.327  -4.204  0.00  0.00    +0.000 A 
ATOM     26  C   UNL     1      -1.419   1.521  -3.083  0.00  0.00    +0.004 A 
ATOM     27  C   UNL     1      -2.586   1.125  -2.456  0.00  0.00    -0.045 A 
ATOM     28  C   UNL     1      -3.810   1.532  -2.954  0.00  0.00    +0.004 A 
ATOM     29  C   UNL     1      -3.866   2.343  -4.072  0.00  0.00    +0.000 A 
ENDBRANCH  23  27
ENDBRANCH   1  23
TORSDOF 8
