REMARK  Name = ZINC35477276
REMARK  7 active torsions:
REMARK  status: ('A' for Active; 'I' for Inactive)
REMARK    1  A    between atoms: C_1  and  C_2
REMARK    2  A    between atoms: C_4  and  N_15
REMARK    3  A    between atoms: N_8  and  C_9
REMARK    4  A    between atoms: N_15  and  C_16
REMARK    5  A    between atoms: C_19  and  N_22
REMARK    6  A    between atoms: N_22  and  S_23
REMARK    7  A    between atoms: S_23  and  C_26
REMARK                            x       y       z     vdW  Elec       q    Type
REMARK                         _______ _______ _______ _____ _____    ______ ____
ROOT
ATOM      1  C   UNL     1       0.436  -2.025  -3.588  0.00  0.00    +0.032 A 
ATOM      2  C   UNL     1       0.921  -0.755  -3.873  0.00  0.00    +0.025 A 
ATOM      3  C   UNL     1       0.627  -0.160  -5.083  0.00  0.00    +0.026 A 
ATOM      4  C   UNL     1      -0.152  -0.832  -6.016  0.00  0.00    +0.048 A 
ATOM      5  C   UNL     1      -0.636  -2.102  -5.731  0.00  0.00    +0.026 A 
ATOM      6  C   UNL     1      -0.339  -2.699  -4.523  0.00  0.00    +0.025 A 
ENDROOT
BRANCH   1   7
ATOM      7  N   UNL     1       0.734  -2.629  -2.359  0.00  0.00    -0.299 N 
ATOM      8  H   UNL     1       0.847  -3.591  -2.307  0.00  0.00    +0.154 HD
BRANCH   7  12
ATOM      9  C   UNL     1       1.851  -2.187   2.414  0.00  0.00    +0.063 C 
ATOM     10  C   UNL     1       1.404  -1.612   1.094  0.00  0.00    +0.019 A 
ATOM     11  C   UNL     1       1.285  -2.425  -0.016  0.00  0.00    +0.064 A 
ATOM     12  C   UNL     1       0.868  -1.852  -1.220  0.00  0.00    +0.128 A 
ATOM     13  N   UNL     1       0.601  -0.550  -1.256  0.00  0.00    -0.201 NA
ATOM     14  C   UNL     1       0.728   0.195  -0.168  0.00  0.00    +0.195 A 
ATOM     15  N   UNL     1       1.117  -0.323   0.988  0.00  0.00    -0.332 N 
ATOM     16  N   UNL     1       0.442   1.547  -0.239  0.00  0.00    -0.312 N 
ATOM     17  H   UNL     1       0.153   1.938  -1.079  0.00  0.00    +0.149 HD
ATOM     18  H   UNL     1       1.196   0.250   1.766  0.00  0.00    +0.168 HD
BRANCH  16  19
ATOM     19  C   UNL     1       0.576   2.388   0.953  0.00  0.00    +0.073 C 
ATOM     20  C   UNL     1      -0.708   2.310   1.780  0.00  0.00    +0.022 C 
ATOM     21  C   UNL     1      -0.568   3.188   3.025  0.00  0.00    +0.002 C 
ATOM     22  C   UNL     1      -0.322   4.637   2.601  0.00  0.00    +0.000 C 
ATOM     23  C   UNL     1       0.963   4.716   1.774  0.00  0.00    +0.002 C 
ATOM     24  C   UNL     1       0.823   3.837   0.529  0.00  0.00    +0.022 C 
ENDBRANCH  16  19
ENDBRANCH   7  12
ENDBRANCH   1   7
BRANCH   4  25
ATOM     25  N   UNL     1      -0.450  -0.228  -7.243  0.00  0.00    -0.216 N 
ATOM     26  H   UNL     1      -0.727   0.701  -7.272  0.00  0.00    +0.174 HD
BRANCH  25  27
ATOM     27  S   UNL     1      -0.330  -1.100  -8.646  0.00  0.00    +0.072 S 
ATOM     28  O   UNL     1      -1.089  -2.286  -8.454  0.00  0.00    -0.150 OA
ATOM     29  O   UNL     1      -0.587  -0.195  -9.711  0.00  0.00    -0.150 OA
BRANCH  27  30
ATOM     30  C   UNL     1       1.352  -1.600  -8.806  0.00  0.00    +0.112 A 
ATOM     31  C   UNL     1       2.277  -0.741  -9.368  0.00  0.00    +0.032 A 
ATOM     32  C   UNL     1       3.597  -1.130  -9.496  0.00  0.00    +0.051 A 
ATOM     33  C   UNL     1       3.998  -2.384  -9.059  0.00  0.00    +0.162 A 
ATOM     34  C   UNL     1       3.068  -3.247  -8.491  0.00  0.00    +0.164 A 
ATOM     35  C   UNL     1       1.746  -2.849  -8.363  0.00  0.00    +0.078 A 
ATOM     36  O   UNL     1       3.441  -4.479  -8.049  0.00  0.00    -0.485 OA
ATOM     37  C   UNL     1       4.693  -4.983  -8.527  0.00  0.00    +0.270 C 
ATOM     38  C   UNL     1       5.739  -3.866  -8.406  0.00  0.00    +0.270 C 
ATOM     39  O   UNL     1       5.300  -2.754  -9.195  0.00  0.00    -0.485 OA
ENDBRANCH  27  30
ENDBRANCH  25  27
ENDBRANCH   4  25
TORSDOF 6
