REMARK  Name = ZINC67066047
REMARK  6 active torsions:
REMARK  status: ('A' for Active; 'I' for Inactive)
REMARK    1  A    between atoms: C_6  and  N_7
REMARK    2  A    between atoms: C_10  and  C_13
REMARK    3  A    between atoms: C_13  and  N_14
REMARK    4  A    between atoms: N_17  and  N_18
REMARK    5  A    between atoms: C_19  and  C_21
REMARK    6  A    between atoms: C_21  and  C_22
REMARK                            x       y       z     vdW  Elec       q    Type
REMARK                         _______ _______ _______ _____ _____    ______ ____
ROOT
ATOM      1  N   UNL     1      -4.598  -4.036  -0.688  0.00  0.00    -0.298 N 
ATOM      2  C   UNL     1      -5.273  -5.168  -0.409  0.00  0.00    +0.316 C 
ATOM      3  O   UNL     1      -4.774  -6.012   0.310  0.00  0.00    -0.251 OA
ATOM      4  N   UNL     1      -6.501  -5.366  -0.927  0.00  0.00    -0.218 N 
ATOM      5  H   UNL     1      -4.995  -3.363  -1.262  0.00  0.00    +0.150 HD
ATOM      6  H   UNL     1      -6.987  -6.181  -0.727  0.00  0.00    +0.174 HD
ENDROOT
BRANCH   4   7
ATOM      7  N   UNL     1      -7.076  -4.394  -1.757  0.00  0.00    -0.233 N 
ATOM      8  C   UNL     1      -8.304  -4.591  -2.275  0.00  0.00    +0.229 C 
ATOM      9  O   UNL     1      -8.912  -5.610  -2.024  0.00  0.00    -0.274 OA
ATOM     10  H   UNL     1      -6.590  -3.579  -1.958  0.00  0.00    +0.173 HD
BRANCH   8  11
ATOM     11  C   UNL     1      -8.922  -3.546  -3.167  0.00  0.00    +0.101 C 
BRANCH  11  12
ATOM     12  C   UNL     1     -10.308  -4.014  -3.617  0.00  0.00    -0.002 C 
ATOM     13  C   UNL     1     -10.166  -5.260  -4.493  0.00  0.00    +0.004 C 
ATOM     14  C   UNL     1     -11.551  -5.728  -4.942  0.00  0.00    +0.000 C 
ATOM     15  C   UNL     1     -12.230  -4.616  -5.745  0.00  0.00    +0.000 C 
ATOM     16  C   UNL     1     -12.372  -3.369  -4.869  0.00  0.00    +0.000 C 
ATOM     17  C   UNL     1     -10.987  -2.901  -4.419  0.00  0.00    +0.004 C 
ENDBRANCH  11  12
ENDBRANCH   8  11
ENDBRANCH   4   7
BRANCH   1  18
ATOM     18  C   UNL     1      -3.262  -3.821  -0.125  0.00  0.00    +0.111 C 
BRANCH  18  22
ATOM     19  N   UNL     1      -1.199  -0.720   0.010  0.00  0.00    -0.329 N 
ATOM     20  C   UNL     1      -2.546  -0.133   0.020  0.00  0.00    +0.105 C 
ATOM     21  C   UNL     1      -3.555  -1.301  -0.002  0.00  0.00    +0.025 C 
ATOM     22  C   UNL     1      -2.722  -2.469  -0.594  0.00  0.00    +0.025 C 
ATOM     23  C   UNL     1      -1.323  -2.189   0.004  0.00  0.00    +0.110 C 
BRANCH  19  29
ATOM     24  C   UNL     1      -0.017   1.384   0.010  0.00  0.00    +0.026 A 
ATOM     25  C   UNL     1       1.171   2.091   0.002  0.00  0.00    +0.043 A 
ATOM     26  C   UNL     1       2.379   1.417  -0.013  0.00  0.00    +0.159 A 
ATOM     27  C   UNL     1       2.401   0.030  -0.021  0.00  0.00    +0.160 A 
ATOM     28  C   UNL     1       1.215  -0.680  -0.014  0.00  0.00    +0.064 A 
ATOM     29  C   UNL     1       0.002  -0.004   0.002  0.00  0.00    +0.033 A 
ATOM     30  F   UNL     1       3.582  -0.626  -0.037  0.00  0.00    -0.202 F 
ATOM     31  F   UNL     1       3.538   2.111  -0.020  0.00  0.00    -0.202 F 
ENDBRANCH  19  29
ENDBRANCH  18  22
ENDBRANCH   1  18
TORSDOF 6
