REMARK  Name = ZINC60319061
REMARK  12 active torsions:
REMARK  status: ('A' for Active; 'I' for Inactive)
REMARK    1  A    between atoms: C_1  and  C_2
REMARK    2  A    between atoms: C_2  and  C_3
REMARK    3  A    between atoms: C_2  and  C_4
REMARK    4  A    between atoms: C_4  and  N_5
REMARK    5  A    between atoms: C_12  and  N_14
REMARK    6  A    between atoms: C_15  and  C_17
REMARK    7  A    between atoms: C_17  and  C_18
REMARK    8  A    between atoms: C_18  and  N_19
REMARK    9  A    between atoms: N_19  and  C_20
REMARK   10  A    between atoms: C_23  and  S_29
REMARK   11  A    between atoms: C_25  and  N_26
REMARK   12  A    between atoms: S_29  and  N_32
REMARK                            x       y       z     vdW  Elec       q    Type
REMARK                         _______ _______ _______ _____ _____    ______ ____
ROOT
ATOM      1  C   UNL     1      -6.215  -3.833   5.453  0.00  0.00    +0.114 C 
ENDROOT
BRANCH   1   3
ATOM      2  N   UNL     1      -4.396  -2.203   5.060  0.00  0.00    -0.285 N 
ATOM      3  C   UNL     1      -5.027  -3.330   4.674  0.00  0.00    +0.219 C 
ATOM      4  O   UNL     1      -4.638  -3.939   3.700  0.00  0.00    -0.275 OA
ATOM      5  H   UNL     1      -4.658  -1.757   5.881  0.00  0.00    +0.155 HD
BRANCH   2  13
ATOM      6  N   UNL     1      -0.439  -0.208   1.742  0.00  0.00    -0.346 N 
ATOM      7  C   UNL     1      -0.935  -0.588   0.525  0.00  0.00    +0.087 A 
ATOM      8  C   UNL     1      -2.100  -1.234   0.686  0.00  0.00    +0.027 A 
ATOM      9  C   UNL     1      -2.374  -1.273   2.124  0.00  0.00    +0.002 A 
ATOM     10  C   UNL     1      -1.294  -0.618   2.744  0.00  0.00    +0.049 A 
ATOM     11  C   UNL     1      -1.267  -0.498   4.129  0.00  0.00    +0.028 A 
ATOM     12  C   UNL     1      -2.292  -1.022   4.885  0.00  0.00    +0.025 A 
ATOM     13  C   UNL     1      -3.361  -1.675   4.276  0.00  0.00    +0.034 A 
ATOM     14  C   UNL     1      -3.410  -1.797   2.900  0.00  0.00    +0.033 A 
BRANCH   6  15
ATOM     15  C   UNL     1       0.815   0.519   1.951  0.00  0.00    +0.124 C 
BRANCH  15  17
ATOM     16  C   UNL     1       2.179  -1.350   1.008  0.00  0.00    +0.009 C 
ATOM     17  C   UNL     1       1.940  -0.476   2.241  0.00  0.00    +0.003 C 
ATOM     18  C   UNL     1       3.221   0.287   2.582  0.00  0.00    +0.009 C 
ENDBRANCH  15  17
ENDBRANCH   6  15
ENDBRANCH   2  13
ENDBRANCH   1   3
BRANCH   1  19
ATOM     19  C   UNL     1      -6.739  -5.118   4.810  0.00  0.00    +0.111 C 
BRANCH  19  20
ATOM     20  N   UNL     1      -7.894  -5.607   5.567  0.00  0.00    -0.342 N 
ATOM     21  H   UNL     1      -8.205  -5.119   6.346  0.00  0.00    +0.146 HD
BRANCH  20  22
ATOM     22  C   UNL     1      -8.548  -6.775   5.167  0.00  0.00    +0.058 A 
ATOM     23  C   UNL     1      -8.051  -7.523   4.107  0.00  0.00    +0.027 A 
ATOM     24  C   UNL     1      -8.699  -8.677   3.715  0.00  0.00    +0.030 A 
ATOM     25  C   UNL     1      -9.841  -9.089   4.376  0.00  0.00    +0.107 A 
ATOM     26  C   UNL     1     -10.339  -8.347   5.431  0.00  0.00    +0.063 A 
ATOM     27  C   UNL     1      -9.693  -7.194   5.832  0.00  0.00    +0.149 A 
BRANCH  27  28
ATOM     28  N   UNL     1     -10.222  -6.404   6.966  0.00  0.00    +0.058 N 
ATOM     29  O   UNL     1      -9.461  -5.881   7.746  0.00  0.00    -0.126 OA
ATOM     30  O   UNL     1     -11.416  -6.281   7.111  0.00  0.00    -0.126 OA
ENDBRANCH  27  28
BRANCH  25  31
ATOM     31  S   UNL     1     -10.665 -10.563   3.872  0.00  0.00    +0.056 S 
ATOM     32  O   UNL     1     -12.016 -10.439   4.297  0.00  0.00    -0.153 OA
ATOM     33  O   UNL     1     -10.312 -10.782   2.513  0.00  0.00    -0.153 OA
BRANCH  31  34
ATOM     34  N   UNL     1     -10.009 -11.812   4.739  0.00  0.00    -0.204 NA
ATOM     35  H   UNL     1     -10.550 -12.587   4.958  0.00  0.00    +0.144 HD
ATOM     36  H   UNL     1      -9.084 -11.768   5.028  0.00  0.00    +0.144 HD
ENDBRANCH  31  34
ENDBRANCH  25  31
ENDBRANCH  20  22
ENDBRANCH  19  20
ENDBRANCH   1  19
TORSDOF 10
