REMARK  Name = ZINC09217677
REMARK  10 active torsions:
REMARK  status: ('A' for Active; 'I' for Inactive)
REMARK    1  A    between atoms: C_1  and  C_2
REMARK    2  A    between atoms: C_2  and  C_4
REMARK    3  A    between atoms: C_2  and  S_18
REMARK    4  A    between atoms: N_6  and  C_7
REMARK    5  A    between atoms: C_8  and  C_15
REMARK    6  A    between atoms: S_18  and  C_19
REMARK    7  A    between atoms: N_23  and  C_24
REMARK    8  A    between atoms: C_24  and  C_25
REMARK    9  A    between atoms: C_25  and  C_26
REMARK   10  A    between atoms: C_25  and  C_27
REMARK                            x       y       z     vdW  Elec       q    Type
REMARK                         _______ _______ _______ _____ _____    ______ ____
ROOT
ATOM      1  C   UNL     1       0.056   0.565   0.406  0.00  0.00    +0.029 C 
ATOM      2  C   UNL     1      -0.043  -0.926   0.077  0.00  0.00    +0.137 C 
ENDROOT
BRANCH   2   3
ATOM      3  C   UNL     1       0.605  -1.727   1.177  0.00  0.00    +0.231 C 
ATOM      4  O   UNL     1       1.761  -2.076   1.073  0.00  0.00    -0.274 OA
ATOM      5  N   UNL     1      -0.102  -2.055   2.277  0.00  0.00    -0.278 N 
ATOM      6  H   UNL     1      -1.027  -1.775   2.361  0.00  0.00    +0.155 HD
BRANCH   5   7
ATOM      7  C   UNL     1       0.494  -2.792   3.290  0.00  0.00    +0.084 A 
ATOM      8  C   UNL     1      -0.073  -3.220   4.476  0.00  0.00    +0.068 A 
ATOM      9  C   UNL     1       0.775  -3.990   5.384  0.00  0.00    -0.023 A 
ATOM     10  C   UNL     1       2.028  -4.183   4.933  0.00  0.00    -0.004 A 
ATOM     11  S   UNL     1       2.065  -3.374   3.354  0.00  0.00    -0.077 S 
ATOM     12  C   UNL     1       2.858  -4.976   5.906  0.00  0.00    +0.043 C 
ATOM     13  C   UNL     1       2.080  -4.896   7.239  0.00  0.00    +0.010 C 
ATOM     14  C   UNL     1       0.637  -4.664   6.747  0.00  0.00    +0.037 C 
BRANCH   8  15
ATOM     15  C   UNL     1      -1.468  -2.914   4.809  0.00  0.00    +0.244 C 
ATOM     16  O   UNL     1      -2.354  -3.680   4.479  0.00  0.00    -0.270 OA
ATOM     17  N   UNL     1      -1.768  -1.786   5.482  0.00  0.00    -0.325 N 
ATOM     18  H   UNL     1      -1.061  -1.175   5.745  0.00  0.00    +0.145 HD
ATOM     19  H   UNL     1      -2.691  -1.583   5.702  0.00  0.00    +0.145 HD
ENDBRANCH   8  15
ENDBRANCH   5   7
ENDBRANCH   2   3
BRANCH   2  20
ATOM     20  S   UNL     1       0.806  -1.257  -1.491  0.00  0.00    -0.073 S 
BRANCH  20  21
ATOM     21  C   UNL     1      -0.145  -0.378  -2.685  0.00  0.00    +0.194 A 
ATOM     22  N   UNL     1      -1.213   0.343  -2.441  0.00  0.00    -0.121 NA
ATOM     23  N   UNL     1      -1.666   0.871  -3.657  0.00  0.00    -0.112 NA
ATOM     24  C   UNL     1      -0.861   0.457  -4.604  0.00  0.00    +0.220 A 
ATOM     25  N   UNL     1       0.103  -0.322  -4.028  0.00  0.00    -0.290 N 
ATOM     26  N   UNL     1      -0.966   0.759  -5.955  0.00  0.00    -0.295 N 
ATOM     27  C   UNL     1      -1.662  -0.147  -6.883  0.00  0.00    +0.136 C 
ATOM     28  C   UNL     1      -2.675   0.672  -7.690  0.00  0.00    +0.179 C 
ATOM     29  O   UNL     1      -2.012   1.795  -8.277  0.00  0.00    -0.377 OA
ATOM     30  C   UNL     1      -1.461   2.711  -7.328  0.00  0.00    +0.179 C 
ATOM     31  C   UNL     1      -0.391   1.999  -6.501  0.00  0.00    +0.136 C 
BRANCH  25  32
ATOM     32  C   UNL     1       1.207  -0.984  -4.728  0.00  0.00    +0.130 C 
BRANCH  32  33
ATOM     33  C   UNL     1       2.368  -0.001  -4.894  0.00  0.00    +0.003 C 
ATOM     34  C   UNL     1       2.922   0.371  -3.517  0.00  0.00    +0.009 C 
ATOM     35  C   UNL     1       3.472  -0.652  -5.729  0.00  0.00    +0.009 C 
ENDBRANCH  32  33
ENDBRANCH  25  32
ENDBRANCH  20  21
ENDBRANCH   2  20
TORSDOF 7
