REMARK  Name = ZINC21321192
REMARK  8 active torsions:
REMARK  status: ('A' for Active; 'I' for Inactive)
REMARK    1  A    between atoms: C_1  and  C_2
REMARK    2  A    between atoms: C_5  and  C_7
REMARK    3  A    between atoms: N_8  and  N_9
REMARK    4  A    between atoms: C_13  and  S_16
REMARK    5  A    between atoms: N_14  and  N_15
REMARK    6  A    between atoms: S_16  and  C_17
REMARK    7  A    between atoms: C_17  and  C_18
REMARK    8  A    between atoms: C_18  and  C_20
REMARK                            x       y       z     vdW  Elec       q    Type
REMARK                         _______ _______ _______ _____ _____    ______ ____
ROOT
ATOM      1  N   UNL     1       0.049   0.931   0.778  0.00  0.00    -0.204 N 
ATOM      2  C   UNL     1       1.232   1.646   0.663  0.00  0.00    +0.254 A 
ATOM      3  N   UNL     1       1.358   2.948   0.749  0.00  0.00    -0.109 NA
ATOM      4  N   UNL     1       2.712   3.265   0.580  0.00  0.00    -0.119 NA
ATOM      5  C   UNL     1       3.369   2.146   0.388  0.00  0.00    +0.210 A 
ATOM      6  N   UNL     1       2.472   1.117   0.434  0.00  0.00    -0.211 N 
ATOM      7  H   UNL     1       0.058  -0.165   0.688  0.00  0.00    +0.177 HD
ENDROOT
BRANCH   6   8
ATOM      8  N   UNL     1       2.763  -0.209   0.278  0.00  0.00    -0.294 N 
ATOM      9  H   UNL     1       3.800  -0.527   0.097  0.00  0.00    +0.163 HD
ATOM     10  H   UNL     1       1.959  -0.959   0.333  0.00  0.00    +0.163 HD
ENDBRANCH   6   8
BRANCH   1  12
ATOM     11  C   UNL     1      -2.268   0.936   1.111  0.00  0.00    +0.176 C 
ATOM     12  N   UNL     1      -1.157   1.606   1.008  0.00  0.00    -0.184 NA
BRANCH  11  17
ATOM     13  C   UNL     1      -5.549   4.639   1.894  0.00  0.00    +0.086 C 
ATOM     14  C   UNL     1      -4.975   3.260   1.696  0.00  0.00    +0.103 A 
ATOM     15  C   UNL     1      -5.677   2.109   1.700  0.00  0.00    +0.045 A 
ATOM     16  C   UNL     1      -4.761   1.065   1.474  0.00  0.00    +0.051 A 
ATOM     17  C   UNL     1      -3.530   1.642   1.352  0.00  0.00    +0.148 A 
ATOM     18  O   UNL     1      -3.679   2.975   1.486  0.00  0.00    -0.459 OA
ENDBRANCH  11  17
ENDBRANCH   1  12
BRANCH   5  19
ATOM     19  S   UNL     1       5.104   1.997   0.118  0.00  0.00    -0.077 S 
BRANCH  19  20
ATOM     20  C   UNL     1       5.705   3.707   0.174  0.00  0.00    +0.152 C 
BRANCH  20  21
ATOM     21  C   UNL     1       7.196   3.723  -0.046  0.00  0.00    +0.147 C 
ATOM     22  O   UNL     1       7.791   2.687  -0.222  0.00  0.00    -0.296 OA
BRANCH  21  23
ATOM     23  C   UNL     1       7.944   5.031  -0.046  0.00  0.00    +0.062 C 
ATOM     24  C   UNL     1       7.656   5.783  -1.347  0.00  0.00    +0.000 C 
ATOM     25  C   UNL     1       8.415   7.112  -1.347  0.00  0.00    +0.007 C 
ATOM     26  C   UNL     1       9.917   6.840  -1.237  0.00  0.00    -0.010 C 
ATOM     27  C   UNL     1      10.371   5.993  -2.427  0.00  0.00    +0.007 C 
ATOM     28  C   UNL     1       9.612   4.665  -2.427  0.00  0.00    -0.010 C 
ATOM     29  C   UNL     1       8.110   4.936  -2.537  0.00  0.00    +0.007 C 
ATOM     30  C   UNL     1       9.900   3.913  -1.126  0.00  0.00    +0.007 C 
ATOM     31  C   UNL     1       9.446   4.760   0.064  0.00  0.00    +0.000 C 
ATOM     32  C   UNL     1      10.205   6.088   0.064  0.00  0.00    +0.007 C 
ENDBRANCH  21  23
ENDBRANCH  20  21
ENDBRANCH  19  20
ENDBRANCH   5  19
TORSDOF 7
