REMARK  Name = ZINC36527819
REMARK  9 active torsions:
REMARK  status: ('A' for Active; 'I' for Inactive)
REMARK    1  A    between atoms: C_1  and  N_2
REMARK    2  A    between atoms: N_2  and  C_3
REMARK    3  A    between atoms: C_3  and  C_5
REMARK    4  A    between atoms: C_3  and  C_14
REMARK    5  A    between atoms: C_6  and  O_13
REMARK    6  A    between atoms: C_8  and  O_12
REMARK    7  A    between atoms: C_10  and  O_11
REMARK    8  A    between atoms: N_16  and  C_17
REMARK    9  A    between atoms: C_23  and  C_25
REMARK                            x       y       z     vdW  Elec       q    Type
REMARK                         _______ _______ _______ _____ _____    ______ ____
ROOT
ATOM      1  C   UNL     1       1.295  -0.902   1.601  0.00  0.00    +0.199 C 
ENDROOT
BRANCH   1   2
ATOM      2  C   UNL     1       2.386  -0.125   2.292  0.00  0.00    +0.065 A 
ATOM      3  C   UNL     1       2.060   0.925   3.138  0.00  0.00    +0.129 A 
ATOM      4  C   UNL     1       3.064   1.640   3.774  0.00  0.00    +0.091 A 
ATOM      5  C   UNL     1       4.393   1.304   3.566  0.00  0.00    +0.124 A 
ATOM      6  C   UNL     1       4.719   0.254   2.721  0.00  0.00    +0.091 A 
ATOM      7  C   UNL     1       3.715  -0.464   2.088  0.00  0.00    +0.129 A 
BRANCH   7   8
ATOM      8  O   UNL     1       4.034  -1.496   1.264  0.00  0.00    -0.506 OA
ATOM      9  H   UNL     1       4.163  -1.237   0.341  0.00  0.00    +0.292 HD
ENDBRANCH   7   8
BRANCH   5  10
ATOM     10  O   UNL     1       5.376   2.006   4.188  0.00  0.00    -0.507 OA
ATOM     11  H   UNL     1       5.627   1.649   5.052  0.00  0.00    +0.292 HD
ENDBRANCH   5  10
BRANCH   3  12
ATOM     12  O   UNL     1       0.757   1.253   3.343  0.00  0.00    -0.506 OA
ATOM     13  H   UNL     1       0.341   0.773   4.071  0.00  0.00    +0.292 HD
ENDBRANCH   3  12
ENDBRANCH   1   2
BRANCH   1  15
ATOM     14  C   UNL     1       1.918   0.142  -0.627  0.00  0.00    +0.133 C 
ATOM     15  N   UNL     1       1.623  -1.045   0.180  0.00  0.00    -0.285 N 
ATOM     16  C   UNL     1       1.654  -2.268  -0.384  0.00  0.00    +0.247 C 
ATOM     17  O   UNL     1       1.298  -3.241   0.253  0.00  0.00    -0.270 OA
BRANCH  16  18
ATOM     18  C   UNL     1       2.120  -2.427  -1.778  0.00  0.00    +0.037 A 
ATOM     19  C   UNL     1       3.009  -3.453  -2.107  0.00  0.00    +0.014 A 
ATOM     20  C   UNL     1       3.439  -3.596  -3.409  0.00  0.00    +0.021 A 
ATOM     21  C   UNL     1       2.992  -2.726  -4.389  0.00  0.00    +0.041 A 
ATOM     22  C   UNL     1       2.110  -1.707  -4.069  0.00  0.00    +0.021 A 
ATOM     23  C   UNL     1       1.668  -1.557  -2.772  0.00  0.00    +0.014 A 
ATOM     24 CL   UNL     1       3.540  -2.913  -6.026  0.00  0.00    -0.084 Cl
ENDBRANCH  16  18
ENDBRANCH   1  15
BRANCH   1  25
ATOM     25  C   UNL     1      -0.013  -0.167   1.743  0.00  0.00    +0.239 C 
ATOM     26  O   UNL     1      -0.373   0.603   0.878  0.00  0.00    -0.273 OA
ATOM     27  N   UNL     1      -0.782  -0.364   2.832  0.00  0.00    -0.311 N 
ATOM     28  H   UNL     1      -0.471  -0.941   3.547  0.00  0.00    +0.149 HD
BRANCH  27  29
ATOM     29  C   UNL     1      -2.088   0.291   2.935  0.00  0.00    +0.073 C 
ATOM     30  C   UNL     1      -1.908   1.702   3.499  0.00  0.00    +0.022 C 
ATOM     31  C   UNL     1      -3.272   2.386   3.607  0.00  0.00    +0.002 C 
ATOM     32  C   UNL     1      -4.177   1.576   4.537  0.00  0.00    +0.000 C 
ATOM     33  C   UNL     1      -4.357   0.166   3.973  0.00  0.00    +0.002 C 
ATOM     34  C   UNL     1      -2.993  -0.519   3.865  0.00  0.00    +0.022 C 
ENDBRANCH  27  29
ENDBRANCH   1  25
TORSDOF 8
