REMARK  Name = ZINC15230538
REMARK  9 active torsions:
REMARK  status: ('A' for Active; 'I' for Inactive)
REMARK    1  A    between atoms: C_3  and  N_10
REMARK    2  A    between atoms: C_5  and  N_7
REMARK    3  A    between atoms: N_10  and  S_11
REMARK    4  A    between atoms: S_11  and  C_14
REMARK    5  A    between atoms: C_23  and  N_24
REMARK    6  A    between atoms: C_25  and  C_27
REMARK    7  A    between atoms: C_28  and  C_29
REMARK    8  A    between atoms: C_31  and  O_36
REMARK    9  A    between atoms: C_33  and  O_35
REMARK                            x       y       z     vdW  Elec       q    Type
REMARK                         _______ _______ _______ _____ _____    ______ ____
ROOT
ATOM      1  C   UNL     1       0.447   5.780  -2.538  0.00  0.00    +0.116 A 
ATOM      2  C   UNL     1       0.076   6.785  -3.379  0.00  0.00    +0.029 A 
ATOM      3  C   UNL     1      -0.444   6.508  -4.641  0.00  0.00    +0.003 A 
ATOM      4  C   UNL     1      -0.595   5.224  -5.071  0.00  0.00    +0.010 A 
ATOM      5  C   UNL     1      -0.223   4.163  -4.231  0.00  0.00    +0.005 A 
ATOM      6  C   UNL     1       0.310   4.443  -2.949  0.00  0.00    +0.010 A 
ATOM      7  C   UNL     1       0.677   3.381  -2.105  0.00  0.00    +0.010 A 
ATOM      8  C   UNL     1       0.529   2.095  -2.526  0.00  0.00    +0.002 A 
ATOM      9  C   UNL     1       0.011   1.807  -3.786  0.00  0.00    +0.024 A 
ATOM     10  C   UNL     1      -0.365   2.820  -4.642  0.00  0.00    +0.041 A 
ENDROOT
BRANCH  10  11
ATOM     11  N   UNL     1      -0.883   2.520  -5.902  0.00  0.00    -0.281 N 
ATOM     12  C   UNL     1      -1.421   1.307  -6.139  0.00  0.00    +0.241 C 
ATOM     13  O   UNL     1      -1.548   0.509  -5.228  0.00  0.00    -0.270 OA
ATOM     14  H   UNL     1      -0.855   3.184  -6.608  0.00  0.00    +0.155 HD
BRANCH  12  15
ATOM     15  C   UNL     1      -1.854   0.949  -7.490  0.00  0.00    +0.068 C 
ATOM     16  C   UNL     1      -2.392  -0.264  -7.727  0.00  0.00    +0.013 C 
BRANCH  16  17
ATOM     17  C   UNL     1      -2.827  -0.624  -9.087  0.00  0.00    -0.018 A 
ATOM     18  C   UNL     1      -2.688   0.293 -10.133  0.00  0.00    +0.053 A 
ATOM     19  C   UNL     1      -3.094  -0.053 -11.411  0.00  0.00    +0.121 A 
ATOM     20  C   UNL     1      -3.648  -1.302 -11.652  0.00  0.00    +0.090 A 
ATOM     21  C   UNL     1      -3.793  -2.214 -10.615  0.00  0.00    +0.121 A 
ATOM     22  C   UNL     1      -3.386  -1.881  -9.335  0.00  0.00    +0.053 A 
BRANCH  21  23
ATOM     23  O   UNL     1      -4.336  -3.436 -10.858  0.00  0.00    -0.507 OA
ATOM     24  H   UNL     1      -5.298  -3.466 -10.757  0.00  0.00    +0.292 HD
ENDBRANCH  21  23
BRANCH  19  25
ATOM     25  O   UNL     1      -2.954   0.835 -12.430  0.00  0.00    -0.507 OA
ATOM     26  H   UNL     1      -3.717   1.415 -12.554  0.00  0.00    +0.292 HD
ENDBRANCH  19  25
ENDBRANCH  16  17
ENDBRANCH  12  15
ENDBRANCH  10  11
BRANCH   1  27
ATOM     27  S   UNL     1       1.101   6.155  -0.946  0.00  0.00    +0.073 S 
ATOM     28  O   UNL     1       0.401   5.339  -0.017  0.00  0.00    -0.150 OA
ATOM     29  O   UNL     1       1.133   7.572  -0.843  0.00  0.00    -0.150 OA
BRANCH  27  30
ATOM     30  N   UNL     1       2.677   5.644  -0.931  0.00  0.00    -0.216 N 
ATOM     31  H   UNL     1       2.956   4.950  -0.314  0.00  0.00    +0.174 HD
BRANCH  30  34
ATOM     32  C   UNL     1       4.564   8.148  -2.847  0.00  0.00    +0.004 A 
ATOM     33  C   UNL     1       3.646   7.590  -1.979  0.00  0.00    +0.024 A 
ATOM     34  C   UNL     1       3.603   6.212  -1.808  0.00  0.00    +0.050 A 
ATOM     35  C   UNL     1       4.485   5.400  -2.511  0.00  0.00    +0.057 A 
ATOM     36  C   UNL     1       5.396   5.965  -3.381  0.00  0.00    +0.128 A 
ATOM     37  C   UNL     1       5.440   7.338  -3.545  0.00  0.00    +0.033 A 
BRANCH  36  38
ATOM     38  N   UNL     1       6.332   5.101  -4.136  0.00  0.00    +0.056 N 
ATOM     39  O   UNL     1       7.139   5.599  -4.900  0.00  0.00    -0.126 OA
ATOM     40  O   UNL     1       6.294   3.892  -3.992  0.00  0.00    -0.126 OA
ENDBRANCH  36  38
ENDBRANCH  30  34
ENDBRANCH  27  30
ENDBRANCH   1  27
TORSDOF 9
