REMARK  Name = ZINC41626815
REMARK  9 active torsions:
REMARK  status: ('A' for Active; 'I' for Inactive)
REMARK    1  A    between atoms: C_1  and  C_2
REMARK    2  A    between atoms: C_6  and  C_25
REMARK    3  A    between atoms: C_8  and  N_11
REMARK    4  A    between atoms: N_11  and  S_12
REMARK    5  A    between atoms: S_12  and  C_15
REMARK    6  A    between atoms: C_18  and  S_21
REMARK    7  A    between atoms: S_21  and  N_24
REMARK    8  A    between atoms: C_25  and  C_26
REMARK    9  A    between atoms: C_25  and  C_27
REMARK                            x       y       z     vdW  Elec       q    Type
REMARK                         _______ _______ _______ _____ _____    ______ ____
ROOT
ATOM      1  S   UNL     1      -1.331  -2.959   2.677  0.00  0.00    +0.059 S 
ATOM      2  O   UNL     1      -2.651  -3.384   2.362  0.00  0.00    -0.153 OA
ATOM      3  O   UNL     1      -0.410  -3.789   3.371  0.00  0.00    -0.153 OA
ENDROOT
BRANCH   1   4
ATOM      4  C   UNL     1      -1.491  -1.482   3.623  0.00  0.00    +0.105 A 
ATOM      5  C   UNL     1      -0.473  -1.093   4.475  0.00  0.00    +0.030 A 
ATOM      6  C   UNL     1      -0.598   0.066   5.218  0.00  0.00    +0.030 A 
ATOM      7  C   UNL     1      -1.740   0.838   5.108  0.00  0.00    +0.105 A 
ATOM      8  C   UNL     1      -2.757   0.450   4.255  0.00  0.00    +0.030 A 
ATOM      9  C   UNL     1      -2.630  -0.707   3.509  0.00  0.00    +0.030 A 
BRANCH   7  10
ATOM     10  S   UNL     1      -1.899   2.315   6.055  0.00  0.00    +0.056 S 
ATOM     11  O   UNL     1      -3.292   2.568   6.180  0.00  0.00    -0.153 OA
ATOM     12  O   UNL     1      -1.047   2.168   7.182  0.00  0.00    -0.153 OA
BRANCH  10  13
ATOM     13  N   UNL     1      -1.274   3.549   5.145  0.00  0.00    -0.204 NA
ATOM     14  H   UNL     1      -1.623   4.449   5.243  0.00  0.00    +0.144 HD
ATOM     15  H   UNL     1      -0.558   3.373   4.515  0.00  0.00    +0.144 HD
ENDBRANCH  10  13
ENDBRANCH   7  10
ENDBRANCH   1   4
BRANCH   1  16
ATOM     16  N   UNL     1      -0.612  -2.548   1.244  0.00  0.00    -0.187 NA
ATOM     17  H   UNL     1      -1.100  -2.643   0.411  0.00  0.00    +0.148 HD
BRANCH  16  23
ATOM     18  C   UNL     1      -0.019   1.526   0.010  0.00  0.00    +0.007 C 
ATOM     19  C   UNL     1       0.002  -0.004   0.002  0.00  0.00    -0.013 C 
ATOM     20  C   UNL     1       0.718  -0.497  -1.257  0.00  0.00    +0.003 C 
ATOM     21  C   UNL     1       0.739  -2.027  -1.265  0.00  0.00    +0.005 C 
ATOM     22  C   UNL     1       1.479  -2.534  -0.026  0.00  0.00    +0.010 C 
ATOM     23  C   UNL     1       0.763  -2.041   1.233  0.00  0.00    +0.080 C 
ATOM     24  C   UNL     1       0.742  -0.511   1.242  0.00  0.00    +0.024 C 
BRANCH  22  25
ATOM     25  C   UNL     1       1.500  -4.064  -0.034  0.00  0.00    -0.013 C 
ATOM     26  C   UNL     1       2.216  -4.557  -1.293  0.00  0.00    +0.007 C 
ATOM     27  C   UNL     1       2.240  -4.571   1.205  0.00  0.00    +0.007 C 
ENDBRANCH  22  25
ENDBRANCH  16  23
ENDBRANCH   1  16
TORSDOF 6
