REMARK  Name = ZINC08926456
REMARK  8 active torsions:
REMARK  status: ('A' for Active; 'I' for Inactive)
REMARK    1  A    between atoms: C_3  and  N_29
REMARK    2  A    between atoms: C_4  and  N_26
REMARK    3  A    between atoms: C_6  and  C_7
REMARK    4  A    between atoms: C_7  and  C_8
REMARK    5  A    between atoms: C_7  and  C_18
REMARK    6  A    between atoms: C_7  and  C_22
REMARK    7  A    between atoms: C_11  and  N_17
REMARK    8  A    between atoms: C_12  and  N_14
REMARK                            x       y       z     vdW  Elec       q    Type
REMARK                         _______ _______ _______ _____ _____    ______ ____
ROOT
ATOM      1  C   UNL     1      -1.551   2.474   2.482  0.00  0.00    +0.210 C 
ENDROOT
BRANCH   1   7
ATOM      2  C   UNL     1      -1.092   4.933   2.458  0.00  0.00    +0.007 A 
ATOM      3  C   UNL     1      -0.736   6.096   1.802  0.00  0.00    +0.025 A 
ATOM      4  C   UNL     1      -0.465   6.067   0.440  0.00  0.00    +0.055 A 
ATOM      5  C   UNL     1      -0.548   4.868  -0.257  0.00  0.00    +0.147 A 
ATOM      6  C   UNL     1      -0.899   3.709   0.406  0.00  0.00    +0.039 A 
ATOM      7  C   UNL     1      -1.168   3.741   1.762  0.00  0.00    -0.018 A 
BRANCH   5   8
ATOM      8  N   UNL     1      -0.259   4.833  -1.708  0.00  0.00    +0.058 N 
ATOM      9  O   UNL     1      -0.218   3.767  -2.296  0.00  0.00    -0.126 OA
ATOM     10  O   UNL     1      -0.063   5.871  -2.316  0.00  0.00    -0.126 OA
ENDBRANCH   5   8
BRANCH   4  11
ATOM     11  N   UNL     1      -0.111   7.242  -0.228  0.00  0.00    -0.356 N 
ATOM     12  H   UNL     1      -0.270   8.103   0.188  0.00  0.00    +0.142 HD
ATOM     13  H   UNL     1       0.295   7.196  -1.108  0.00  0.00    +0.142 HD
ENDBRANCH   4  11
ENDBRANCH   1   7
BRANCH   1  14
ATOM     14  C   UNL     1      -2.860   1.962   1.937  0.00  0.00    -0.018 A 
ATOM     15  C   UNL     1      -3.554   2.704   0.999  0.00  0.00    +0.007 A 
ATOM     16  C   UNL     1      -4.751   2.236   0.494  0.00  0.00    +0.025 A 
ATOM     17  C   UNL     1      -5.263   1.024   0.937  0.00  0.00    +0.055 A 
ATOM     18  C   UNL     1      -4.566   0.283   1.883  0.00  0.00    +0.147 A 
ATOM     19  C   UNL     1      -3.367   0.754   2.380  0.00  0.00    +0.039 A 
BRANCH  18  20
ATOM     20  N   UNL     1      -5.108  -1.010   2.358  0.00  0.00    +0.058 N 
ATOM     21  O   UNL     1      -4.446  -1.711   3.103  0.00  0.00    -0.126 OA
ATOM     22  O   UNL     1      -6.215  -1.373   2.003  0.00  0.00    -0.126 OA
ENDBRANCH  18  20
BRANCH  17  23
ATOM     23  N   UNL     1      -6.476   0.550   0.433  0.00  0.00    -0.356 N 
ATOM     24  H   UNL     1      -7.143   1.175   0.107  0.00  0.00    +0.142 HD
ATOM     25  H   UNL     1      -6.652  -0.404   0.408  0.00  0.00    +0.142 HD
ENDBRANCH  17  23
ENDBRANCH   1  14
BRANCH   1  26
ATOM     26  C   UNL     1      -0.464   1.418   2.271  0.00  0.00    +0.412 C 
ATOM     27  F   UNL     1      -0.819   0.242   2.940  0.00  0.00    -0.169 F 
ATOM     28  F   UNL     1       0.751   1.893   2.777  0.00  0.00    -0.169 F 
ATOM     29  F   UNL     1      -0.328   1.155   0.904  0.00  0.00    -0.169 F 
ENDBRANCH   1  26
BRANCH   1  30
ATOM     30  C   UNL     1      -1.699   2.762   3.977  0.00  0.00    +0.412 C 
ATOM     31  F   UNL     1      -0.484   3.236   4.483  0.00  0.00    -0.169 F 
ATOM     32  F   UNL     1      -2.693   3.727   4.170  0.00  0.00    -0.169 F 
ATOM     33  F   UNL     1      -2.055   1.585   4.646  0.00  0.00    -0.169 F 
ENDBRANCH   1  30
TORSDOF 8
