REMARK  Name = ZINC14643021
REMARK  6 active torsions:
REMARK  status: ('A' for Active; 'I' for Inactive)
REMARK    1  A    between atoms: C_3  and  O_23
REMARK    2  A    between atoms: C_4  and  O_22
REMARK    3  A    between atoms: C_6  and  C_7
REMARK    4  A    between atoms: C_9  and  O_21
REMARK    5  A    between atoms: C_15  and  O_20
REMARK    6  A    between atoms: C_16  and  O_19
REMARK                            x       y       z     vdW  Elec       q    Type
REMARK                         _______ _______ _______ _____ _____    ______ ____
ROOT
ATOM      1  C   UNL     1      -1.435  -0.541   0.042  0.00  0.00    +0.233 C 
ATOM      2  C   UNL     1       0.002  -0.004   0.002  0.00  0.00    +0.164 C 
ATOM      3  C   UNL     1       0.741  -0.517   1.240  0.00  0.00    +0.074 C 
ATOM      4  C   UNL     1      -0.101  -0.282   2.469  0.00  0.00    +0.001 A 
ATOM      5  C   UNL     1       0.510  -0.323   3.712  0.00  0.00    +0.011 A 
ATOM      6  C   UNL     1      -0.226  -0.116   4.862  0.00  0.00    +0.049 A 
ATOM      7  C   UNL     1      -1.588   0.135   4.776  0.00  0.00    +0.162 A 
ATOM      8  C   UNL     1      -2.204   0.178   3.533  0.00  0.00    +0.201 A 
ATOM      9  C   UNL     1      -1.458  -0.029   2.374  0.00  0.00    +0.170 A 
ATOM     10  O   UNL     1      -2.095   0.026   1.175  0.00  0.00    -0.478 OA
ENDROOT
BRANCH   1  16
ATOM     11  C   UNL     1      -2.683   1.128  -1.342  0.00  0.00    +0.011 A 
ATOM     12  C   UNL     1      -3.345   1.498  -2.499  0.00  0.00    +0.049 A 
ATOM     13  C   UNL     1      -3.493   0.588  -3.533  0.00  0.00    +0.158 A 
ATOM     14  C   UNL     1      -2.970  -0.696  -3.406  0.00  0.00    +0.159 A 
ATOM     15  C   UNL     1      -2.304  -1.058  -2.247  0.00  0.00    +0.056 A 
ATOM     16  C   UNL     1      -2.159  -0.145  -1.218  0.00  0.00    -0.001 A 
BRANCH  14  17
ATOM     17  O   UNL     1      -3.113  -1.593  -4.418  0.00  0.00    -0.503 OA
ATOM     18  H   UNL     1      -3.917  -2.128  -4.359  0.00  0.00    +0.292 HD
ENDBRANCH  14  17
BRANCH  13  19
ATOM     19  O   UNL     1      -4.147   0.948  -4.669  0.00  0.00    -0.503 OA
ATOM     20  H   UNL     1      -5.099   0.777  -4.646  0.00  0.00    +0.292 HD
ENDBRANCH  13  19
ENDBRANCH   1  16
BRANCH   8  21
ATOM     21  O   UNL     1      -3.540   0.424   3.446  0.00  0.00    -0.501 OA
ATOM     22  H   UNL     1      -4.089  -0.372   3.471  0.00  0.00    +0.292 HD
ENDBRANCH   8  21
BRANCH   7  23
ATOM     23  O   UNL     1      -2.316   0.338   5.906  0.00  0.00    -0.503 OA
ATOM     24  H   UNL     1      -2.690  -0.470   6.284  0.00  0.00    +0.292 HD
ENDBRANCH   7  23
BRANCH   2  25
ATOM     25  O   UNL     1      -0.017   1.425   0.010  0.00  0.00    -0.387 OA
ATOM     26  H   UNL     1       0.861   1.830   0.004  0.00  0.00    +0.210 HD
ENDBRANCH   2  25
TORSDOF 6
