REMARK  Name = ZINC54650226
REMARK  5 active torsions:
REMARK  status: ('A' for Active; 'I' for Inactive)
REMARK    1  A    between atoms: C_4  and  C_25
REMARK    2  A    between atoms: C_5  and  C_7
REMARK    3  A    between atoms: C_7  and  C_8
REMARK    4  A    between atoms: C_8  and  N_9
REMARK    5  A    between atoms: N_12  and  N_13
REMARK                            x       y       z     vdW  Elec       q    Type
REMARK                         _______ _______ _______ _____ _____    ______ ____
ROOT
ATOM      1  N   UNL     1       1.397  -4.167   1.404  0.00  0.00    -0.298 N 
ATOM      2  C   UNL     1       1.520  -4.846   2.562  0.00  0.00    +0.316 C 
ATOM      3  O   UNL     1       1.614  -4.243   3.613  0.00  0.00    -0.251 OA
ATOM      4  N   UNL     1       1.538  -6.194   2.554  0.00  0.00    -0.219 N 
ATOM      5  H   UNL     1       1.321  -4.648   0.565  0.00  0.00    +0.150 HD
ATOM      6  H   UNL     1       1.627  -6.682   3.387  0.00  0.00    +0.174 HD
ENDROOT
BRANCH   4   7
ATOM      7  N   UNL     1       1.429  -6.889   1.342  0.00  0.00    -0.246 N 
ATOM      8  C   UNL     1       1.448  -8.280   1.334  0.00  0.00    +0.158 A 
ATOM      9  C   UNL     1       1.345  -8.974   0.128  0.00  0.00    +0.050 A 
ATOM     10  C   UNL     1       1.369 -10.358   0.171  0.00  0.00    +0.053 A 
ATOM     11  C   UNL     1       1.494 -10.971   1.417  0.00  0.00    +0.176 A 
ATOM     12  N   UNL     1       1.586 -10.232   2.509  0.00  0.00    -0.128 NA
ATOM     13  N   UNL     1       1.569  -8.949   2.470  0.00  0.00    -0.131 NA
ATOM     14  N   UNL     1       1.523 -12.368   1.511  0.00  0.00    -0.220 N 
ATOM     15  C   UNL     1       1.635 -13.090   2.655  0.00  0.00    +0.116 A 
ATOM     16  C   UNL     1       1.624 -14.400   2.315  0.00  0.00    +0.041 A 
ATOM     17  C   UNL     1       1.502 -14.484   0.924  0.00  0.00    +0.135 A 
ATOM     18  N   UNL     1       1.435 -13.269   0.442  0.00  0.00    -0.173 NA
ATOM     19  H   UNL     1       1.341  -6.400   0.509  0.00  0.00    +0.172 HD
ENDBRANCH   4   7
BRANCH   1  20
ATOM     20  C   UNL     1       1.377  -2.702   1.412  0.00  0.00    +0.110 C 
BRANCH  20  21
ATOM     21  C   UNL     1       1.229  -2.186  -0.020  0.00  0.00    +0.054 C 
BRANCH  21  26
ATOM     22  C   UNL     1      -0.017   1.378   0.010  0.00  0.00    +0.000 A 
ATOM     23  C   UNL     1       1.171   2.085   0.002  0.00  0.00    +0.001 A 
ATOM     24  C   UNL     1       2.377   1.411  -0.013  0.00  0.00    +0.012 A 
ATOM     25  C   UNL     1       2.396   0.028  -0.020  0.00  0.00    +0.058 A 
ATOM     26  C   UNL     1       1.209  -0.679  -0.012  0.00  0.00    -0.034 A 
ATOM     27  C   UNL     1       0.002  -0.004   0.002  0.00  0.00    +0.004 A 
BRANCH  25  28
ATOM     28  C   UNL     1       3.711  -0.707  -0.038  0.00  0.00    +0.418 C 
ATOM     29  F   UNL     1       4.762   0.216  -0.044  0.00  0.00    -0.166 F 
ATOM     30  F   UNL     1       3.808  -1.516   1.100  0.00  0.00    -0.166 F 
ATOM     31  F   UNL     1       3.784  -1.505  -1.185  0.00  0.00    -0.166 F 
ENDBRANCH  25  28
ENDBRANCH  21  26
ENDBRANCH  20  21
ENDBRANCH   1  20
TORSDOF 5
