REMARK  Name = ZINC57336745
REMARK  11 active torsions:
REMARK  status: ('A' for Active; 'I' for Inactive)
REMARK    1  A    between atoms: C_1  and  C_2
REMARK    2  A    between atoms: C_5  and  S_9
REMARK    3  A    between atoms: C_6  and  C_8
REMARK    4  A    between atoms: S_9  and  C_10
REMARK    5  A    between atoms: C_13  and  N_16
REMARK    6  A    between atoms: C_17  and  C_19
REMARK    7  A    between atoms: C_19  and  C_21
REMARK    8  A    between atoms: C_19  and  N_25
REMARK    9  A    between atoms: C_21  and  C_22
REMARK   10  A    between atoms: C_22  and  S_23
REMARK   11  A    between atoms: S_23  and  C_24
REMARK                            x       y       z     vdW  Elec       q    Type
REMARK                         _______ _______ _______ _____ _____    ______ ____
ROOT
ATOM      1  N   UNL     1       0.066  -6.419  -5.648  0.00  0.00    -0.284 N 
ATOM      2  C   UNL     1      -0.656  -7.503  -5.996  0.00  0.00    +0.238 C 
ATOM      3  O   UNL     1      -1.234  -8.145  -5.144  0.00  0.00    -0.273 OA
ATOM      4  H   UNL     1       0.581  -5.944  -6.318  0.00  0.00    +0.155 HD
ENDROOT
BRANCH   1   8
ATOM      5  C   UNL     1       0.083  -5.107  -1.689  0.00  0.00    +0.013 A 
ATOM      6  C   UNL     1       0.142  -4.185  -2.727  0.00  0.00    +0.017 A 
ATOM      7  C   UNL     1       0.136  -4.620  -4.037  0.00  0.00    +0.024 A 
ATOM      8  C   UNL     1       0.071  -5.978  -4.318  0.00  0.00    +0.034 A 
ATOM      9  C   UNL     1       0.012  -6.900  -3.281  0.00  0.00    +0.024 A 
ATOM     10  C   UNL     1       0.023  -6.467  -1.970  0.00  0.00    +0.017 A 
BRANCH   5  11
ATOM     11  S   UNL     1       0.091  -4.553  -0.016  0.00  0.00    -0.089 S 
BRANCH  11  16
ATOM     12  C   UNL     1      -5.755  -4.310   1.469  0.00  0.00    +0.044 C 
ATOM     13  C   UNL     1      -4.295  -4.371   1.098  0.00  0.00    -0.050 A 
ATOM     14  C   UNL     1      -3.925  -4.673  -0.200  0.00  0.00    +0.004 A 
ATOM     15  C   UNL     1      -2.589  -4.729  -0.543  0.00  0.00    +0.015 A 
ATOM     16  C   UNL     1      -1.616  -4.482   0.417  0.00  0.00    +0.016 A 
ATOM     17  C   UNL     1      -1.991  -4.178   1.720  0.00  0.00    -0.036 A 
ATOM     18  C   UNL     1      -3.330  -4.119   2.055  0.00  0.00    +0.007 A 
ATOM     19  C   UNL     1      -0.939  -3.910   2.765  0.00  0.00    +0.045 C 
ENDBRANCH  11  16
ENDBRANCH   5  11
ENDBRANCH   1   8
BRANCH   2  20
ATOM     20  C   UNL     1      -0.747  -7.915  -7.442  0.00  0.00    +0.161 C 
BRANCH  20  21
ATOM     21  N   UNL     1      -1.152  -9.321  -7.524  0.00  0.00    -0.288 N 
ATOM     22  C   UNL     1      -2.329  -9.715  -7.000  0.00  0.00    +0.298 C 
ATOM     23  O   UNL     1      -3.054  -8.904  -6.457  0.00  0.00    -0.253 OA
ATOM     24  N   UNL     1      -2.701 -11.008  -7.075  0.00  0.00    -0.313 N 
ATOM     25  H   UNL     1      -0.573  -9.968  -7.957  0.00  0.00    +0.151 HD
ATOM     26  H   UNL     1      -2.122 -11.655  -7.508  0.00  0.00    +0.146 HD
ATOM     27  H   UNL     1      -3.549 -11.291  -6.697  0.00  0.00    +0.146 HD
ENDBRANCH  20  21
BRANCH  20  28
ATOM     28  C   UNL     1      -1.781  -7.044  -8.158  0.00  0.00    +0.042 C 
BRANCH  28  29
ATOM     29  C   UNL     1      -1.783  -7.378  -9.651  0.00  0.00    +0.071 C 
BRANCH  29  30
ATOM     30  S   UNL     1      -3.009  -6.344 -10.499  0.00  0.00    -0.164 S 
ATOM     31  C   UNL     1      -2.888  -6.856 -12.236  0.00  0.00    +0.084 C 
ENDBRANCH  29  30
ENDBRANCH  28  29
ENDBRANCH  20  28
ENDBRANCH   2  20
TORSDOF 8
