REMARK  Name = ZINC11904517
REMARK  5 active torsions:
REMARK  status: ('A' for Active; 'I' for Inactive)
REMARK    1  A    between atoms: C_3  and  N_10
REMARK    2  A    between atoms: C_6  and  C_7
REMARK    3  A    between atoms: N_10  and  S_11
REMARK    4  A    between atoms: S_11  and  C_14
REMARK    5  A    between atoms: C_17  and  N_20
REMARK                            x       y       z     vdW  Elec       q    Type
REMARK                         _______ _______ _______ _____ _____    ______ ____
ROOT
ATOM      1  S   UNL     1       7.940  -0.747   2.608  0.00  0.00    +0.072 S 
ATOM      2  O   UNL     1       8.552   0.217   3.453  0.00  0.00    -0.150 OA
ATOM      3  O   UNL     1       7.767  -2.102   3.000  0.00  0.00    -0.150 OA
ENDROOT
BRANCH   1   4
ATOM      4  C   UNL     1       6.338  -0.128   2.216  0.00  0.00    +0.109 A 
ATOM      5  C   UNL     1       5.365  -0.987   1.738  0.00  0.00    +0.030 A 
ATOM      6  C   UNL     1       4.108  -0.505   1.429  0.00  0.00    +0.027 A 
ATOM      7  C   UNL     1       3.822   0.844   1.599  0.00  0.00    +0.059 A 
ATOM      8  C   UNL     1       4.803   1.704   2.073  0.00  0.00    +0.027 A 
ATOM      9  C   UNL     1       6.056   1.215   2.385  0.00  0.00    +0.030 A 
BRANCH   7  10
ATOM     10  N   UNL     1       2.549   1.335   1.287  0.00  0.00    -0.144 N 
ATOM     11  C   UNL     1       1.411   0.626   1.274  0.00  0.00    +0.240 C 
ATOM     12  O   UNL     1       1.408  -0.548   1.578  0.00  0.00    -0.274 OA
ATOM     13  C   UNL     1       0.142   1.318   0.875  0.00  0.00    +0.122 C 
ATOM     14  C   UNL     1       0.347   2.850   1.016  0.00  0.00    +0.198 C 
ATOM     15  S   UNL     1       2.179   2.912   0.863  0.00  0.00    +0.052 S 
ATOM     16  O   UNL     1       2.570   3.047  -0.496  0.00  0.00    -0.155 OA
ATOM     17  O   UNL     1       2.746   3.727   1.881  0.00  0.00    -0.155 OA
ENDBRANCH   7  10
ENDBRANCH   1   4
BRANCH   1  18
ATOM     18  N   UNL     1       8.815  -0.768   1.203  0.00  0.00    -0.216 N 
ATOM     19  H   UNL     1       9.131  -1.611   0.841  0.00  0.00    +0.174 HD
BRANCH  18  22
ATOM     20  C   UNL     1      10.338   2.469   0.400  0.00  0.00    +0.015 A 
ATOM     21  C   UNL     1      10.057   1.290   1.053  0.00  0.00    +0.025 A 
ATOM     22  C   UNL     1       9.097   0.422   0.541  0.00  0.00    +0.048 A 
ATOM     23  C   UNL     1       8.422   0.740  -0.634  0.00  0.00    +0.025 A 
ATOM     24  C   UNL     1       8.694   1.919  -1.288  0.00  0.00    +0.015 A 
ATOM     25  C   UNL     1       9.658   2.794  -0.777  0.00  0.00    +0.037 A 
BRANCH  25  26
ATOM     26  C   UNL     1       9.956   4.057  -1.478  0.00  0.00    +0.242 C 
ATOM     27  O   UNL     1      10.794   4.817  -1.032  0.00  0.00    -0.270 OA
ATOM     28  N   UNL     1       9.300   4.369  -2.613  0.00  0.00    -0.325 N 
ATOM     29  H   UNL     1       8.631   3.763  -2.969  0.00  0.00    +0.145 HD
ATOM     30  H   UNL     1       9.496   5.199  -3.075  0.00  0.00    +0.145 HD
ENDBRANCH  25  26
ENDBRANCH  18  22
ENDBRANCH   1  18
TORSDOF 5
