REMARK  Name = ZINC32072467
REMARK  8 active torsions:
REMARK  status: ('A' for Active; 'I' for Inactive)
REMARK    1  A    between atoms: C_1  and  C_2
REMARK    2  A    between atoms: C_2  and  C_3
REMARK    3  A    between atoms: C_2  and  C_4
REMARK    4  A    between atoms: C_12  and  O_23
REMARK    5  A    between atoms: N_18  and  C_19
REMARK    6  A    between atoms: C_19  and  C_20
REMARK    7  A    between atoms: C_19  and  C_21
REMARK    8  A    between atoms: C_19  and  C_22
REMARK                            x       y       z     vdW  Elec       q    Type
REMARK                         _______ _______ _______ _____ _____    ______ ____
ROOT
ATOM      1  C   UNL     1       0.731  -0.503   1.223  0.00  0.00    -0.044 A 
ATOM      2  C   UNL     1       2.048  -0.140   1.419  0.00  0.00    +0.006 A 
ATOM      3  C   UNL     1       2.770  -0.567   2.522  0.00  0.00    +0.024 A 
ATOM      4  C   UNL     1       2.111  -1.388   3.439  0.00  0.00    +0.038 A 
ATOM      5  C   UNL     1       0.774  -1.750   3.228  0.00  0.00    -0.006 A 
ATOM      6  C   UNL     1       0.061  -1.316   2.131  0.00  0.00    +0.010 A 
ATOM      7  C   UNL     1       0.392  -2.620   4.381  0.00  0.00    +0.112 C 
ATOM      8  C   UNL     1      -0.758  -2.010   5.180  0.00  0.00    +0.121 C 
ATOM      9  C   UNL     1      -2.087  -2.305   4.545  0.00  0.00    +0.191 C 
ATOM     10  N   UNL     1      -2.340  -3.393   3.882  0.00  0.00    -0.198 NA
ATOM     11  C   UNL     1      -1.349  -4.312   3.697  0.00  0.00    +0.159 A 
ATOM     12  C   UNL     1      -0.014  -3.992   3.921  0.00  0.00    +0.036 A 
ATOM     13  C   UNL     1       0.742  -5.117   3.649  0.00  0.00    +0.141 A 
ATOM     14  N   UNL     1      -0.066  -6.078   3.266  0.00  0.00    -0.177 NA
ATOM     15  N   UNL     1      -1.384  -5.594   3.277  0.00  0.00    -0.241 N 
ATOM     16  C   UNL     1       1.641  -2.695   5.230  0.00  0.00    +0.233 C 
ATOM     17  O   UNL     1       1.771  -3.306   6.270  0.00  0.00    -0.274 OA
ATOM     18  N   UNL     1       2.583  -1.952   4.611  0.00  0.00    -0.284 N 
ATOM     19  H   UNL     1       3.484  -1.829   4.948  0.00  0.00    +0.155 HD
ENDROOT
BRANCH  15  20
ATOM     20  C   UNL     1      -2.584  -6.347   2.902  0.00  0.00    +0.057 C 
ATOM     21  C   UNL     1      -3.279  -5.648   1.732  0.00  0.00    +0.036 C 
ATOM     22  C   UNL     1      -2.187  -7.765   2.486  0.00  0.00    +0.036 C 
ATOM     23  C   UNL     1      -3.538  -6.415   4.096  0.00  0.00    +0.036 C 
ENDBRANCH  15  20
BRANCH   1  25
ATOM     24  C   UNL     1      -0.019   1.526   0.010  0.00  0.00    +0.012 C 
ATOM     25  C   UNL     1       0.002  -0.004   0.002  0.00  0.00    +0.013 C 
ATOM     26  C   UNL     1       0.718  -0.497  -1.257  0.00  0.00    +0.012 C 
ENDBRANCH   1  25
BRANCH   9  27
ATOM     27  O   UNL     1      -3.071  -1.391   4.670  0.00  0.00    -0.495 OA
ATOM     28  H   UNL     1      -3.899  -1.643   4.239  0.00  0.00    +0.293 HD
ENDBRANCH   9  27
TORSDOF 3
