REMARK  Name = ZINC67124714
REMARK  7 active torsions:
REMARK  status: ('A' for Active; 'I' for Inactive)
REMARK    1  A    between atoms: C_1  and  C_2
REMARK    2  A    between atoms: C_2  and  C_3
REMARK    3  A    between atoms: C_6  and  N_13
REMARK    4  A    between atoms: C_8  and  S_9
REMARK    5  A    between atoms: S_9  and  N_12
REMARK    6  A    between atoms: N_13  and  S_14
REMARK    7  A    between atoms: S_14  and  C_17
REMARK                            x       y       z     vdW  Elec       q    Type
REMARK                         _______ _______ _______ _____ _____    ______ ____
ROOT
ATOM      1  C   UNL     1      -1.310  -0.725  -0.005  0.00  0.00    -0.021 A 
ATOM      2  C   UNL     1      -1.911  -1.054   1.196  0.00  0.00    +0.007 A 
ATOM      3  C   UNL     1      -3.198  -1.555   1.211  0.00  0.00    +0.025 A 
ATOM      4  C   UNL     1      -3.889  -1.727   0.018  0.00  0.00    +0.050 A 
ATOM      5  C   UNL     1      -3.282  -1.396  -1.186  0.00  0.00    +0.053 A 
ATOM      6  C   UNL     1      -1.996  -0.890  -1.194  0.00  0.00    +0.110 A 
ENDROOT
BRANCH   6   7
ATOM      7  S   UNL     1      -1.228  -0.463  -2.721  0.00  0.00    +0.056 S 
ATOM      8  O   UNL     1       0.051  -1.082  -2.719  0.00  0.00    -0.153 OA
ATOM      9  O   UNL     1      -2.188  -0.702  -3.740  0.00  0.00    -0.153 OA
BRANCH   7  10
ATOM     10  N   UNL     1      -0.962   1.172  -2.694  0.00  0.00    -0.204 NA
ATOM     11  H   UNL     1      -1.296   1.705  -1.956  0.00  0.00    +0.144 HD
ATOM     12  H   UNL     1      -0.473   1.595  -3.417  0.00  0.00    +0.144 HD
ENDBRANCH   7  10
ENDBRANCH   6   7
BRANCH   1  14
ATOM     13  C   UNL     1       0.647  -0.159   1.409  0.00  0.00    +0.009 C 
ATOM     14  C   UNL     1       0.095  -0.180  -0.018  0.00  0.00    +0.034 C 
ENDBRANCH   1  14
BRANCH   4  15
ATOM     15  N   UNL     1      -5.191  -2.233   0.030  0.00  0.00    -0.216 N 
ATOM     16  H   UNL     1      -5.449  -2.922  -0.603  0.00  0.00    +0.174 HD
BRANCH  15  17
ATOM     17  S   UNL     1      -6.293  -1.658   1.123  0.00  0.00    +0.072 S 
ATOM     18  O   UNL     1      -7.513  -2.341   0.868  0.00  0.00    -0.150 OA
ATOM     19  O   UNL     1      -5.657  -1.685   2.393  0.00  0.00    -0.150 OA
BRANCH  17  20
ATOM     20  C   UNL     1      -6.574   0.038   0.736  0.00  0.00    +0.109 A 
ATOM     21  C   UNL     1      -5.789   1.019   1.313  0.00  0.00    +0.029 A 
ATOM     22  C   UNL     1      -6.011   2.347   1.008  0.00  0.00    +0.006 A 
ATOM     23  C   UNL     1      -7.019   2.701   0.126  0.00  0.00    -0.044 A 
ATOM     24  C   UNL     1      -7.804   1.720  -0.451  0.00  0.00    -0.042 A 
ATOM     25  C   UNL     1      -7.576   0.388  -0.148  0.00  0.00    +0.032 A 
ATOM     26  C   UNL     1      -8.825   2.357  -1.369  0.00  0.00    +0.036 C 
ATOM     27  C   UNL     1      -8.867   3.844  -0.957  0.00  0.00    +0.009 C 
ATOM     28  C   UNL     1      -7.459   4.063  -0.365  0.00  0.00    +0.036 C 
ENDBRANCH  17  20
ENDBRANCH  15  17
ENDBRANCH   4  15
TORSDOF 6
