REMARK  Name = ZINC43509371
REMARK  9 active torsions:
REMARK  status: ('A' for Active; 'I' for Inactive)
REMARK    1  A    between atoms: C_1  and  C_2
REMARK    2  A    between atoms: C_2  and  O_17
REMARK    3  A    between atoms: C_3  and  C_15
REMARK    4  A    between atoms: C_6  and  O_14
REMARK    5  A    between atoms: C_8  and  C_12
REMARK    6  A    between atoms: C_8  and  O_13
REMARK    7  A    between atoms: C_9  and  C_10
REMARK    8  A    between atoms: C_9  and  O_11
REMARK    9  A    between atoms: C_15  and  O_16
REMARK                            x       y       z     vdW  Elec       q    Type
REMARK                         _______ _______ _______ _____ _____    ______ ____
ROOT
ATOM      1  C   UNL     1      -0.177   1.432  -0.033  0.00  0.00    +0.047 C 
ATOM      2  C   UNL     1      -0.061  -0.093   0.008  0.00  0.00    +0.123 C 
ATOM      3  C   UNL     1      -1.459  -0.712   0.085  0.00  0.00    +0.181 C 
ATOM      4  O   UNL     1      -1.346  -2.133   0.181  0.00  0.00    -0.340 OA
ATOM      5  C   UNL     1      -0.645  -2.585   1.341  0.00  0.00    +0.282 C 
ATOM      6  C   UNL     1       0.786  -2.042   1.315  0.00  0.00    +0.144 C 
ATOM      7  C   UNL     1       0.743  -0.513   1.243  0.00  0.00    +0.127 C 
ATOM      8  C   UNL     1       0.072   0.040   2.502  0.00  0.00    +0.047 C 
ATOM      9  C   UNL     1       1.520  -2.474   2.586  0.00  0.00    +0.050 C 
ENDROOT
BRANCH   7  10
ATOM     10  O   UNL     1       2.073  -0.001   1.144  0.00  0.00    -0.383 OA
ATOM     11  H   UNL     1       2.639  -0.229   1.894  0.00  0.00    +0.210 HD
ENDBRANCH   7  10
BRANCH   6  12
ATOM     12  O   UNL     1       1.470  -2.555   0.170  0.00  0.00    -0.381 OA
ATOM     13  H   UNL     1       1.531  -3.520   0.147  0.00  0.00    +0.210 HD
ENDBRANCH   6  12
BRANCH   5  14
ATOM     14  O   UNL     1      -1.312  -2.115   2.514  0.00  0.00    -0.365 OA
ATOM     15  H   UNL     1      -2.226  -2.420   2.596  0.00  0.00    +0.213 HD
ENDBRANCH   5  14
BRANCH   2  16
ATOM     16  O   UNL     1       0.602  -0.553  -1.172  0.00  0.00    -0.383 OA
ATOM     17  H   UNL     1       0.146  -0.324  -1.994  0.00  0.00    +0.210 HD
ENDBRANCH   2  16
BRANCH   3  18
ATOM     18  C   UNL     1      -2.248  -0.346  -1.175  0.00  0.00    +0.190 C 
BRANCH  18  19
ATOM     19  O   UNL     1      -3.590  -0.824  -1.051  0.00  0.00    -0.392 OA
ATOM     20  H   UNL     1      -4.149  -0.627  -1.815  0.00  0.00    +0.210 HD
ENDBRANCH  18  19
ENDBRANCH   3  18
TORSDOF 6
