REMARK  Name = ZINC08710494
REMARK  7 active torsions:
REMARK  status: ('A' for Active; 'I' for Inactive)
REMARK    1  A    between atoms: C_1  and  C_2
REMARK    2  A    between atoms: C_4  and  C_30
REMARK    3  A    between atoms: C_6  and  N_8
REMARK    4  A    between atoms: C_9  and  C_23
REMARK    5  A    between atoms: C_12  and  S_13
REMARK    6  A    between atoms: S_13  and  C_14
REMARK    7  A    between atoms: C_14  and  C_15
REMARK                            x       y       z     vdW  Elec       q    Type
REMARK                         _______ _______ _______ _____ _____    ______ ____
ROOT
ATOM      1  N   UNL     1       3.726   1.631   0.162  0.00  0.00    -0.270 N 
ATOM      2  C   UNL     1       2.478   1.049   0.135  0.00  0.00    +0.169 A 
ATOM      3  N   UNL     1       2.654  -0.227  -0.119  0.00  0.00    -0.128 NA
ATOM      4  N   UNL     1       3.907  -0.481  -0.247  0.00  0.00    -0.122 NA
ATOM      5  C   UNL     1       4.611   0.616  -0.082  0.00  0.00    +0.197 A 
ENDROOT
BRANCH   1  11
ATOM      6  C   UNL     1       3.572   6.319  -1.319  0.00  0.00    +0.044 C 
ATOM      7  C   UNL     1       3.964   5.273  -0.307  0.00  0.00    -0.048 A 
ATOM      8  C   UNL     1       4.621   5.644   0.851  0.00  0.00    +0.006 A 
ATOM      9  C   UNL     1       4.982   4.687   1.782  0.00  0.00    -0.048 A 
ATOM     10  C   UNL     1       4.686   3.357   1.556  0.00  0.00    +0.029 A 
ATOM     11  C   UNL     1       4.027   2.981   0.394  0.00  0.00    +0.051 A 
ATOM     12  C   UNL     1       3.672   3.943  -0.541  0.00  0.00    +0.029 A 
ATOM     13  C   UNL     1       5.697   5.096   3.043  0.00  0.00    +0.044 C 
ENDBRANCH   1  11
BRANCH   2  14
ATOM     14  C   UNL     1       1.184   1.732   0.346  0.00  0.00    +0.020 A 
ATOM     15  C   UNL     1       1.146   2.985   0.963  0.00  0.00    +0.012 A 
ATOM     16  C   UNL     1      -0.065   3.615   1.162  0.00  0.00    +0.016 A 
ATOM     17  C   UNL     1      -1.239   3.013   0.744  0.00  0.00    +0.018 A 
ATOM     18  C   UNL     1      -1.208   1.772   0.131  0.00  0.00    +0.016 A 
ATOM     19  C   UNL     1      -0.004   1.129  -0.069  0.00  0.00    +0.012 A 
ATOM     20 BR   UNL     1      -2.894   3.887   1.015  0.00  0.00    -0.050 Br
ENDBRANCH   2  14
BRANCH   5  21
ATOM     21  S   UNL     1       6.365   0.756  -0.166  0.00  0.00    -0.078 S 
BRANCH  21  22
ATOM     22  C   UNL     1       6.801  -0.964  -0.522  0.00  0.00    +0.153 C 
BRANCH  22  23
ATOM     23  C   UNL     1       8.298  -1.089  -0.640  0.00  0.00    +0.146 A 
ATOM     24  N   UNL     1       8.881  -0.935  -1.815  0.00  0.00    -0.199 NA
ATOM     25  C   UNL     1      10.204  -1.040  -1.923  0.00  0.00    +0.217 A 
ATOM     26  N   UNL     1      10.937  -1.310  -0.848  0.00  0.00    -0.181 NA
ATOM     27  C   UNL     1      10.346  -1.470   0.331  0.00  0.00    +0.217 A 
ATOM     28  N   UNL     1       9.023  -1.359   0.432  0.00  0.00    -0.199 NA
ATOM     29  N   UNL     1      11.102  -1.752   1.451  0.00  0.00    -0.327 N 
ATOM     30  N   UNL     1      10.813  -0.873  -3.150  0.00  0.00    -0.327 N 
ATOM     31  H   UNL     1      10.670  -1.869   2.311  0.00  0.00    +0.145 HD
ATOM     32  H   UNL     1      12.066  -1.833   1.377  0.00  0.00    +0.145 HD
ATOM     33  H   UNL     1      11.776  -0.954  -3.228  0.00  0.00    +0.145 HD
ATOM     34  H   UNL     1      10.277  -0.676  -3.934  0.00  0.00    +0.145 HD
ENDBRANCH  22  23
ENDBRANCH  21  22
ENDBRANCH   5  21
TORSDOF 5
