REMARK  Name = ZINC10114920
REMARK  8 active torsions:
REMARK  status: ('A' for Active; 'I' for Inactive)
REMARK    1  A    between atoms: C_4  and  O_33
REMARK    2  A    between atoms: C_5  and  C_7
REMARK    3  A    between atoms: C_7  and  N_8
REMARK    4  A    between atoms: C_9  and  C_11
REMARK    5  A    between atoms: C_16  and  N_17
REMARK    6  A    between atoms: N_17  and  S_18
REMARK    7  A    between atoms: S_18  and  C_21
REMARK    8  A    between atoms: O_33  and  C_34
REMARK                            x       y       z     vdW  Elec       q    Type
REMARK                         _______ _______ _______ _____ _____    ______ ____
ROOT
ATOM      1  C   UNL     1       3.239   2.880  -3.763  0.00  0.00    +0.059 A 
ATOM      2  C   UNL     1       2.369   3.599  -4.587  0.00  0.00    +0.015 A 
ATOM      3  C   UNL     1       1.711   4.704  -4.092  0.00  0.00    +0.001 A 
ATOM      4  C   UNL     1       1.906   5.107  -2.781  0.00  0.00    +0.002 A 
ATOM      5  C   UNL     1       2.757   4.404  -1.953  0.00  0.00    +0.025 A 
ATOM      6  C   UNL     1       3.434   3.290  -2.435  0.00  0.00    +0.060 A 
ENDROOT
BRANCH   1   8
ATOM      7  N   UNL     1       3.755   1.305  -5.561  0.00  0.00    -0.307 N 
ATOM      8  C   UNL     1       3.946   1.696  -4.285  0.00  0.00    +0.246 C 
ATOM      9  O   UNL     1       4.702   1.072  -3.565  0.00  0.00    -0.270 OA
ATOM     10  H   UNL     1       3.152   1.803  -6.135  0.00  0.00    +0.149 HD
BRANCH   7  11
ATOM     11  C   UNL     1       4.458   0.129  -6.080  0.00  0.00    +0.143 C 
BRANCH  11  16
ATOM     12  C   UNL     1       2.774  -1.247  -9.166  0.00  0.00    +0.001 A 
ATOM     13  C   UNL     1       3.366  -0.497 -10.166  0.00  0.00    +0.004 A 
ATOM     14  C   UNL     1       4.312   0.458  -9.846  0.00  0.00    +0.046 A 
ATOM     15  C   UNL     1       4.668   0.663  -8.521  0.00  0.00    +0.132 A 
ATOM     16  C   UNL     1       4.073  -0.091  -7.520  0.00  0.00    +0.012 A 
ATOM     17  C   UNL     1       3.131  -1.048  -7.846  0.00  0.00    +0.009 A 
BRANCH  15  18
ATOM     18  O   UNL     1       5.599   1.601  -8.204  0.00  0.00    -0.434 OA
BRANCH  18  19
ATOM     19  C   UNL     1       6.170   2.340  -9.286  0.00  0.00    +0.541 C 
ATOM     20  F   UNL     1       6.808   1.460 -10.166  0.00  0.00    -0.166 F 
ATOM     21  F   UNL     1       5.159   3.028  -9.965  0.00  0.00    -0.166 F 
ENDBRANCH  18  19
ENDBRANCH  15  18
ENDBRANCH  11  16
ENDBRANCH   7  11
ENDBRANCH   1   8
BRANCH   6  22
ATOM     22  N   UNL     1       4.295   2.583  -1.606  0.00  0.00    -0.216 N 
ATOM     23  H   UNL     1       5.106   2.193  -1.968  0.00  0.00    +0.174 HD
BRANCH  22  24
ATOM     24  S   UNL     1       3.938   2.408   0.002  0.00  0.00    +0.072 S 
ATOM     25  O   UNL     1       3.711   3.714   0.513  0.00  0.00    -0.150 OA
ATOM     26  O   UNL     1       4.922   1.538   0.544  0.00  0.00    -0.150 OA
BRANCH  24  27
ATOM     27  C   UNL     1       2.400   1.553   0.103  0.00  0.00    +0.111 A 
ATOM     28  C   UNL     1       1.215   2.267   0.127  0.00  0.00    +0.031 A 
ATOM     29  C   UNL     1       0.005   1.607   0.206  0.00  0.00    +0.030 A 
ATOM     30  C   UNL     1      -0.023   0.221   0.262  0.00  0.00    +0.067 A 
ATOM     31  C   UNL     1       1.173  -0.499   0.237  0.00  0.00    +0.069 A 
ATOM     32  C   UNL     1       2.383   0.173   0.157  0.00  0.00    +0.056 A 
ATOM     33  N   UNL     1       0.832  -1.848   0.305  0.00  0.00    -0.306 N 
ATOM     34  H   UNL     1       1.454  -2.592   0.307  0.00  0.00    +0.170 HD
ATOM     35  C   UNL     1      -0.510  -1.943   0.368  0.00  0.00    +0.325 A 
ATOM     36  O   UNL     1      -1.136  -2.985   0.436  0.00  0.00    -0.247 OA
ATOM     37  N   UNL     1      -1.054  -0.712   0.344  0.00  0.00    -0.306 N 
ATOM     38  H   UNL     1      -2.001  -0.509   0.378  0.00  0.00    +0.170 HD
ENDBRANCH  24  27
ENDBRANCH  22  24
ENDBRANCH   6  22
TORSDOF 8
