REMARK  Name = ZINC37793798
REMARK  3 active torsions:
REMARK  status: ('A' for Active; 'I' for Inactive)
REMARK    1  A    between atoms: C_4  and  C_21
REMARK    2  A    between atoms: C_6  and  C_9
REMARK    3  A    between atoms: N_11  and  C_12
REMARK                            x       y       z     vdW  Elec       q    Type
REMARK                         _______ _______ _______ _____ _____    ______ ____
ROOT
ATOM      1  C   UNL     1      -0.698   0.090   1.250  0.00  0.00    +0.217 C 
ATOM      2  O   UNL     1      -0.454  -0.988   0.749  0.00  0.00    -0.275 OA
ATOM      3  N   UNL     1      -1.962   0.556   1.265  0.00  0.00    -0.304 N 
ATOM      4  H   UNL     1      -2.156   1.417   1.666  0.00  0.00    +0.149 HD
ENDROOT
BRANCH   3   5
ATOM      5  C   UNL     1      -3.043  -0.239   0.677  0.00  0.00    +0.159 C 
ATOM      6  C   UNL     1      -4.267   0.649   0.444  0.00  0.00    +0.032 C 
ATOM      7  C   UNL     1      -4.388   1.695   1.538  0.00  0.00    +0.004 C 
ATOM      8  C   UNL     1      -4.699   1.118   2.907  0.00  0.00    +0.019 C 
ATOM      9  C   UNL     1      -3.525   0.286   3.428  0.00  0.00    +0.104 C 
ATOM     10  N   UNL     1      -3.657  -1.087   2.915  0.00  0.00    -0.314 N 
ATOM     11  C   UNL     1      -3.428  -1.355   1.626  0.00  0.00    +0.233 C 
ATOM     12  O   UNL     1      -3.533  -2.491   1.212  0.00  0.00    -0.274 OA
ATOM     13  H   UNL     1      -3.909  -1.804   3.518  0.00  0.00    +0.149 HD
ENDBRANCH   3   5
BRANCH   1  18
ATOM     14  C   UNL     1       2.603   2.026   1.403  0.00  0.00    +0.001 C 
ATOM     15  C   UNL     1       3.238   1.248   2.556  0.00  0.00    +0.001 C 
ATOM     16  C   UNL     1       2.179   0.960   3.622  0.00  0.00    +0.015 C 
ATOM     17  C   UNL     1       1.050   0.130   3.008  0.00  0.00    +0.114 C 
ATOM     18  C   UNL     1       0.414   0.908   1.854  0.00  0.00    +0.089 C 
ATOM     19  C   UNL     1       1.474   1.196   0.788  0.00  0.00    +0.013 C 
BRANCH  17  20
ATOM     20  C   UNL     1       0.007  -0.154   4.058  0.00  0.00    +0.360 C 
ATOM     21  O   UNL     1      -0.525   0.767   4.654  0.00  0.00    -0.246 OA
ATOM     22  O   UNL     1      -0.305  -1.305   4.312  0.00  0.00    -0.246 OA
ENDBRANCH  17  20
ENDBRANCH   1  18
TORSDOF 3
