REMARK  Name = ZINC12492216
REMARK  8 active torsions:
REMARK  status: ('A' for Active; 'I' for Inactive)
REMARK    1  A    between atoms: C_1  and  C_2
REMARK    2  A    between atoms: C_2  and  C_3
REMARK    3  A    between atoms: C_2  and  C_4
REMARK    4  A    between atoms: C_4  and  C_6
REMARK    5  A    between atoms: C_4  and  N_19
REMARK    6  A    between atoms: N_8  and  C_9
REMARK    7  A    between atoms: C_12  and  S_15
REMARK    8  A    between atoms: S_15  and  N_18
REMARK                            x       y       z     vdW  Elec       q    Type
REMARK                         _______ _______ _______ _____ _____    ______ ____
ROOT
ATOM      1  C   UNL     1      -1.071  -0.459  -0.030  0.00  0.00    +0.173 C 
ENDROOT
BRANCH   1   2
ATOM      2  N   UNL     1      -0.846  -1.907  -0.016  0.00  0.00    -0.229 N 
ATOM      3  C   UNL     1      -0.110  -2.533  -0.940  0.00  0.00    +0.227 C 
ATOM      4  O   UNL     1       0.444  -1.997  -1.876  0.00  0.00    -0.275 OA
ATOM      5  C   UNL     1      -0.075  -4.014  -0.638  0.00  0.00    +0.095 C 
ATOM      6  C   UNL     1      -0.906  -4.757  -1.731  0.00  0.00    +0.025 C 
ATOM      7  C   UNL     1      -2.364  -4.351  -1.306  0.00  0.00    +0.016 C 
ATOM      8  C   UNL     1      -2.204  -4.938   0.143  0.00  0.00    +0.025 C 
ATOM      9  C   UNL     1      -0.940  -4.136   0.651  0.00  0.00    +0.095 C 
ATOM     10  C   UNL     1      -1.355  -2.708   0.926  0.00  0.00    +0.227 C 
ATOM     11  O   UNL     1      -2.044  -2.346   1.856  0.00  0.00    -0.275 OA
ATOM     12  C   UNL     1      -1.647  -6.326  -0.197  0.00  0.00    -0.027 C 
ATOM     13  C   UNL     1      -0.880  -6.225  -1.288  0.00  0.00    -0.027 C 
ENDBRANCH   1   2
BRANCH   1  14
ATOM     14  C   UNL     1      -1.766  -0.072  -1.310  0.00  0.00    +0.238 C 
ATOM     15  O   UNL     1      -1.838  -0.865  -2.225  0.00  0.00    -0.273 OA
ATOM     16  N   UNL     1      -2.307   1.156  -1.438  0.00  0.00    -0.284 N 
ATOM     17  H   UNL     1      -2.243   1.793  -0.710  0.00  0.00    +0.155 HD
BRANCH  16  18
ATOM     18  C   UNL     1      -2.962   1.512  -2.623  0.00  0.00    +0.034 A 
ATOM     19  C   UNL     1      -3.623   0.546  -3.369  0.00  0.00    +0.025 A 
ATOM     20  C   UNL     1      -4.269   0.900  -4.538  0.00  0.00    +0.030 A 
ATOM     21  C   UNL     1      -4.256   2.216  -4.965  0.00  0.00    +0.105 A 
ATOM     22  C   UNL     1      -3.598   3.180  -4.224  0.00  0.00    +0.030 A 
ATOM     23  C   UNL     1      -2.956   2.833  -3.051  0.00  0.00    +0.025 A 
BRANCH  21  24
ATOM     24  S   UNL     1      -5.080   2.664  -6.456  0.00  0.00    +0.056 S 
ATOM     25  O   UNL     1      -4.460   3.855  -6.921  0.00  0.00    -0.153 OA
ATOM     26  O   UNL     1      -5.157   1.486  -7.248  0.00  0.00    -0.153 OA
BRANCH  24  27
ATOM     27  N   UNL     1      -6.636   3.066  -6.054  0.00  0.00    -0.204 NA
ATOM     28  H   UNL     1      -6.924   3.023  -5.129  0.00  0.00    +0.144 HD
ATOM     29  H   UNL     1      -7.258   3.344  -6.744  0.00  0.00    +0.144 HD
ENDBRANCH  24  27
ENDBRANCH  21  24
ENDBRANCH  16  18
ENDBRANCH   1  14
BRANCH   1  31
ATOM     30  C   UNL     1       0.031   1.773   0.185  0.00  0.00    +0.009 C 
ATOM     31  C   UNL     1       0.273   0.267   0.060  0.00  0.00    +0.013 C 
ATOM     32  C   UNL     1       1.039  -0.230   1.287  0.00  0.00    +0.009 C 
ENDBRANCH   1  31
TORSDOF 6
