REMARK  Name = ZINC19831174
REMARK  11 active torsions:
REMARK  status: ('A' for Active; 'I' for Inactive)
REMARK    1  A    between atoms: C_1  and  C_2
REMARK    2  A    between atoms: C_5  and  N_9
REMARK    3  A    between atoms: C_7  and  C_8
REMARK    4  A    between atoms: C_10  and  C_12
REMARK    5  A    between atoms: C_12  and  S_13
REMARK    6  A    between atoms: S_13  and  C_14
REMARK    7  A    between atoms: C_15  and  C_36
REMARK    8  A    between atoms: C_16  and  C_31
REMARK    9  A    between atoms: C_18  and  C_22
REMARK   10  A    between atoms: C_19  and  C_21
REMARK   11  A    between atoms: N_24  and  C_25
REMARK                            x       y       z     vdW  Elec       q    Type
REMARK                         _______ _______ _______ _____ _____    ______ ____
ROOT
ATOM      1  C   UNL     1      -2.678   2.961   2.381  0.00  0.00    +0.080 C 
ATOM      2  C   UNL     1      -2.137   2.940   3.628  0.00  0.00    +0.072 C 
ATOM      3  C   UNL     1      -0.823   2.263   3.897  0.00  0.00    +0.134 C 
ATOM      4  C   UNL     1      -0.081   2.010   2.616  0.00  0.00    +0.047 C 
ATOM      5  C   UNL     1      -0.693   2.065   1.422  0.00  0.00    +0.015 C 
ATOM      6  N   UNL     1      -2.023   2.369   1.325  0.00  0.00    -0.312 N 
ATOM      7  C   UNL     1       0.100   1.794   0.169  0.00  0.00    +0.061 C 
ATOM      8  H   UNL     1      -2.570   2.138   0.399  0.00  0.00    +0.152 HD
ENDROOT
BRANCH   3   9
ATOM      9  C   UNL     1      -1.075   0.949   4.591  0.00  0.00    +0.118 A 
ATOM     10  C   UNL     1      -0.639   0.611   5.818  0.00  0.00    +0.045 A 
ATOM     11  C   UNL     1      -1.101  -0.701   6.070  0.00  0.00    +0.041 A 
ATOM     12  C   UNL     1      -1.792  -1.087   4.982  0.00  0.00    +0.195 A 
ATOM     13  O   UNL     1      -1.777  -0.081   4.092  0.00  0.00    -0.467 OA
ENDBRANCH   3   9
BRANCH   4  14
ATOM     14  C   UNL     1       1.301   1.707   2.669  0.00  0.00    +0.247 C 
ATOM     15  O   UNL     1       1.941   1.599   1.638  0.00  0.00    -0.270 OA
ATOM     16  N   UNL     1       1.909   1.537   3.860  0.00  0.00    -0.282 N 
ATOM     17  H   UNL     1       1.318   1.561   4.787  0.00  0.00    +0.155 HD
BRANCH  16  18
ATOM     18  C   UNL     1       3.291   1.330   3.917  0.00  0.00    +0.034 A 
ATOM     19  C   UNL     1       3.925   0.590   2.928  0.00  0.00    +0.023 A 
ATOM     20  C   UNL     1       5.291   0.393   2.983  0.00  0.00    +0.002 A 
ATOM     21  C   UNL     1       6.025   0.922   4.029  0.00  0.00    +0.000 A 
ATOM     22  C   UNL     1       5.396   1.655   5.018  0.00  0.00    +0.002 A 
ATOM     23  C   UNL     1       4.031   1.861   4.965  0.00  0.00    +0.023 A 
ENDBRANCH  16  18
ENDBRANCH   4  14
BRANCH   2  24
ATOM     24  C   UNL     1      -2.833   3.575   4.707  0.00  0.00    +0.098 C 
ATOM     25  N   UNL     1      -3.385   4.079   5.562  0.00  0.00    -0.191 NA
ENDBRANCH   2  24
BRANCH   1  26
ATOM     26  S   UNL     1      -4.227   3.757   2.112  0.00  0.00    -0.100 S 
BRANCH  26  27
ATOM     27  C   UNL     1      -4.424   3.471   0.336  0.00  0.00    +0.171 C 
BRANCH  27  29
ATOM     28  N   UNL     1      -6.078   3.994  -1.427  0.00  0.00    -0.285 N 
ATOM     29  C   UNL     1      -5.719   4.083  -0.131  0.00  0.00    +0.227 C 
ATOM     30  O   UNL     1      -6.438   4.657   0.660  0.00  0.00    -0.275 OA
ATOM     31  H   UNL     1      -5.465   3.409  -2.128  0.00  0.00    +0.155 HD
BRANCH  28  36
ATOM     32  C   UNL     1     -10.755   6.629  -3.263  0.00  0.00    +0.044 C 
ATOM     33  C   UNL     1      -9.512   5.929  -2.775  0.00  0.00    -0.047 A 
ATOM     34  C   UNL     1      -9.483   5.381  -1.506  0.00  0.00    +0.005 A 
ATOM     35  C   UNL     1      -8.348   4.734  -1.058  0.00  0.00    +0.023 A 
ATOM     36  C   UNL     1      -7.232   4.644  -1.879  0.00  0.00    +0.034 A 
ATOM     37  C   UNL     1      -7.265   5.195  -3.153  0.00  0.00    +0.027 A 
ATOM     38  C   UNL     1      -8.405   5.837  -3.598  0.00  0.00    -0.046 A 
ATOM     39  C   UNL     1      -8.441   6.435  -4.980  0.00  0.00    +0.044 C 
ENDBRANCH  28  36
ENDBRANCH  27  29
ENDBRANCH  26  27
ENDBRANCH   1  26
TORSDOF 8
