REMARK  Name = ZINC64089955
REMARK  6 active torsions:
REMARK  status: ('A' for Active; 'I' for Inactive)
REMARK    1  A    between atoms: C_3  and  C_6
REMARK    2  A    between atoms: C_6  and  C_7
REMARK    3  A    between atoms: C_6  and  N_23
REMARK    4  A    between atoms: C_7  and  C_8
REMARK    5  A    between atoms: N_10  and  C_11
REMARK    6  A    between atoms: C_18  and  C_20
REMARK                            x       y       z     vdW  Elec       q    Type
REMARK                         _______ _______ _______ _____ _____    ______ ____
ROOT
ATOM      1  C   UNL     1       5.761   2.272  -1.457  0.00  0.00    +0.219 C 
ATOM      2  O   UNL     1       6.323   2.584  -0.429  0.00  0.00    -0.275 OA
ATOM      3  N   UNL     1       6.367   2.474  -2.644  0.00  0.00    -0.285 N 
ATOM      4  H   UNL     1       5.952   2.155  -3.461  0.00  0.00    +0.155 HD
ENDROOT
BRANCH   3   5
ATOM      5  C   UNL     1       7.595   3.145  -2.698  0.00  0.00    +0.035 A 
ATOM      6  C   UNL     1       8.537   2.811  -3.669  0.00  0.00    +0.025 A 
ATOM      7  C   UNL     1       9.738   3.446  -3.744  0.00  0.00    +0.031 A 
ATOM      8  C   UNL     1      10.068   4.470  -2.831  0.00  0.00    +0.079 A 
ATOM      9  C   UNL     1       9.097   4.792  -1.856  0.00  0.00    +0.041 A 
ATOM     10  C   UNL     1       7.884   4.153  -1.788  0.00  0.00    +0.040 A 
ATOM     11  S   UNL     1       9.901   6.088  -0.950  0.00  0.00    -0.072 S 
ATOM     12  C   UNL     1      11.338   6.131  -1.825  0.00  0.00    +0.083 A 
ATOM     13  N   UNL     1      11.190   5.214  -2.735  0.00  0.00    -0.244 NA
BRANCH  12  14
ATOM     14  C   UNL     1      12.528   7.029  -1.603  0.00  0.00    +0.045 C 
ATOM     15  C   UNL     1      13.633   7.011  -2.661  0.00  0.00    +0.011 C 
ATOM     16  C   UNL     1      13.870   6.362  -1.296  0.00  0.00    +0.011 C 
ENDBRANCH  12  14
ENDBRANCH   3   5
BRANCH   1  17
ATOM     17  C   UNL     1       4.386   1.657  -1.409  0.00  0.00    +0.123 C 
BRANCH  17  18
ATOM     18  C   UNL     1       3.932   1.539   0.048  0.00  0.00    +0.120 C 
BRANCH  18  19
ATOM     19  N   UNL     1       4.802   0.597   0.756  0.00  0.00    -0.292 N 
ATOM     20  C   UNL     1       4.948   0.689   2.092  0.00  0.00    +0.298 C 
ATOM     21  O   UNL     1       4.357   1.553   2.711  0.00  0.00    -0.253 OA
ATOM     22  N   UNL     1       5.749  -0.178   2.744  0.00  0.00    -0.313 N 
ATOM     23  H   UNL     1       5.274  -0.092   0.263  0.00  0.00    +0.151 HD
ATOM     24  H   UNL     1       6.221  -0.867   2.251  0.00  0.00    +0.146 HD
ATOM     25  H   UNL     1       5.854  -0.112   3.706  0.00  0.00    +0.146 HD
ENDBRANCH  18  19
BRANCH  18  28
ATOM     26  C   UNL     1       0.159   1.064   0.275  0.00  0.00    +0.008 A 
ATOM     27  C   UNL     1       1.365   1.740   0.271  0.00  0.00    +0.013 A 
ATOM     28  C   UNL     1       2.511   1.039   0.091  0.00  0.00    +0.010 A 
ATOM     29  S   UNL     1       1.900  -0.629  -0.080  0.00  0.00    -0.100 S 
ATOM     30  C   UNL     1       0.158  -0.280   0.099  0.00  0.00    +0.045 A 
ENDBRANCH  18  28
ENDBRANCH  17  18
ENDBRANCH   1  17
TORSDOF 6
