REMARK  Name = ZINC36531570
REMARK  13 active torsions:
REMARK  status: ('A' for Active; 'I' for Inactive)
REMARK    1  A    between atoms: C_1  and  C_2
REMARK    2  A    between atoms: C_2  and  C_3
REMARK    3  A    between atoms: C_2  and  C_4
REMARK    4  A    between atoms: C_2  and  N_5
REMARK    5  A    between atoms: C_6  and  C_8
REMARK    6  A    between atoms: C_8  and  C_10
REMARK    7  A    between atoms: C_8  and  N_19
REMARK    8  A    between atoms: C_11  and  O_18
REMARK    9  A    between atoms: C_13  and  O_17
REMARK   10  A    between atoms: C_15  and  O_16
REMARK   11  A    between atoms: N_19  and  C_20
REMARK   12  A    between atoms: C_21  and  C_23
REMARK   13  A    between atoms: C_23  and  C_24
REMARK                            x       y       z     vdW  Elec       q    Type
REMARK                         _______ _______ _______ _____ _____    ______ ____
ROOT
ATOM      1  C   UNL     1       2.683  -0.666  -2.584  0.00  0.00    +0.199 C 
ENDROOT
BRANCH   1   2
ATOM      2  C   UNL     1       1.594  -0.374  -3.584  0.00  0.00    +0.065 A 
ATOM      3  C   UNL     1       1.761  -0.726  -4.914  0.00  0.00    +0.129 A 
ATOM      4  C   UNL     1       0.759  -0.458  -5.834  0.00  0.00    +0.091 A 
ATOM      5  C   UNL     1      -0.411   0.163  -5.423  0.00  0.00    +0.124 A 
ATOM      6  C   UNL     1      -0.579   0.514  -4.092  0.00  0.00    +0.091 A 
ATOM      7  C   UNL     1       0.421   0.242  -3.172  0.00  0.00    +0.129 A 
BRANCH   7   8
ATOM      8  O   UNL     1       0.255   0.582  -1.867  0.00  0.00    -0.506 OA
ATOM      9  H   UNL     1       0.565   1.471  -1.649  0.00  0.00    +0.292 HD
ENDBRANCH   7   8
BRANCH   5  10
ATOM     10  O   UNL     1      -1.393   0.426  -6.325  0.00  0.00    -0.507 OA
ATOM     11  H   UNL     1      -2.039  -0.287  -6.423  0.00  0.00    +0.292 HD
ENDBRANCH   5  10
BRANCH   3  12
ATOM     12  O   UNL     1       2.908  -1.334  -5.317  0.00  0.00    -0.506 OA
ATOM     13  H   UNL     1       2.906  -2.294  -5.201  0.00  0.00    +0.292 HD
ENDBRANCH   3  12
ENDBRANCH   1   2
BRANCH   1  15
ATOM     14  N   UNL     1       1.424  -2.192  -1.100  0.00  0.00    -0.309 N 
ATOM     15  C   UNL     1       2.065  -1.017  -1.255  0.00  0.00    +0.239 C 
ATOM     16  O   UNL     1       2.143  -0.241  -0.326  0.00  0.00    -0.273 OA
ATOM     17  H   UNL     1       1.361  -2.813  -1.843  0.00  0.00    +0.149 HD
BRANCH  14  19
ATOM     18  C   UNL     1      -0.232  -1.487   0.556  0.00  0.00    +0.031 C 
ATOM     19  C   UNL     1       0.823  -2.534   0.192  0.00  0.00    +0.026 C 
ATOM     20  C   UNL     1       1.909  -2.559   1.269  0.00  0.00    +0.031 C 
ATOM     21  C   UNL     1       0.164  -3.912   0.100  0.00  0.00    +0.031 C 
ENDBRANCH  14  19
ENDBRANCH   1  15
BRANCH   1  22
ATOM     22  N   UNL     1       3.534   0.517  -2.429  0.00  0.00    -0.289 N 
ATOM     23  C   UNL     1       2.933   1.814  -2.109  0.00  0.00    +0.133 C 
ATOM     24  C   UNL     1       4.868   0.412  -2.582  0.00  0.00    +0.221 C 
ATOM     25  O   UNL     1       5.366  -0.662  -2.847  0.00  0.00    -0.275 OA
BRANCH  24  26
ATOM     26  C   UNL     1       5.743   1.629  -2.423  0.00  0.00    +0.132 C 
BRANCH  26  27
ATOM     27  C   UNL     1       7.184   1.244  -2.642  0.00  0.00    -0.019 A 
ATOM     28  C   UNL     1       7.986   0.926  -1.562  0.00  0.00    +0.005 A 
ATOM     29  C   UNL     1       9.308   0.573  -1.763  0.00  0.00    +0.002 A 
ATOM     30  C   UNL     1       9.828   0.537  -3.043  0.00  0.00    +0.021 A 
ATOM     31  C   UNL     1       9.027   0.855  -4.124  0.00  0.00    +0.060 A 
ATOM     32  C   UNL     1       7.701   1.203  -3.924  0.00  0.00    +0.063 A 
ATOM     33 CL   UNL     1       6.691   1.594  -5.281  0.00  0.00    -0.082 Cl
ATOM     34 CL   UNL     1       9.680   0.811  -5.732  0.00  0.00    -0.082 Cl
ENDBRANCH  26  27
ENDBRANCH  24  26
ENDBRANCH   1  22
TORSDOF 9
