REMARK  Name = ZINC43516845
REMARK  5 active torsions:
REMARK  status: ('A' for Active; 'I' for Inactive)
REMARK    1  A    between atoms: C_1  and  C_2
REMARK    2  A    between atoms: C_2  and  C_4
REMARK    3  A    between atoms: C_2  and  N_6
REMARK    4  A    between atoms: N_9  and  C_12
REMARK    5  A    between atoms: C_17  and  N_18
REMARK                            x       y       z     vdW  Elec       q    Type
REMARK                         _______ _______ _______ _____ _____    ______ ____
ROOT
ATOM      1  N   UNL     1       0.690  -0.478  -1.207  0.00  0.00    -0.285 NA
ATOM      2  C   UNL     1       2.110  -0.102  -1.186  0.00  0.00    +0.104 C 
ATOM      3  C   UNL     1       2.747  -0.452  -2.535  0.00  0.00    +0.120 C 
ATOM      4  N   UNL     1       2.483  -1.870  -2.823  0.00  0.00    -0.326 N 
ATOM      5  C   UNL     1       1.097  -2.353  -2.728  0.00  0.00    +0.120 C 
ATOM      6  C   UNL     1       0.525  -1.928  -1.372  0.00  0.00    +0.104 C 
ENDROOT
BRANCH   4   7
ATOM      7  C   UNL     1       3.523  -2.737  -3.178  0.00  0.00    +0.051 A 
ATOM      8  C   UNL     1       4.208  -3.438  -2.197  0.00  0.00    +0.025 A 
ATOM      9  C   UNL     1       5.236  -4.295  -2.550  0.00  0.00    +0.002 A 
ATOM     10  C   UNL     1       5.583  -4.454  -3.878  0.00  0.00    +0.002 A 
ATOM     11  C   UNL     1       4.905  -3.758  -4.862  0.00  0.00    +0.024 A 
ATOM     12  C   UNL     1       3.870  -2.902  -4.518  0.00  0.00    +0.046 A 
BRANCH  12  13
ATOM     13  N   UNL     1       3.179  -2.200  -5.514  0.00  0.00    -0.357 N 
ATOM     14  H   UNL     1       2.458  -1.598  -5.271  0.00  0.00    +0.142 HD
ATOM     15  H   UNL     1       3.421  -2.316  -6.446  0.00  0.00    +0.142 HD
ENDBRANCH  12  13
ENDBRANCH   4   7
BRANCH   1  17
ATOM     16  C   UNL     1      -0.019   1.526   0.010  0.00  0.00    +0.040 C 
ATOM     17  C   UNL     1       0.002  -0.004   0.002  0.00  0.00    +0.157 C 
BRANCH  17  18
ATOM     18  C   UNL     1       0.714  -0.492   1.195  0.00  0.00    +0.081 C 
ATOM     19  N   UNL     1       1.263  -0.868   2.115  0.00  0.00    -0.195 NA
ENDBRANCH  17  18
ENDBRANCH   1  17
TORSDOF 4
