REMARK  Name = ZINC37796643
REMARK  4 active torsions:
REMARK  status: ('A' for Active; 'I' for Inactive)
REMARK    1  A    between atoms: C_3  and  N_10
REMARK    2  A    between atoms: C_6  and  O_9
REMARK    3  A    between atoms: C_11  and  C_13
REMARK    4  A    between atoms: C_19  and  C_21
REMARK                            x       y       z     vdW  Elec       q    Type
REMARK                         _______ _______ _______ _____ _____    ______ ____
ROOT
ATOM      1  N   UNL     1       3.485   2.131  -1.145  0.00  0.00    -0.312 N 
ATOM      2  C   UNL     1       3.769   3.297  -1.759  0.00  0.00    +0.217 C 
ATOM      3  O   UNL     1       2.886   3.927  -2.303  0.00  0.00    -0.275 OA
ATOM      4  H   UNL     1       4.191   1.628  -0.710  0.00  0.00    +0.149 HD
ENDROOT
BRANCH   1   7
ATOM      5  C   UNL     1      -0.092   1.725   0.040  0.00  0.00    +0.004 C 
ATOM      6  C   UNL     1       1.343   2.255   0.029  0.00  0.00    +0.022 C 
ATOM      7  C   UNL     1       2.111   1.624  -1.135  0.00  0.00    +0.075 C 
ATOM      8  C   UNL     1       2.130   0.103  -0.969  0.00  0.00    +0.053 C 
ATOM      9  C   UNL     1       0.694  -0.426  -0.958  0.00  0.00    +0.116 C 
ATOM     10  C   UNL     1      -0.073   0.204   0.206  0.00  0.00    +0.031 C 
BRANCH   9  11
ATOM     11  O   UNL     1       0.712  -1.847  -0.803  0.00  0.00    -0.392 OA
ATOM     12  H   UNL     1      -0.166  -2.251  -0.788  0.00  0.00    +0.210 HD
ENDBRANCH   9  11
ENDBRANCH   1   7
BRANCH   2  13
ATOM     13  C   UNL     1       5.183   3.819  -1.770  0.00  0.00    +0.093 C 
ATOM     14  C   UNL     1       5.166   5.349  -1.782  0.00  0.00    +0.040 C 
ATOM     15  C   UNL     1       4.679   5.850  -3.110  0.00  0.00    -0.030 C 
ATOM     16  C   UNL     1       4.630   5.128  -4.184  0.00  0.00    -0.030 C 
ATOM     17  C   UNL     1       5.044   3.687  -4.248  0.00  0.00    +0.042 C 
ATOM     18  C   UNL     1       5.904   3.326  -3.030  0.00  0.00    +0.118 C 
BRANCH  18  19
ATOM     19  C   UNL     1       6.091   1.833  -2.957  0.00  0.00    +0.360 C 
ATOM     20  O   UNL     1       6.117   1.171  -3.980  0.00  0.00    -0.246 OA
ATOM     21  O   UNL     1       6.215   1.287  -1.873  0.00  0.00    -0.246 OA
ENDBRANCH  18  19
ENDBRANCH   2  13
TORSDOF 4
