REMARK  Name = ZINC48771396
REMARK  6 active torsions:
REMARK  status: ('A' for Active; 'I' for Inactive)
REMARK    1  A    between atoms: C_1  and  C_2
REMARK    2  A    between atoms: C_5  and  S_8
REMARK    3  A    between atoms: S_8  and  C_9
REMARK    4  A    between atoms: C_11  and  N_19
REMARK    5  A    between atoms: C_13  and  S_15
REMARK    6  A    between atoms: S_15  and  N_18
REMARK                            x       y       z     vdW  Elec       q    Type
REMARK                         _______ _______ _______ _____ _____    ______ ____
ROOT
ATOM      1  C   UNL     1       0.078  -5.021   1.642  0.00  0.00    +0.019 A 
ATOM      2  C   UNL     1      -0.015  -4.118   2.692  0.00  0.00    +0.038 A 
ATOM      3  C   UNL     1      -0.003  -4.578   4.001  0.00  0.00    +0.027 A 
ATOM      4  C   UNL     1       0.102  -5.940   4.257  0.00  0.00    +0.051 A 
ATOM      5  C   UNL     1       0.194  -6.836   3.209  0.00  0.00    +0.108 A 
ATOM      6  C   UNL     1       0.176  -6.382   1.905  0.00  0.00    +0.043 A 
ENDROOT
BRANCH   5   7
ATOM      7  S   UNL     1       0.328  -8.562   3.538  0.00  0.00    +0.056 S 
ATOM      8  O   UNL     1       0.950  -9.145   2.401  0.00  0.00    -0.153 OA
ATOM      9  O   UNL     1       0.866  -8.685   4.848  0.00  0.00    -0.153 OA
BRANCH   7  10
ATOM     10  N   UNL     1      -1.211  -9.169   3.599  0.00  0.00    -0.204 NA
ATOM     11  H   UNL     1      -1.381 -10.088   3.339  0.00  0.00    +0.144 HD
ATOM     12  H   UNL     1      -1.943  -8.607   3.896  0.00  0.00    +0.144 HD
ENDBRANCH   7  10
ENDBRANCH   5   7
BRANCH   3  13
ATOM     13  N   UNL     1      -0.096  -3.673   5.061  0.00  0.00    -0.358 N 
ATOM     14  H   UNL     1      -0.169  -2.722   4.882  0.00  0.00    +0.142 HD
ATOM     15  H   UNL     1      -0.088  -3.995   5.976  0.00  0.00    +0.142 HD
ENDBRANCH   3  13
BRANCH   1  16
ATOM     16  S   UNL     1       0.063  -4.443  -0.022  0.00  0.00    -0.050 S 
BRANCH  16  21
ATOM     17  C   UNL     1       5.821  -4.000  -1.442  0.00  0.00    +0.047 C 
ATOM     18  C   UNL     1       4.361  -4.112  -1.082  0.00  0.00    -0.014 A 
ATOM     19  C   UNL     1       3.378  -3.886  -2.033  0.00  0.00    +0.118 A 
ATOM     20  N   UNL     1       2.107  -3.993  -1.684  0.00  0.00    -0.230 NA
ATOM     21  C   UNL     1       1.769  -4.312  -0.443  0.00  0.00    +0.193 A 
ATOM     22  N   UNL     1       2.684  -4.534   0.489  0.00  0.00    -0.230 NA
ATOM     23  C   UNL     1       3.973  -4.449   0.205  0.00  0.00    +0.118 A 
ENDBRANCH  16  21
ENDBRANCH   1  16
TORSDOF 5
