REMARK  Name = ZINC40333770
REMARK  4 active torsions:
REMARK  status: ('A' for Active; 'I' for Inactive)
REMARK    1  A    between atoms: C_4  and  S_8
REMARK    2  A    between atoms: C_5  and  N_7
REMARK    3  A    between atoms: S_8  and  N_11
REMARK    4  A    between atoms: C_15  and  C_17
REMARK                            x       y       z     vdW  Elec       q    Type
REMARK                         _______ _______ _______ _____ _____    ______ ____
ROOT
ATOM      1  S   UNL     1       3.818  -0.821   0.577  0.00  0.00    +0.063 S 
ATOM      2  O   UNL     1       3.886  -1.760  -0.488  0.00  0.00    -0.153 OA
ATOM      3  O   UNL     1       4.827   0.156   0.796  0.00  0.00    -0.153 OA
ENDROOT
BRANCH   1   7
ATOM      4  C   UNL     1      -0.079   1.434   0.067  0.00  0.00    +0.002 A 
ATOM      5  C   UNL     1       1.096   2.123   0.306  0.00  0.00    +0.002 A 
ATOM      6  C   UNL     1       2.285   1.434   0.462  0.00  0.00    +0.030 A 
ATOM      7  C   UNL     1       2.303   0.056   0.379  0.00  0.00    +0.126 A 
ATOM      8  C   UNL     1       1.124  -0.639   0.139  0.00  0.00    +0.051 A 
ATOM      9  C   UNL     1      -0.069   0.056  -0.017  0.00  0.00    +0.025 A 
BRANCH   8  10
ATOM     10  N   UNL     1       1.138  -2.033   0.055  0.00  0.00    -0.356 N 
ATOM     11  H   UNL     1       1.983  -2.511   0.052  0.00  0.00    +0.142 HD
ATOM     12  H   UNL     1       0.303  -2.524  -0.001  0.00  0.00    +0.142 HD
ENDBRANCH   8  10
ENDBRANCH   1   7
BRANCH   1  13
ATOM     13  N   UNL     1       3.697  -1.699   1.976  0.00  0.00    -0.168 NA
ATOM     14  C   UNL     1       3.953  -1.189   3.335  0.00  0.00    +0.110 C 
ATOM     15  C   UNL     1       3.140  -2.121   4.268  0.00  0.00    +0.019 C 
ATOM     16  C   UNL     1       3.312  -3.493   3.564  0.00  0.00    +0.028 C 
ATOM     17  C   UNL     1       3.311  -3.115   2.068  0.00  0.00    +0.126 C 
BRANCH  17  18
ATOM     18  C   UNL     1       4.307  -3.967   1.325  0.00  0.00    +0.035 A 
ATOM     19  C   UNL     1       5.635  -3.743   1.245  0.00  0.00    +0.024 A 
ATOM     20  C   UNL     1       6.189  -4.774   0.461  0.00  0.00    +0.019 A 
ATOM     21  C   UNL     1       5.180  -5.588   0.091  0.00  0.00    +0.083 A 
ATOM     22  N   UNL     1       4.023  -5.101   0.624  0.00  0.00    -0.363 N 
ATOM     23  H   UNL     1       3.143  -5.496   0.520  0.00  0.00    +0.165 HD
ENDBRANCH  17  18
ENDBRANCH   1  13
TORSDOF 4
