REMARK  Name = ZINC13139390
REMARK  8 active torsions:
REMARK  status: ('A' for Active; 'I' for Inactive)
REMARK    1  A    between atoms: C_1  and  C_2
REMARK    2  A    between atoms: C_2  and  O_3
REMARK    3  A    between atoms: O_3  and  C_4
REMARK    4  A    between atoms: C_4  and  C_6
REMARK    5  A    between atoms: C_7  and  C_23
REMARK    6  A    between atoms: N_8  and  C_22
REMARK    7  A    between atoms: N_10  and  C_11
REMARK    8  A    between atoms: C_11  and  C_13
REMARK                            x       y       z     vdW  Elec       q    Type
REMARK                         _______ _______ _______ _____ _____    ______ ____
ROOT
ATOM      1  C   UNL     1       1.497  -2.371   2.468  0.00  0.00    +0.118 A 
ATOM      2  C   UNL     1       1.717  -3.674   2.793  0.00  0.00    +0.038 A 
ATOM      3  N   UNL     1       2.392  -3.913   3.932  0.00  0.00    -0.328 N 
ATOM      4  C   UNL     1       2.814  -2.859   4.689  0.00  0.00    +0.166 A 
ATOM      5  N   UNL     1       3.489  -2.885   5.835  0.00  0.00    -0.152 NA
ATOM      6  S   UNL     1       2.283  -1.519   3.823  0.00  0.00    -0.045 S 
ATOM      7  C   UNL     1       2.670  -5.288   4.353  0.00  0.00    +0.151 C 
ATOM      8  C   UNL     1       1.227  -4.798   1.917  0.00  0.00    +0.065 C 
ENDROOT
BRANCH   1   9
ATOM      9  C   UNL     1       0.801  -1.814   1.305  0.00  0.00    +0.348 C 
ATOM     10  O   UNL     1       0.321  -2.557   0.470  0.00  0.00    -0.244 OA
BRANCH   9  11
ATOM     11  O   UNL     1       0.693  -0.477   1.160  0.00  0.00    -0.461 OA
BRANCH  11  13
ATOM     12  C   UNL     1      -0.019   1.526   0.010  0.00  0.00    +0.048 C 
ATOM     13  C   UNL     1       0.002  -0.004   0.002  0.00  0.00    +0.229 C 
ENDBRANCH  11  13
ENDBRANCH   9  11
ENDBRANCH   1   9
BRANCH   5  14
ATOM     14  C   UNL     1       3.820  -1.741   6.442  0.00  0.00    +0.275 C 
ATOM     15  O   UNL     1       3.503  -0.674   5.946  0.00  0.00    -0.268 OA
BRANCH  14  16
ATOM     16  C   UNL     1       4.570  -1.771   7.716  0.00  0.00    +0.109 A 
ATOM     17  C   UNL     1       5.968  -1.755   7.709  0.00  0.00    +0.138 A 
ATOM     18  C   UNL     1       6.662  -1.782   8.905  0.00  0.00    +0.039 A 
ATOM     19  C   UNL     1       5.977  -1.825  10.105  0.00  0.00    +0.006 A 
ATOM     20  C   UNL     1       4.594  -1.841  10.121  0.00  0.00    +0.039 A 
ATOM     21  C   UNL     1       3.885  -1.808   8.934  0.00  0.00    +0.138 A 
ATOM     22  F   UNL     1       2.534  -1.818   8.952  0.00  0.00    -0.205 F 
ATOM     23  F   UNL     1       6.639  -1.714   6.537  0.00  0.00    -0.205 F 
ENDBRANCH  14  16
ENDBRANCH   5  14
TORSDOF 5
