REMARK  Name = ZINC04946030
REMARK  11 active torsions:
REMARK  status: ('A' for Active; 'I' for Inactive)
REMARK    1  A    between atoms: C_1  and  C_2
REMARK    2  A    between atoms: C_2  and  O_3
REMARK    3  A    between atoms: O_3  and  P_4
REMARK    4  A    between atoms: P_4  and  N_6
REMARK    5  A    between atoms: P_4  and  O_25
REMARK    6  A    between atoms: N_6  and  C_7
REMARK    7  A    between atoms: N_14  and  N_15
REMARK    8  A    between atoms: N_15  and  C_16
REMARK    9  A    between atoms: C_16  and  N_18
REMARK   10  A    between atoms: O_25  and  C_26
REMARK   11  A    between atoms: C_26  and  C_27
REMARK                            x       y       z     vdW  Elec       q    Type
REMARK                         _______ _______ _______ _____ _____    ______ ____
ROOT
ATOM      1  C   UNL     1      -3.501   6.611  -0.035  0.00  0.00    +0.037 A 
ATOM      2  C   UNL     1      -3.070   7.930  -0.147  0.00  0.00    +0.024 A 
ATOM      3  C   UNL     1      -1.725   8.222  -0.218  0.00  0.00    +0.011 A 
ATOM      4  C   UNL     1      -0.783   7.193  -0.190  0.00  0.00    -0.008 A 
ATOM      5  C   UNL     1      -1.217   5.860  -0.080  0.00  0.00    +0.012 A 
ATOM      6  C   UNL     1      -2.577   5.576  -0.001  0.00  0.00    +0.034 A 
ATOM      7  C   UNL     1      -0.018   4.993  -0.070  0.00  0.00    +0.097 C 
ATOM      8  N   UNL     1      -0.002   3.688   0.022  0.00  0.00    -0.180 NA
ATOM      9  C   UNL     1       1.159   5.881  -0.189  0.00  0.00    +0.010 A 
ATOM     10  C   UNL     1       0.693   7.205  -0.261  0.00  0.00    -0.008 A 
ATOM     11  C   UNL     1       1.611   8.248  -0.378  0.00  0.00    +0.009 A 
ATOM     12  C   UNL     1       2.963   7.976  -0.423  0.00  0.00    +0.001 A 
ATOM     13  C   UNL     1       3.420   6.670  -0.352  0.00  0.00    +0.001 A 
ATOM     14  C   UNL     1       2.527   5.624  -0.235  0.00  0.00    +0.011 A 
ENDROOT
BRANCH   1  15
ATOM     15  N   UNL     1      -4.866   6.329   0.043  0.00  0.00    -0.252 N 
ATOM     16  H   UNL     1      -5.168   5.410   0.121  0.00  0.00    +0.158 HD
BRANCH  15  17
ATOM     17  P   UNL     1      -5.960   7.550   0.003  0.00  0.00    +0.427 P 
ATOM     18  O   UNL     1      -7.327   6.992   0.101  0.00  0.00    -0.236 OA
BRANCH  17  19
ATOM     19  O   UNL     1      -5.697   8.547   1.240  0.00  0.00    -0.294 OA
BRANCH  19  21
ATOM     20  C   UNL     1      -5.599   9.359   3.514  0.00  0.00    +0.035 C 
ATOM     21  C   UNL     1      -5.957   8.187   2.598  0.00  0.00    +0.168 C 
ENDBRANCH  19  21
ENDBRANCH  17  19
BRANCH  17  22
ATOM     22  O   UNL     1      -5.809   8.360  -1.380  0.00  0.00    -0.294 OA
BRANCH  22  23
ATOM     23  C   UNL     1      -6.277   7.856  -2.633  0.00  0.00    +0.168 C 
ATOM     24  C   UNL     1      -5.976   8.871  -3.736  0.00  0.00    +0.035 C 
ENDBRANCH  22  23
ENDBRANCH  17  22
ENDBRANCH  15  17
ENDBRANCH   1  15
BRANCH   8  25
ATOM     25  N   UNL     1      -1.187   2.990   0.288  0.00  0.00    -0.218 N 
ATOM     26  H   UNL     1      -2.001   3.477   0.492  0.00  0.00    +0.176 HD
BRANCH  25  27
ATOM     27  C   UNL     1      -1.196   1.643   0.259  0.00  0.00    +0.147 C 
ATOM     28  S   UNL     1      -2.645   0.790   0.584  0.00  0.00    -0.017 S 
BRANCH  27  29
ATOM     29  N   UNL     1      -0.065   0.967  -0.025  0.00  0.00    -0.339 N 
ATOM     30  H   UNL     1      -0.072  -0.003  -0.045  0.00  0.00    +0.144 HD
ATOM     31  H   UNL     1       0.754   1.450  -0.213  0.00  0.00    +0.144 HD
ENDBRANCH  27  29
ENDBRANCH  25  27
ENDBRANCH   8  25
TORSDOF 9
