REMARK  Name = ZINC21326447
REMARK  10 active torsions:
REMARK  status: ('A' for Active; 'I' for Inactive)
REMARK    1  A    between atoms: C_1  and  C_2
REMARK    2  A    between atoms: C_2  and  O_3
REMARK    3  A    between atoms: O_3  and  C_4
REMARK    4  A    between atoms: C_6  and  C_11
REMARK    5  A    between atoms: C_9  and  O_10
REMARK    6  A    between atoms: N_12  and  N_13
REMARK    7  A    between atoms: C_17  and  S_20
REMARK    8  A    between atoms: N_18  and  N_19
REMARK    9  A    between atoms: S_20  and  C_21
REMARK   10  A    between atoms: C_21  and  C_22
REMARK                            x       y       z     vdW  Elec       q    Type
REMARK                         _______ _______ _______ _____ _____    ______ ____
ROOT
ATOM      1  N   UNL     1      -0.631  -7.119   1.252  0.00  0.00    -0.204 N 
ATOM      2  C   UNL     1      -0.520  -8.492   1.081  0.00  0.00    +0.254 A 
ATOM      3  N   UNL     1       0.052  -9.099   0.070  0.00  0.00    -0.109 NA
ATOM      4  N   UNL     1      -0.048 -10.480   0.281  0.00  0.00    -0.119 NA
ATOM      5  C   UNL     1      -0.685 -10.672   1.412  0.00  0.00    +0.210 A 
ATOM      6  N   UNL     1      -0.993  -9.449   1.936  0.00  0.00    -0.211 N 
ATOM      7  H   UNL     1      -1.137  -6.715   2.141  0.00  0.00    +0.177 HD
ENDROOT
BRANCH   6   8
ATOM      8  N   UNL     1      -1.657  -9.222   3.107  0.00  0.00    -0.294 N 
ATOM      9  H   UNL     1      -1.996 -10.069   3.721  0.00  0.00    +0.163 HD
ATOM     10  H   UNL     1      -1.854  -8.191   3.437  0.00  0.00    +0.163 HD
ENDBRANCH   6   8
BRANCH   1  12
ATOM     11  C   UNL     1      -0.201  -4.964   0.453  0.00  0.00    +0.138 C 
ATOM     12  N   UNL     1      -0.098  -6.249   0.293  0.00  0.00    -0.188 NA
BRANCH  11  15
ATOM     13  C   UNL     1       0.777  -1.811  -1.336  0.00  0.00    +0.162 A 
ATOM     14  C   UNL     1       0.249  -2.666  -0.386  0.00  0.00    +0.059 A 
ATOM     15  C   UNL     1       0.360  -4.048  -0.556  0.00  0.00    -0.002 A 
ATOM     16  C   UNL     1       1.003  -4.560  -1.686  0.00  0.00    +0.013 A 
ATOM     17  C   UNL     1       1.527  -3.701  -2.630  0.00  0.00    +0.050 A 
ATOM     18  C   UNL     1       1.412  -2.329  -2.463  0.00  0.00    +0.158 A 
BRANCH  18  19
ATOM     19  O   UNL     1       1.925  -1.486  -3.399  0.00  0.00    -0.503 OA
ATOM     20  H   UNL     1       2.427  -1.893  -4.289  0.00  0.00    +0.292 HD
ENDBRANCH  18  19
BRANCH  13  21
ATOM     21  O   UNL     1       0.671  -0.465  -1.174  0.00  0.00    -0.489 OA
BRANCH  21  23
ATOM     22  C   UNL     1      -0.019   1.526   0.010  0.00  0.00    +0.048 C 
ATOM     23  C   UNL     1       0.002  -0.004   0.002  0.00  0.00    +0.226 C 
ENDBRANCH  21  23
ENDBRANCH  13  21
ENDBRANCH  11  15
ENDBRANCH   1  12
BRANCH   5  24
ATOM     24  S   UNL     1      -1.074 -12.234   2.129  0.00  0.00    -0.080 S 
BRANCH  24  25
ATOM     25  C   UNL     1      -0.398 -13.438   0.952  0.00  0.00    +0.112 C 
BRANCH  25  26
ATOM     26  C   UNL     1      -0.666 -14.834   1.452  0.00  0.00    -0.036 A 
ATOM     27  C   UNL     1      -1.832 -15.485   1.093  0.00  0.00    +0.004 A 
ATOM     28  C   UNL     1      -2.078 -16.765   1.550  0.00  0.00    +0.001 A 
ATOM     29  C   UNL     1      -1.158 -17.396   2.368  0.00  0.00    +0.015 A 
ATOM     30  C   UNL     1       0.008 -16.745   2.728  0.00  0.00    +0.018 A 
ATOM     31  C   UNL     1       0.256 -15.465   2.265  0.00  0.00    +0.019 A 
ATOM     32 BR   UNL     1       1.266 -17.608   3.846  0.00  0.00    -0.050 Br
ENDBRANCH  25  26
ENDBRANCH  24  25
ENDBRANCH   5  24
TORSDOF 9
