REMARK  Name = ZINC21317690
REMARK  10 active torsions:
REMARK  status: ('A' for Active; 'I' for Inactive)
REMARK    1  A    between atoms: C_1  and  C_2
REMARK    2  A    between atoms: C_5  and  C_30
REMARK    3  A    between atoms: C_6  and  N_8
REMARK    4  A    between atoms: C_9  and  C_11
REMARK    5  A    between atoms: C_11  and  S_12
REMARK    6  A    between atoms: S_12  and  C_13
REMARK    7  A    between atoms: N_17  and  N_18
REMARK    8  A    between atoms: N_19  and  N_20
REMARK    9  A    between atoms: C_21  and  C_22
REMARK   10  A    between atoms: C_23  and  C_24
REMARK                            x       y       z     vdW  Elec       q    Type
REMARK                         _______ _______ _______ _____ _____    ______ ____
ROOT
ATOM      1  C   UNL     1       0.646  -2.090  -0.045  0.00  0.00    +0.210 A 
ATOM      2  N   UNL     1      -0.664  -2.024  -0.039  0.00  0.00    -0.119 NA
ATOM      3  N   UNL     1      -1.043  -0.797  -0.034  0.00  0.00    -0.109 NA
ATOM      4  C   UNL     1       0.000  -0.004  -0.046  0.00  0.00    +0.254 A 
ATOM      5  N   UNL     1       1.115  -0.803  -0.050  0.00  0.00    -0.211 N 
ATOM      6  N   UNL     1      -0.019   1.383  -0.047  0.00  0.00    -0.204 N 
ATOM      7  H   UNL     1       0.926   1.946  -0.048  0.00  0.00    +0.177 HD
ENDROOT
BRANCH   5   8
ATOM      8  N   UNL     1       2.420  -0.400  -0.058  0.00  0.00    -0.294 N 
ATOM      9  H   UNL     1       2.664   0.672  -0.061  0.00  0.00    +0.163 HD
ATOM     10  H   UNL     1       3.227  -1.148  -0.061  0.00  0.00    +0.163 HD
ENDBRANCH   5   8
BRANCH   6  11
ATOM     11  N   UNL     1      -1.242   2.066  -0.048  0.00  0.00    -0.188 NA
ATOM     12  C   UNL     1      -1.260   3.370  -0.049  0.00  0.00    +0.130 C 
BRANCH  12  13
ATOM     13  C   UNL     1      -2.497   4.061  -0.050  0.00  0.00    +0.022 C 
ATOM     14  C   UNL     1      -2.515   5.410  -0.051  0.00  0.00    +0.009 C 
BRANCH  14  15
ATOM     15  C   UNL     1      -3.800   6.128  -0.052  0.00  0.00    -0.025 A 
ATOM     16  C   UNL     1      -5.003   5.416  -0.058  0.00  0.00    +0.008 A 
ATOM     17  C   UNL     1      -6.203   6.096  -0.053  0.00  0.00    +0.001 A 
ATOM     18  C   UNL     1      -6.218   7.480  -0.055  0.00  0.00    +0.000 A 
ATOM     19  C   UNL     1      -5.031   8.192  -0.055  0.00  0.00    +0.001 A 
ATOM     20  C   UNL     1      -3.824   7.527  -0.054  0.00  0.00    +0.008 A 
ENDBRANCH  14  15
ENDBRANCH  12  13
ENDBRANCH   6  11
BRANCH   1  21
ATOM     21  S   UNL     1       1.619  -3.559  -0.048  0.00  0.00    -0.075 S 
BRANCH  21  22
ATOM     22  C   UNL     1       0.307  -4.806  -0.039  0.00  0.00    +0.173 C 
BRANCH  22  24
ATOM     23  N   UNL     1       0.131  -7.273  -0.034  0.00  0.00    -0.285 N 
ATOM     24  C   UNL     1       0.922  -6.182  -0.040  0.00  0.00    +0.227 C 
ATOM     25  O   UNL     1       2.128  -6.307  -0.045  0.00  0.00    -0.275 OA
ATOM     26  H   UNL     1      -0.959  -7.162   0.062  0.00  0.00    +0.155 HD
BRANCH  23  32
ATOM     27  C   UNL     1       3.829 -10.140  -1.546  0.00  0.00    +0.044 C 
ATOM     28  C   UNL     1       2.488  -9.966  -0.879  0.00  0.00    -0.049 A 
ATOM     29  C   UNL     1       1.815 -11.068  -0.383  0.00  0.00    +0.004 A 
ATOM     30  C   UNL     1       0.585 -10.913   0.229  0.00  0.00    +0.005 A 
ATOM     31  C   UNL     1       0.024  -9.656   0.346  0.00  0.00    -0.029 A 
ATOM     32  C   UNL     1       0.697  -8.548  -0.151  0.00  0.00    +0.037 A 
ATOM     33  C   UNL     1       1.930  -8.707  -0.770  0.00  0.00    +0.027 A 
ATOM     34  C   UNL     1      -1.317  -9.488   1.013  0.00  0.00    +0.045 C 
ENDBRANCH  23  32
ENDBRANCH  22  24
ENDBRANCH  21  22
ENDBRANCH   1  21
TORSDOF 8
