REMARK  Name = ZINC14019501
REMARK  8 active torsions:
REMARK  status: ('A' for Active; 'I' for Inactive)
REMARK    1  A    between atoms: C_1  and  C_2
REMARK    2  A    between atoms: C_5  and  C_26
REMARK    3  A    between atoms: C_6  and  N_8
REMARK    4  A    between atoms: C_9  and  C_11
REMARK    5  A    between atoms: C_11  and  N_22
REMARK    6  A    between atoms: C_12  and  C_13
REMARK    7  A    between atoms: C_17  and  N_19
REMARK    8  A    between atoms: C_23  and  C_25
REMARK                            x       y       z     vdW  Elec       q    Type
REMARK                         _______ _______ _______ _____ _____    ______ ____
ROOT
ATOM      1  C   UNL     1      -1.176   5.753  -0.058  0.00  0.00    +0.097 C 
ATOM      2  C   UNL     1      -0.004   5.122   0.182  0.00  0.00    +0.036 C 
ENDROOT
BRANCH   2   3
ATOM      3  C   UNL     1       0.015   3.671   0.426  0.00  0.00    -0.021 A 
ATOM      4  C   UNL     1      -1.082   3.046   1.030  0.00  0.00    +0.008 A 
ATOM      5  C   UNL     1      -1.059   1.685   1.249  0.00  0.00    +0.003 A 
ATOM      6  C   UNL     1       0.048   0.940   0.884  0.00  0.00    +0.033 A 
ATOM      7  C   UNL     1       1.137   1.551   0.287  0.00  0.00    +0.127 A 
ATOM      8  C   UNL     1       1.128   2.910   0.055  0.00  0.00    +0.040 A 
BRANCH   7   9
ATOM      9  N   UNL     1       2.314   0.743  -0.105  0.00  0.00    +0.056 N 
ATOM     10  O   UNL     1       2.323  -0.458   0.099  0.00  0.00    -0.126 OA
ATOM     11  O   UNL     1       3.272   1.279  -0.631  0.00  0.00    -0.126 OA
ENDBRANCH   7   9
ENDBRANCH   2   3
BRANCH   1  12
ATOM     12  N   UNL     1      -2.376   5.035  -0.026  0.00  0.00    -0.282 N 
ATOM     13  C   UNL     1      -3.346   5.383   0.843  0.00  0.00    +0.214 C 
ATOM     14  O   UNL     1      -3.147   6.264   1.653  0.00  0.00    -0.276 OA
ATOM     15  C   UNL     1      -4.677   4.678   0.808  0.00  0.00    +0.109 C 
ATOM     16  H   UNL     1      -2.510   4.287  -0.628  0.00  0.00    +0.155 HD
ENDBRANCH   1  12
BRANCH   1  18
ATOM     17  N   UNL     1      -2.357   7.821  -0.593  0.00  0.00    -0.280 N 
ATOM     18  C   UNL     1      -1.189   7.193  -0.354  0.00  0.00    +0.262 C 
ATOM     19  O   UNL     1      -0.145   7.817  -0.382  0.00  0.00    -0.268 OA
ATOM     20  H   UNL     1      -3.194   7.339  -0.505  0.00  0.00    +0.155 HD
BRANCH  17  26
ATOM     21  C   UNL     1      -0.197  12.237  -0.539  0.00  0.00    +0.044 C 
ATOM     22  C   UNL     1      -1.327  11.331  -0.956  0.00  0.00    -0.049 A 
ATOM     23  C   UNL     1      -2.372  11.833  -1.712  0.00  0.00    +0.004 A 
ATOM     24  C   UNL     1      -3.411  11.006  -2.096  0.00  0.00    +0.005 A 
ATOM     25  C   UNL     1      -3.409   9.675  -1.727  0.00  0.00    -0.029 A 
ATOM     26  C   UNL     1      -2.362   9.168  -0.968  0.00  0.00    +0.037 A 
ATOM     27  C   UNL     1      -1.322  10.003  -0.579  0.00  0.00    +0.027 A 
ATOM     28  C   UNL     1      -4.542   8.774  -2.147  0.00  0.00    +0.045 C 
ENDBRANCH  17  26
ENDBRANCH   1  18
TORSDOF 5
