REMARK  Name = ZINC12572936
REMARK  8 active torsions:
REMARK  status: ('A' for Active; 'I' for Inactive)
REMARK    1  A    between atoms: C_5  and  N_7
REMARK    2  A    between atoms: N_7  and  S_8
REMARK    3  A    between atoms: S_8  and  C_11
REMARK    4  A    between atoms: C_14  and  N_34
REMARK    5  A    between atoms: C_15  and  N_17
REMARK    6  A    between atoms: C_18  and  C_20
REMARK    7  A    between atoms: C_23  and  N_29
REMARK    8  A    between atoms: C_24  and  N_26
REMARK                            x       y       z     vdW  Elec       q    Type
REMARK                         _______ _______ _______ _____ _____    ______ ____
ROOT
ATOM      1  C   UNL     1       2.349   1.792  -0.570  0.00  0.00    +0.110 A 
ATOM      2  C   UNL     1       1.363   2.702  -0.235  0.00  0.00    +0.031 A 
ATOM      3  C   UNL     1       0.247   2.290   0.469  0.00  0.00    +0.026 A 
ATOM      4  C   UNL     1       0.114   0.961   0.843  0.00  0.00    +0.046 A 
ATOM      5  C   UNL     1       1.108   0.043   0.505  0.00  0.00    +0.056 A 
ATOM      6  C   UNL     1       2.224   0.465  -0.202  0.00  0.00    +0.054 A 
ENDROOT
BRANCH   5   7
ATOM      7  N   UNL     1       0.980  -1.300   0.880  0.00  0.00    -0.280 N 
ATOM      8  C   UNL     1       2.081  -2.059   1.054  0.00  0.00    +0.248 C 
ATOM      9  O   UNL     1       3.180  -1.600   0.810  0.00  0.00    -0.270 OA
ATOM     10  H   UNL     1       0.100  -1.685   1.013  0.00  0.00    +0.155 HD
BRANCH   8  11
ATOM     11  C   UNL     1       1.951  -3.446   1.540  0.00  0.00    +0.039 A 
ATOM     12  C   UNL     1       0.688  -3.973   1.825  0.00  0.00    +0.015 A 
ATOM     13  C   UNL     1       0.570  -5.268   2.273  0.00  0.00    +0.026 A 
ATOM     14  C   UNL     1       1.708  -6.051   2.453  0.00  0.00    +0.060 A 
ATOM     15  C   UNL     1       2.967  -5.527   2.175  0.00  0.00    +0.148 A 
ATOM     16  C   UNL     1       3.091  -4.234   1.721  0.00  0.00    +0.047 A 
BRANCH  14  17
ATOM     17  N   UNL     1       1.585  -7.358   2.910  0.00  0.00    -0.328 N 
ATOM     18  C   UNL     1       0.814  -7.408   4.178  0.00  0.00    +0.105 C 
ATOM     19  C   UNL     1       0.335  -8.880   4.244  0.00  0.00    +0.020 C 
ATOM     20  C   UNL     1       0.019  -9.208   2.767  0.00  0.00    +0.020 C 
ATOM     21  C   UNL     1       0.832  -8.189   1.946  0.00  0.00    +0.105 C 
ENDBRANCH  14  17
BRANCH  15  22
ATOM     22  N   UNL     1       4.174  -6.362   2.366  0.00  0.00    +0.058 N 
ATOM     23  O   UNL     1       5.281  -5.877   2.215  0.00  0.00    -0.126 OA
ATOM     24  O   UNL     1       4.060  -7.535   2.676  0.00  0.00    -0.126 OA
ENDBRANCH  15  22
ENDBRANCH   8  11
ENDBRANCH   5   7
BRANCH   1  25
ATOM     25  S   UNL     1       3.768   2.325  -1.467  0.00  0.00    +0.072 S 
ATOM     26  O   UNL     1       3.907   3.717  -1.218  0.00  0.00    -0.150 OA
ATOM     27  O   UNL     1       4.802   1.393  -1.183  0.00  0.00    -0.150 OA
BRANCH  25  28
ATOM     28  N   UNL     1       3.417   2.166  -3.078  0.00  0.00    -0.215 N 
ATOM     29  H   UNL     1       3.953   1.580  -3.635  0.00  0.00    +0.174 HD
BRANCH  28  34
ATOM     30  C   UNL     1       1.001   4.856  -3.736  0.00  0.00    +0.002 A 
ATOM     31  C   UNL     1       0.235   4.282  -4.734  0.00  0.00    +0.002 A 
ATOM     32  C   UNL     1       0.523   3.006  -5.184  0.00  0.00    +0.022 A 
ATOM     33  C   UNL     1       1.578   2.301  -4.637  0.00  0.00    +0.063 A 
ATOM     34  C   UNL     1       2.350   2.876  -3.634  0.00  0.00    +0.066 A 
ATOM     35  C   UNL     1       2.054   4.155  -3.181  0.00  0.00    +0.026 A 
ATOM     36 CL   UNL     1       1.939   0.700  -5.201  0.00  0.00    -0.082 Cl
ENDBRANCH  28  34
ENDBRANCH  25  28
ENDBRANCH   1  25
BRANCH   4  37
ATOM     37  N   UNL     1      -1.015   0.542   1.556  0.00  0.00    -0.357 N 
ATOM     38  H   UNL     1      -1.705   1.182   1.790  0.00  0.00    +0.142 HD
ATOM     39  H   UNL     1      -1.106  -0.387   1.816  0.00  0.00    +0.142 HD
ENDBRANCH   4  37
TORSDOF 8
