REMARK  Name = ZINC14481118
REMARK  8 active torsions:
REMARK  status: ('A' for Active; 'I' for Inactive)
REMARK    1  A    between atoms: C_1  and  C_2
REMARK    2  A    between atoms: C_2  and  C_3
REMARK    3  A    between atoms: C_3  and  C_5
REMARK    4  A    between atoms: C_3  and  N_12
REMARK    5  A    between atoms: C_13  and  C_15
REMARK    6  A    between atoms: C_15  and  C_16
REMARK    7  A    between atoms: C_16  and  C_18
REMARK    8  A    between atoms: C_16  and  N_23
REMARK                            x       y       z     vdW  Elec       q    Type
REMARK                         _______ _______ _______ _____ _____    ______ ____
ROOT
ATOM      1  N   UNL     1       3.687  -3.948  -2.651  0.00  0.00    -0.308 N 
ATOM      2  C   UNL     1       3.499  -3.286  -1.492  0.00  0.00    +0.216 C 
ATOM      3  O   UNL     1       4.047  -3.667  -0.480  0.00  0.00    -0.276 OA
ATOM      4  H   UNL     1       3.248  -3.643  -3.460  0.00  0.00    +0.149 HD
ENDROOT
BRANCH   1   5
ATOM      5  C   UNL     1       4.555  -5.128  -2.688  0.00  0.00    +0.103 C 
BRANCH   5   6
ATOM      6  C   UNL     1       5.092  -5.313  -4.083  0.00  0.00    -0.027 A 
ATOM      7  C   UNL     1       4.269  -5.101  -5.174  0.00  0.00    +0.006 A 
ATOM      8  C   UNL     1       4.762  -5.266  -6.455  0.00  0.00    +0.015 A 
ATOM      9  C   UNL     1       6.076  -5.654  -6.645  0.00  0.00    +0.018 A 
ATOM     10  C   UNL     1       6.897  -5.872  -5.553  0.00  0.00    +0.015 A 
ATOM     11  C   UNL     1       6.405  -5.701  -4.273  0.00  0.00    +0.006 A 
ATOM     12 BR   UNL     1       6.749  -5.888  -8.396  0.00  0.00    -0.050 Br
ENDBRANCH   5   6
BRANCH   5  14
ATOM     13  C   UNL     1       3.311  -6.231  -0.822  0.00  0.00    +0.006 C 
ATOM     14  C   UNL     1       3.751  -6.364  -2.282  0.00  0.00    +0.024 C 
ENDBRANCH   5  14
ENDBRANCH   1   5
BRANCH   2  15
ATOM     15  C   UNL     1       2.606  -2.072  -1.454  0.00  0.00    +0.123 C 
BRANCH  15  16
ATOM     16  C   UNL     1       2.565  -1.514  -0.030  0.00  0.00    +0.120 C 
BRANCH  16  17
ATOM     17  N   UNL     1       1.929  -2.490   0.859  0.00  0.00    -0.292 N 
ATOM     18  C   UNL     1       2.209  -2.483   2.177  0.00  0.00    +0.298 C 
ATOM     19  O   UNL     1       2.988  -1.667   2.629  0.00  0.00    -0.253 OA
ATOM     20  N   UNL     1       1.624  -3.381   2.994  0.00  0.00    -0.313 N 
ATOM     21  H   UNL     1       1.307  -3.141   0.498  0.00  0.00    +0.151 HD
ATOM     22  H   UNL     1       1.002  -4.032   2.634  0.00  0.00    +0.146 HD
ATOM     23  H   UNL     1       1.825  -3.376   3.943  0.00  0.00    +0.146 HD
ENDBRANCH  16  17
BRANCH  16  24
ATOM     24  C   UNL     1       1.773  -0.232  -0.016  0.00  0.00    +0.010 A 
ATOM     25  C   UNL     1       2.220   1.048  -0.013  0.00  0.00    +0.013 A 
ATOM     26  C   UNL     1       1.300   2.079   0.001  0.00  0.00    +0.008 A 
ATOM     27  C   UNL     1      -0.022   1.781   0.012  0.00  0.00    +0.045 A 
ATOM     28  S   UNL     1       0.002  -0.004   0.002  0.00  0.00    -0.100 S 
ENDBRANCH  16  24
ENDBRANCH  15  16
ENDBRANCH   2  15
TORSDOF 7
