REMARK  Name = ZINC40824359
REMARK  9 active torsions:
REMARK  status: ('A' for Active; 'I' for Inactive)
REMARK    1  A    between atoms: C_1  and  C_2
REMARK    2  A    between atoms: C_2  and  C_3
REMARK    3  A    between atoms: C_3  and  C_4
REMARK    4  A    between atoms: C_4  and  O_5
REMARK    5  A    between atoms: O_5  and  C_6
REMARK    6  A    between atoms: C_9  and  N_12
REMARK    7  A    between atoms: C_13  and  C_15
REMARK    8  A    between atoms: C_16  and  C_29
REMARK    9  A    between atoms: N_24  and  N_25
REMARK                            x       y       z     vdW  Elec       q    Type
REMARK                         _______ _______ _______ _____ _____    ______ ____
ROOT
ATOM      1  C   UNL     1       2.387  -9.912  -4.456  0.00  0.00    +0.193 A 
ATOM      2  C   UNL     1       2.901 -10.546  -5.553  0.00  0.00    +0.009 A 
ATOM      3  C   UNL     1       2.702 -11.916  -5.343  0.00  0.00    +0.042 A 
ATOM      4  C   UNL     1       2.074 -12.060  -4.128  0.00  0.00    +0.115 A 
ATOM      5  O   UNL     1       1.900 -10.847  -3.608  0.00  0.00    -0.454 OA
ATOM      6  C   UNL     1       1.687 -13.402  -3.558  0.00  0.00    +0.075 C 
ATOM      7  C   UNL     1       1.615 -14.432  -4.688  0.00  0.00    +0.014 C 
ATOM      8  C   UNL     1       2.915 -14.436  -5.500  0.00  0.00    +0.058 C 
ATOM      9  C   UNL     1       3.053 -13.083  -6.183  0.00  0.00    +0.070 C 
ATOM     10  N   UNL     1       3.450 -12.961  -7.412  0.00  0.00    -0.183 NA
ATOM     11  C   UNL     1       3.551  -9.900  -6.749  0.00  0.00    +0.048 C 
ENDROOT
BRANCH  10  12
ATOM     12  N   UNL     1       3.770 -14.101  -8.161  0.00  0.00    -0.191 N 
ATOM     13  C   UNL     1       4.183 -13.974  -9.438  0.00  0.00    +0.317 C 
ATOM     14  O   UNL     1       4.460 -14.963 -10.088  0.00  0.00    -0.251 OA
ATOM     15  N   UNL     1       4.288 -12.751  -9.994  0.00  0.00    -0.312 N 
ATOM     16  H   UNL     1       3.694 -14.981  -7.761  0.00  0.00    +0.179 HD
ATOM     17  H   UNL     1       4.067 -11.961  -9.475  0.00  0.00    +0.147 HD
ATOM     18  H   UNL     1       4.585 -12.659 -10.912  0.00  0.00    +0.147 HD
ENDBRANCH  10  12
BRANCH   1  20
ATOM     19  N   UNL     1       1.839  -7.960  -3.102  0.00  0.00    -0.279 N 
ATOM     20  C   UNL     1       2.372  -8.463  -4.233  0.00  0.00    +0.284 C 
ATOM     21  O   UNL     1       2.842  -7.713  -5.069  0.00  0.00    -0.266 OA
ATOM     22  H   UNL     1       1.534  -8.559  -2.402  0.00  0.00    +0.155 HD
BRANCH  19  26
ATOM     23  C   UNL     1       1.498  -3.834  -2.611  0.00  0.00    +0.121 A 
ATOM     24  C   UNL     1       1.743  -4.645  -1.513  0.00  0.00    +0.047 A 
ATOM     25  C   UNL     1       1.856  -6.012  -1.674  0.00  0.00    +0.027 A 
ATOM     26  C   UNL     1       1.724  -6.575  -2.937  0.00  0.00    +0.034 A 
ATOM     27  C   UNL     1       1.479  -5.762  -4.036  0.00  0.00    +0.027 A 
ATOM     28  C   UNL     1       1.361  -4.396  -3.872  0.00  0.00    +0.047 A 
BRANCH  23  29
ATOM     29  O   UNL     1       1.387  -2.489  -2.451  0.00  0.00    -0.492 OA
BRANCH  29  30
ATOM     30  C   UNL     1       1.540  -1.978  -1.125  0.00  0.00    +0.229 C 
BRANCH  30  31
ATOM     31  C   UNL     1       1.383  -0.456  -1.144  0.00  0.00    +0.041 C 
BRANCH  31  33
ATOM     32  C   UNL     1       1.391   1.612   0.257  0.00  0.00    +0.004 C 
ATOM     33  C   UNL     1       1.547   0.090   0.276  0.00  0.00    -0.000 C 
ENDBRANCH  31  33
ENDBRANCH  30  31
ENDBRANCH  29  30
ENDBRANCH  23  29
ENDBRANCH  19  26
ENDBRANCH   1  20
TORSDOF 7
