REMARK  Name = ZINC19811908
REMARK  4 active torsions:
REMARK  status: ('A' for Active; 'I' for Inactive)
REMARK    1  A    between atoms: C_1  and  N_2
REMARK    2  A    between atoms: N_8  and  C_9
REMARK    3  A    between atoms: C_9  and  C_11
REMARK    4  A    between atoms: C_13  and  N_18
REMARK                            x       y       z     vdW  Elec       q    Type
REMARK                         _______ _______ _______ _____ _____    ______ ____
ROOT
ATOM      1  C   UNL     1       0.002  -0.004  -0.043  0.00  0.00    +0.272 C 
ATOM      2  O   UNL     1      -1.042  -0.626  -0.034  0.00  0.00    -0.268 OA
ENDROOT
BRANCH   1  10
ATOM      3  C   UNL     1       3.715  -2.272  -0.045  0.00  0.00    +0.152 C 
ATOM      4  N   UNL     1       2.338  -2.772  -0.035  0.00  0.00    -0.318 N 
ATOM      5  C   UNL     1       1.905  -4.182  -0.039  0.00  0.00    +0.158 A 
ATOM      6  C   UNL     1       0.392  -4.079  -0.024  0.00  0.00    +0.267 A 
ATOM      7  O   UNL     1      -0.404  -4.997  -0.020  0.00  0.00    -0.266 OA
ATOM      8  N   UNL     1       0.114  -2.777  -0.015  0.00  0.00    -0.294 N 
ATOM      9  C   UNL     1       1.197  -2.031  -0.031  0.00  0.00    +0.203 A 
ATOM     10  N   UNL     1       1.178  -0.662  -0.042  0.00  0.00    -0.142 NA
ATOM     11  H   UNL     1      -0.879  -2.304   0.004  0.00  0.00    +0.172 HD
ENDBRANCH   1  10
BRANCH   1  12
ATOM     12  C   UNL     1      -0.019   1.473  -0.056  0.00  0.00    +0.059 A 
ATOM     13  C   UNL     1       1.179   2.190  -0.066  0.00  0.00    +0.037 A 
ATOM     14  C   UNL     1       1.152   3.575  -0.078  0.00  0.00    +0.025 A 
ATOM     15  C   UNL     1      -0.066   4.247  -0.079  0.00  0.00    +0.024 A 
ATOM     16  C   UNL     1      -1.252   3.539  -0.068  0.00  0.00    +0.022 A 
ATOM     17  C   UNL     1      -1.237   2.157  -0.062  0.00  0.00    +0.053 A 
ATOM     18 CL   UNL     1      -2.730   1.272  -0.057  0.00  0.00    -0.083 Cl
BRANCH  14  19
ATOM     19  N   UNL     1       2.349   4.297  -0.089  0.00  0.00    -0.358 N 
ATOM     20  H   UNL     1       2.327   5.397  -0.098  0.00  0.00    +0.142 HD
ATOM     21  H   UNL     1       3.312   3.766  -0.088  0.00  0.00    +0.142 HD
ENDBRANCH  14  19
ENDBRANCH   1  12
TORSDOF 3
