REMARK  Name = ZINC43654312
REMARK  6 active torsions:
REMARK  status: ('A' for Active; 'I' for Inactive)
REMARK    1  A    between atoms: C_1  and  C_2
REMARK    2  A    between atoms: N_4  and  C_5
REMARK    3  A    between atoms: C_9  and  N_11
REMARK    4  A    between atoms: N_14  and  C_15
REMARK    5  A    between atoms: C_15  and  C_17
REMARK    6  A    between atoms: C_15  and  C_22
REMARK                            x       y       z     vdW  Elec       q    Type
REMARK                         _______ _______ _______ _____ _____    ______ ____
ROOT
ATOM      1  N   UNL     1      -3.302  -5.052   0.059  0.00  0.00    -0.269 N 
ATOM      2  C   UNL     1      -3.245  -6.388   0.226  0.00  0.00    +0.304 C 
ATOM      3  O   UNL     1      -2.167  -6.945   0.314  0.00  0.00    -0.252 OA
ATOM      4  N   UNL     1      -4.383  -7.108   0.295  0.00  0.00    -0.292 N 
ATOM      5  H   UNL     1      -4.158  -4.617  -0.078  0.00  0.00    +0.156 HD
ATOM      6  H   UNL     1      -5.242  -6.664   0.225  0.00  0.00    +0.151 HD
ENDROOT
BRANCH   1  11
ATOM      7  C   UNL     1      -0.968  -2.267   0.650  0.00  0.00    +0.035 A 
ATOM      8  C   UNL     1       0.206  -2.797   0.128  0.00  0.00    +0.023 A 
ATOM      9  C   UNL     1       0.211  -4.068  -0.413  0.00  0.00    +0.004 A 
ATOM     10  C   UNL     1      -0.950  -4.817  -0.436  0.00  0.00    +0.023 A 
ATOM     11  C   UNL     1      -2.127  -4.293   0.084  0.00  0.00    +0.037 A 
ATOM     12  C   UNL     1      -2.134  -3.019   0.633  0.00  0.00    +0.046 A 
BRANCH   7  16
ATOM     13  C   UNL     1      -1.676   0.652   2.918  0.00  0.00    +0.109 C 
ATOM     14  C   UNL     1      -1.748  -0.704   2.264  0.00  0.00    +0.214 C 
ATOM     15  O   UNL     1      -2.505  -1.547   2.699  0.00  0.00    -0.276 OA
ATOM     16  N   UNL     1      -0.973  -0.980   1.198  0.00  0.00    -0.286 N 
ATOM     17  H   UNL     1      -0.418  -0.285   0.809  0.00  0.00    +0.155 HD
ENDBRANCH   7  16
ENDBRANCH   1  11
BRANCH   4  18
ATOM     18  C   UNL     1      -4.321  -8.560   0.477  0.00  0.00    +0.114 C 
BRANCH  18  19
ATOM     19  C   UNL     1      -4.151  -9.227  -0.864  0.00  0.00    +0.010 A 
ATOM     20  C   UNL     1      -3.383 -10.293  -1.196  0.00  0.00    +0.013 A 
ATOM     21  C   UNL     1      -3.384 -10.739  -2.505  0.00  0.00    +0.008 A 
ATOM     22  C   UNL     1      -4.153 -10.097  -3.417  0.00  0.00    +0.045 A 
ATOM     23  S   UNL     1      -4.916  -8.823  -2.426  0.00  0.00    -0.100 S 
ENDBRANCH  18  19
BRANCH  18  24
ATOM     24  C   UNL     1      -5.616  -9.049   1.129  0.00  0.00    +0.014 C 
ATOM     25  C   UNL     1      -6.828  -8.638   0.268  0.00  0.00    +0.006 C 
ATOM     26  C   UNL     1      -7.925  -8.281   1.302  0.00  0.00    +0.000 C 
ATOM     27  C   UNL     1      -7.121  -7.579   2.424  0.00  0.00    +0.000 C 
ATOM     28  C   UNL     1      -5.802  -8.375   2.500  0.00  0.00    +0.006 C 
ENDBRANCH  18  24
ENDBRANCH   4  18
TORSDOF 5
