REMARK  Name = ZINC14123635
REMARK  9 active torsions:
REMARK  status: ('A' for Active; 'I' for Inactive)
REMARK    1  A    between atoms: C_1  and  C_2
REMARK    2  A    between atoms: C_2  and  C_3
REMARK    3  A    between atoms: C_2  and  C_4
REMARK    4  A    between atoms: C_4  and  C_6
REMARK    5  A    between atoms: C_4  and  N_17
REMARK    6  A    between atoms: N_17  and  C_18
REMARK    7  A    between atoms: C_18  and  C_19
REMARK    8  A    between atoms: N_21  and  C_22
REMARK    9  A    between atoms: C_23  and  C_30
REMARK                            x       y       z     vdW  Elec       q    Type
REMARK                         _______ _______ _______ _____ _____    ______ ____
ROOT
ATOM      1  C   UNL     1      -2.918   1.073   0.744  0.00  0.00    +0.178 C 
ENDROOT
BRANCH   1   2
ATOM      2  C   UNL     1      -3.817   1.454   1.892  0.00  0.00    +0.231 C 
ATOM      3  O   UNL     1      -3.849   0.768   2.891  0.00  0.00    -0.274 OA
ATOM      4  N   UNL     1      -4.586   2.558   1.808  0.00  0.00    -0.278 N 
ATOM      5  H   UNL     1      -4.560   3.108   1.008  0.00  0.00    +0.155 HD
BRANCH   4   6
ATOM      6  C   UNL     1      -5.413   2.909   2.864  0.00  0.00    +0.084 A 
ATOM      7  C   UNL     1      -6.266   3.994   2.951  0.00  0.00    +0.068 A 
ATOM      8  C   UNL     1      -7.038   4.141   4.184  0.00  0.00    -0.023 A 
ATOM      9  C   UNL     1      -6.808   3.177   5.094  0.00  0.00    -0.004 A 
ATOM     10  S   UNL     1      -5.614   2.112   4.326  0.00  0.00    -0.077 S 
ATOM     11  C   UNL     1      -7.622   3.379   6.343  0.00  0.00    +0.043 C 
ATOM     12  C   UNL     1      -8.089   4.850   6.271  0.00  0.00    +0.010 C 
ATOM     13  C   UNL     1      -8.071   5.112   4.752  0.00  0.00    +0.037 C 
BRANCH   7  14
ATOM     14  C   UNL     1      -6.392   4.956   1.853  0.00  0.00    +0.244 C 
ATOM     15  O   UNL     1      -7.221   4.778   0.979  0.00  0.00    -0.270 OA
ATOM     16  N   UNL     1      -5.590   6.038   1.810  0.00  0.00    -0.325 N 
ATOM     17  H   UNL     1      -4.929   6.180   2.505  0.00  0.00    +0.145 HD
ATOM     18  H   UNL     1      -5.673   6.675   1.083  0.00  0.00    +0.145 HD
ENDBRANCH   7  14
ENDBRANCH   4   6
ENDBRANCH   1   2
BRANCH   1  19
ATOM     19  N   UNL     1      -2.192  -0.159   1.080  0.00  0.00    -0.301 NA
ATOM     20  H   UNL     1      -2.829  -0.890   1.360  0.00  0.00    +0.123 HD
BRANCH  19  21
ATOM     21  C   UNL     1      -1.350  -0.596  -0.042  0.00  0.00    +0.087 C 
BRANCH  21  22
ATOM     22  C   UNL     1      -1.073  -2.072   0.083  0.00  0.00    -0.027 A 
ATOM     23  C   UNL     1      -0.819  -2.623   1.325  0.00  0.00    +0.009 A 
ATOM     24  C   UNL     1      -0.565  -3.977   1.447  0.00  0.00    +0.050 A 
ATOM     25  C   UNL     1      -0.566  -4.780   0.319  0.00  0.00    +0.162 A 
ATOM     26  C   UNL     1      -0.820  -4.227  -0.928  0.00  0.00    +0.162 A 
ATOM     27  C   UNL     1      -1.079  -2.872  -1.046  0.00  0.00    +0.054 A 
ATOM     28  O   UNL     1      -0.820  -5.027  -2.033  0.00  0.00    -0.488 OA
ATOM     29  C   UNL     1       0.448  -5.566  -2.414  0.00  0.00    +0.232 C 
ATOM     30  C   UNL     1       0.752  -6.834  -1.633  0.00  0.00    +0.082 C 
ATOM     31  C   UNL     1       0.912  -6.572  -0.143  0.00  0.00    +0.232 C 
ATOM     32  O   UNL     1      -0.318  -6.118   0.426  0.00  0.00    -0.488 OA
ENDBRANCH  21  22
BRANCH  21  34
ATOM     33  C   UNL     1       0.688  -0.082   1.310  0.00  0.00    +0.009 C 
ATOM     34  C   UNL     1      -0.028   0.175  -0.018  0.00  0.00    +0.004 C 
ATOM     35  C   UNL     1       0.857  -0.295  -1.174  0.00  0.00    +0.009 C 
ENDBRANCH  21  34
ENDBRANCH  19  21
ENDBRANCH   1  19
TORSDOF 7
