REMARK  Name = ZINC01305292
REMARK  7 active torsions:
REMARK  status: ('A' for Active; 'I' for Inactive)
REMARK    1  A    between atoms: C_1  and  C_2
REMARK    2  A    between atoms: C_2  and  O_3
REMARK    3  A    between atoms: O_3  and  C_4
REMARK    4  A    between atoms: C_9  and  N_10
REMARK    5  A    between atoms: C_11  and  C_13
REMARK    6  A    between atoms: C_14  and  C_27
REMARK    7  A    between atoms: C_19  and  C_21
REMARK                            x       y       z     vdW  Elec       q    Type
REMARK                         _______ _______ _______ _____ _____    ______ ____
ROOT
ATOM      1  C   UNL     1      -1.465   2.441   0.196  0.00  0.00    +0.056 C 
ATOM      2  C   UNL     1      -1.295   1.305   0.906  0.00  0.00    +0.017 C 
ATOM      3  N   UNL     1      -0.090   0.662   0.928  0.00  0.00    -0.300 N 
ATOM      4  C   UNL     1       0.990   1.084   0.259  0.00  0.00    +0.135 C 
ATOM      5  S   UNL     1       2.438   0.178   0.369  0.00  0.00    -0.019 S 
ATOM      6  N   UNL     1       0.974   2.198  -0.498  0.00  0.00    -0.315 N 
ATOM      7  C   UNL     1      -0.278   2.969  -0.585  0.00  0.00    +0.139 C 
ATOM      8  C   UNL     1      -2.451   0.742   1.691  0.00  0.00    +0.061 C 
ATOM      9  H   UNL     1       0.031  -0.257   1.521  0.00  0.00    +0.154 HD
ATOM     10  H   UNL     1       1.867   2.537  -1.044  0.00  0.00    +0.149 HD
ENDROOT
BRANCH   7  11
ATOM     11  C   UNL     1       0.005   4.370  -0.106  0.00  0.00    -0.023 A 
ATOM     12  C   UNL     1       0.721   4.571   1.060  0.00  0.00    +0.006 A 
ATOM     13  C   UNL     1       0.984   5.856   1.496  0.00  0.00    +0.000 A 
ATOM     14  C   UNL     1       0.524   6.939   0.772  0.00  0.00    +0.000 A 
ATOM     15  C   UNL     1      -0.196   6.739  -0.390  0.00  0.00    +0.000 A 
ATOM     16  C   UNL     1      -0.456   5.454  -0.829  0.00  0.00    +0.006 A 
ENDBRANCH   7  11
BRANCH   1  18
ATOM     17  N   UNL     1      -3.135   3.780   1.267  0.00  0.00    -0.279 N 
ATOM     18  C   UNL     1      -2.712   3.112   0.176  0.00  0.00    +0.248 C 
ATOM     19  O   UNL     1      -3.401   3.086  -0.828  0.00  0.00    -0.270 OA
ATOM     20  H   UNL     1      -2.468   3.896   2.134  0.00  0.00    +0.155 HD
BRANCH  17  26
ATOM     21  C   UNL     1      -5.108   4.436   2.507  0.00  0.00    +0.142 A 
ATOM     22  C   UNL     1      -6.381   4.980   2.533  0.00  0.00    +0.047 A 
ATOM     23  C   UNL     1      -6.976   5.403   1.358  0.00  0.00    +0.004 A 
ATOM     24  C   UNL     1      -6.301   5.289   0.157  0.00  0.00    +0.002 A 
ATOM     25  C   UNL     1      -5.028   4.751   0.124  0.00  0.00    +0.027 A 
ATOM     26  C   UNL     1      -4.425   4.325   1.298  0.00  0.00    +0.076 A 
BRANCH  21  27
ATOM     27  O   UNL     1      -4.523   4.015   3.661  0.00  0.00    -0.490 OA
BRANCH  27  29
ATOM     28  C   UNL     1      -4.468   3.636   6.047  0.00  0.00    +0.048 C 
ATOM     29  C   UNL     1      -5.283   4.159   4.863  0.00  0.00    +0.226 C 
ENDBRANCH  27  29
ENDBRANCH  21  27
ENDBRANCH  17  26
ENDBRANCH   1  18
TORSDOF 5
