REMARK  Name = ZINC05786360
REMARK  5 active torsions:
REMARK  status: ('A' for Active; 'I' for Inactive)
REMARK    1  A    between atoms: C_3  and  C_6
REMARK    2  A    between atoms: N_8  and  N_9
REMARK    3  A    between atoms: C_10  and  C_12
REMARK    4  A    between atoms: C_12  and  N_13
REMARK    5  A    between atoms: C_14  and  C_16
REMARK                            x       y       z     vdW  Elec       q    Type
REMARK                         _______ _______ _______ _____ _____    ______ ____
ROOT
ATOM      1  C   UNL     1       3.663   1.796  -0.023  0.00  0.00    +0.201 C 
ENDROOT
BRANCH   1   3
ATOM      2  N   UNL     1       1.193   1.683  -0.000  0.00  0.00    -0.233 N 
ATOM      3  C   UNL     1       2.369   1.025  -0.015  0.00  0.00    +0.246 C 
ATOM      4  O   UNL     1       2.385  -0.188  -0.022  0.00  0.00    -0.273 OA
ATOM      5  H   UNL     1       1.179   2.653   0.005  0.00  0.00    +0.173 HD
BRANCH   2   8
ATOM      6  C   UNL     1      -1.187   1.624   0.017  0.00  0.00    +0.267 C 
ATOM      7  O   UNL     1      -1.204   2.841   0.023  0.00  0.00    -0.268 OA
ATOM      8  N   UNL     1      -0.011   0.966   0.007  0.00  0.00    -0.230 N 
ATOM      9  H   UNL     1       0.002  -0.004   0.002  0.00  0.00    +0.173 HD
BRANCH   6  12
ATOM     10  C   UNL     1      -4.756   0.419   0.028  0.00  0.00    +0.008 A 
ATOM     11  C   UNL     1      -3.748   1.351   0.033  0.00  0.00    +0.021 A 
ATOM     12  C   UNL     1      -2.447   0.874   0.018  0.00  0.00    +0.075 A 
ATOM     13  S   UNL     1      -2.704  -0.892   0.011  0.00  0.00    -0.092 S 
ATOM     14  C   UNL     1      -4.438  -0.902   0.019  0.00  0.00    +0.046 A 
ENDBRANCH   6  12
ENDBRANCH   2   8
ENDBRANCH   1   3
BRANCH   1  15
ATOM     15  N   UNL     1       4.790   0.859  -0.039  0.00  0.00    -0.306 N 
ATOM     16  C   UNL     1       6.054   1.326  -0.049  0.00  0.00    +0.220 C 
ATOM     17  O   UNL     1       6.260   2.521  -0.044  0.00  0.00    -0.275 OA
ATOM     18  H   UNL     1       4.625  -0.097  -0.043  0.00  0.00    +0.149 HD
BRANCH  16  19
ATOM     19  C   UNL     1       7.213   0.362  -0.065  0.00  0.00    +0.048 C 
ATOM     20  C   UNL     1       7.155  -0.525   1.180  0.00  0.00    +0.019 C 
ATOM     21  C   UNL     1       8.332  -1.503   1.164  0.00  0.00    -0.009 C 
ATOM     22  C   UNL     1       9.646  -0.721   1.155  0.00  0.00    +0.007 C 
ATOM     23  C   UNL     1       9.703   0.167  -0.090  0.00  0.00    -0.009 C 
ATOM     24  C   UNL     1       8.527   1.145  -0.073  0.00  0.00    +0.019 C 
ATOM     25  C   UNL     1       9.622  -0.707  -1.343  0.00  0.00    +0.007 C 
ATOM     26  C   UNL     1       8.308  -1.490  -1.335  0.00  0.00    -0.009 C 
ATOM     27  C   UNL     1       8.251  -2.377  -0.089  0.00  0.00    +0.007 C 
ATOM     28  C   UNL     1       7.132  -0.512  -1.318  0.00  0.00    +0.019 C 
ENDBRANCH  16  19
ENDBRANCH   1  15
TORSDOF 5
