REMARK  Name = ZINC12555028
REMARK  6 active torsions:
REMARK  status: ('A' for Active; 'I' for Inactive)
REMARK    1  A    between atoms: N_7  and  C_15
REMARK    2  A    between atoms: C_9  and  C_12
REMARK    3  A    between atoms: C_15  and  C_16
REMARK    4  A    between atoms: N_18  and  C_19
REMARK    5  A    between atoms: C_23  and  S_25
REMARK    6  A    between atoms: S_25  and  N_28
REMARK                            x       y       z     vdW  Elec       q    Type
REMARK                         _______ _______ _______ _____ _____    ______ ____
ROOT
ATOM      1  C   UNL     1      -0.046   3.527   6.088  0.00  0.00    +0.235 C 
ATOM      2  O   UNL     1      -1.233   3.752   6.191  0.00  0.00    -0.274 OA
ATOM      3  N   UNL     1       0.451   3.040   4.934  0.00  0.00    -0.284 N 
ATOM      4  H   UNL     1       1.386   2.791   4.875  0.00  0.00    +0.155 HD
ENDROOT
BRANCH   3   5
ATOM      5  C   UNL     1      -0.383   2.894   3.820  0.00  0.00    +0.035 A 
ATOM      6  C   UNL     1      -0.175   1.851   2.927  0.00  0.00    +0.023 A 
ATOM      7  C   UNL     1      -1.000   1.710   1.828  0.00  0.00    +0.004 A 
ATOM      8  C   UNL     1      -2.036   2.603   1.620  0.00  0.00    +0.028 A 
ATOM      9  C   UNL     1      -2.242   3.645   2.504  0.00  0.00    +0.107 A 
ATOM     10  C   UNL     1      -1.420   3.792   3.605  0.00  0.00    +0.051 A 
BRANCH   9  11
ATOM     11  S   UNL     1      -3.559   4.784   2.231  0.00  0.00    +0.061 S 
ATOM     12  O   UNL     1      -3.882   5.343   3.497  0.00  0.00    -0.153 OA
ATOM     13  O   UNL     1      -4.519   4.109   1.429  0.00  0.00    -0.153 OA
BRANCH  11  14
ATOM     14  N   UNL     1      -2.955   6.019   1.308  0.00  0.00    -0.177 NA
ATOM     15  C   UNL     1      -2.342   7.252   1.823  0.00  0.00    +0.109 C 
ATOM     16  C   UNL     1      -1.953   8.114   0.603  0.00  0.00    +0.018 C 
ATOM     17  C   UNL     1      -2.886   7.575  -0.513  0.00  0.00    +0.018 C 
ATOM     18  C   UNL     1      -2.948   6.066  -0.165  0.00  0.00    +0.109 C 
ENDBRANCH  11  14
ENDBRANCH   9  11
ENDBRANCH   3   5
BRANCH   1  19
ATOM     19  C   UNL     1       0.875   3.793   7.252  0.00  0.00    +0.201 C 
BRANCH  19  26
ATOM     20  C   UNL     1       2.815   6.048  10.004  0.00  0.00    +0.002 A 
ATOM     21  C   UNL     1       2.555   5.842  11.347  0.00  0.00    +0.004 A 
ATOM     22  C   UNL     1       1.470   5.078  11.731  0.00  0.00    +0.047 A 
ATOM     23  C   UNL     1       0.638   4.515  10.774  0.00  0.00    +0.143 A 
ATOM     24  C   UNL     1       0.895   4.723   9.424  0.00  0.00    +0.073 A 
ATOM     25  C   UNL     1       1.991   5.492   9.046  0.00  0.00    +0.027 A 
ATOM     26  N   UNL     1       0.081   4.182   8.425  0.00  0.00    -0.314 N 
ATOM     27  C   UNL     1      -0.720   3.054   8.915  0.00  0.00    +0.160 C 
ATOM     28  C   UNL     1      -1.426   3.480  10.209  0.00  0.00    +0.275 C 
ATOM     29  O   UNL     1      -0.420   3.764  11.186  0.00  0.00    -0.476 OA
BRANCH  28  30
ATOM     30  C   UNL     1      -2.312   2.364  10.698  0.00  0.00    +0.253 C 
ATOM     31  O   UNL     1      -2.069   1.814  11.751  0.00  0.00    -0.272 OA
ATOM     32  N   UNL     1      -3.375   1.977   9.965  0.00  0.00    -0.326 N 
ATOM     33  H   UNL     1      -3.570   2.417   9.123  0.00  0.00    +0.145 HD
ATOM     34  H   UNL     1      -3.946   1.258  10.280  0.00  0.00    +0.145 HD
ENDBRANCH  28  30
ENDBRANCH  19  26
ENDBRANCH   1  19
TORSDOF 6
