REMARK  Name = ZINC08384577
REMARK  6 active torsions:
REMARK  status: ('A' for Active; 'I' for Inactive)
REMARK    1  A    between atoms: C_1  and  C_2
REMARK    2  A    between atoms: C_5  and  C_8
REMARK    3  A    between atoms: C_8  and  C_10
REMARK    4  A    between atoms: C_12  and  C_24
REMARK    5  A    between atoms: C_18  and  C_19
REMARK    6  A    between atoms: C_18  and  O_23
REMARK                            x       y       z     vdW  Elec       q    Type
REMARK                         _______ _______ _______ _____ _____    ______ ____
ROOT
ATOM      1  C   UNL     1      -1.147   3.861   0.065  0.00  0.00    +0.144 C 
ATOM      2  C   UNL     1      -2.476   4.456  -0.412  0.00  0.00    +0.120 C 
ATOM      3  N   UNL     1      -2.569   5.846   0.039  0.00  0.00    -0.292 N 
ATOM      4  C   UNL     1      -1.956   6.261   1.157  0.00  0.00    +0.302 C 
ATOM      5  O   UNL     1      -2.072   7.425   1.490  0.00  0.00    -0.253 OA
ATOM      6  N   UNL     1      -1.219   5.443   1.924  0.00  0.00    -0.264 N 
ATOM      7  C   UNL     1      -1.051   4.029   1.586  0.00  0.00    +0.243 C 
ATOM      8  H   UNL     1      -3.083   6.480  -0.484  0.00  0.00    +0.151 HD
ATOM      9  H   UNL     1      -0.790   5.796   2.719  0.00  0.00    +0.153 HD
ENDROOT
BRANCH   2  10
ATOM     10  C   UNL     1      -2.538   4.405  -1.917  0.00  0.00    -0.025 A 
ATOM     11  C   UNL     1      -1.885   5.364  -2.669  0.00  0.00    +0.007 A 
ATOM     12  C   UNL     1      -1.938   5.316  -4.049  0.00  0.00    +0.022 A 
ATOM     13  C   UNL     1      -2.653   4.313  -4.679  0.00  0.00    +0.059 A 
ATOM     14  C   UNL     1      -3.312   3.356  -3.926  0.00  0.00    +0.060 A 
ATOM     15  C   UNL     1      -3.254   3.403  -2.545  0.00  0.00    +0.027 A 
ATOM     16 CL   UNL     1      -4.210   2.097  -4.715  0.00  0.00    -0.082 Cl
ATOM     17 CL   UNL     1      -2.726   4.256  -6.413  0.00  0.00    -0.082 Cl
ENDBRANCH   2  10
BRANCH   7  18
ATOM     18  C   UNL     1       0.319   3.547   2.068  0.00  0.00    +0.436 C 
ATOM     19  F   UNL     1       1.324   4.212   1.357  0.00  0.00    -0.166 F 
ATOM     20  F   UNL     1       0.455   3.820   3.433  0.00  0.00    -0.166 F 
ATOM     21  F   UNL     1       0.430   2.169   1.855  0.00  0.00    -0.166 F 
ENDBRANCH   7  18
BRANCH   1  22
ATOM     22  C   UNL     1      -1.093   2.396  -0.286  0.00  0.00    +0.173 C 
ATOM     23  O   UNL     1      -1.948   1.642   0.127  0.00  0.00    -0.292 OA
BRANCH  22  28
ATOM     24  C   UNL     1       3.154   0.389  -3.600  0.00  0.00    +0.044 C 
ATOM     25  C   UNL     1       2.042   0.915  -2.730  0.00  0.00    -0.050 A 
ATOM     26  C   UNL     1       1.151   0.033  -2.143  0.00  0.00    +0.004 A 
ATOM     27  C   UNL     1       0.131   0.507  -1.345  0.00  0.00    +0.011 A 
ATOM     28  C   UNL     1      -0.003   1.882  -1.131  0.00  0.00    +0.018 A 
ATOM     29  C   UNL     1       0.901   2.767  -1.728  0.00  0.00    +0.011 A 
ATOM     30  C   UNL     1       1.916   2.277  -2.522  0.00  0.00    +0.004 A 
ENDBRANCH  22  28
ENDBRANCH   1  22
BRANCH   7  31
ATOM     31  O   UNL     1      -2.078   3.261   2.217  0.00  0.00    -0.364 OA
ATOM     32  H   UNL     1      -2.077   3.321   3.182  0.00  0.00    +0.212 HD
ENDBRANCH   7  31
TORSDOF 5
