REMARK  Name = ZINC45824105
REMARK  9 active torsions:
REMARK  status: ('A' for Active; 'I' for Inactive)
REMARK    1  A    between atoms: C_1  and  S_2
REMARK    2  A    between atoms: S_2  and  N_5
REMARK    3  A    between atoms: N_5  and  C_6
REMARK    4  A    between atoms: C_9  and  C_12
REMARK    5  A    between atoms: C_13  and  C_14
REMARK    6  A    between atoms: N_16  and  C_17
REMARK    7  A    between atoms: C_20  and  N_23
REMARK    8  A    between atoms: N_26  and  C_27
REMARK    9  A    between atoms: C_27  and  C_28
REMARK                            x       y       z     vdW  Elec       q    Type
REMARK                         _______ _______ _______ _____ _____    ______ ____
ROOT
ATOM      1  C   UNL     1       9.169  -2.149  -3.374  0.00  0.00    +0.241 C 
ATOM      2  O   UNL     1       9.971  -3.058  -3.494  0.00  0.00    -0.270 OA
ATOM      3  N   UNL     1       9.578  -0.870  -3.486  0.00  0.00    -0.282 N 
ATOM      4  H   UNL     1       8.930  -0.149  -3.455  0.00  0.00    +0.155 HD
ENDROOT
BRANCH   3   5
ATOM      5  C   UNL     1      10.939  -0.582  -3.647  0.00  0.00    +0.034 A 
ATOM      6  C   UNL     1      11.483   0.550  -3.055  0.00  0.00    +0.025 A 
ATOM      7  C   UNL     1      12.825   0.834  -3.213  0.00  0.00    +0.025 A 
ATOM      8  C   UNL     1      13.630  -0.012  -3.965  0.00  0.00    +0.035 A 
ATOM      9  C   UNL     1      13.085  -1.144  -4.557  0.00  0.00    +0.025 A 
ATOM     10  C   UNL     1      11.745  -1.431  -4.394  0.00  0.00    +0.025 A 
BRANCH   8  11
ATOM     11  N   UNL     1      14.992   0.276  -4.126  0.00  0.00    -0.269 N 
ATOM     12  C   UNL     1      15.619  -0.051  -5.273  0.00  0.00    +0.304 C 
ATOM     13  O   UNL     1      14.984  -0.511  -6.203  0.00  0.00    -0.252 OA
ATOM     14  N   UNL     1      16.949   0.133  -5.390  0.00  0.00    -0.292 N 
ATOM     15  H   UNL     1      15.483   0.711  -3.411  0.00  0.00    +0.156 HD
ATOM     16  H   UNL     1      17.455   0.500  -4.649  0.00  0.00    +0.151 HD
BRANCH  14  17
ATOM     17  C   UNL     1      17.630  -0.222  -6.638  0.00  0.00    +0.180 C 
BRANCH  17  18
ATOM     18  C   UNL     1      19.101   0.079  -6.509  0.00  0.00    +0.122 A 
ATOM     19  C   UNL     1      20.043  -0.774  -6.066  0.00  0.00    +0.046 A 
ATOM     20  C   UNL     1      21.275  -0.083  -6.111  0.00  0.00    +0.041 A 
ATOM     21  C   UNL     1      21.013   1.151  -6.578  0.00  0.00    +0.195 A 
ATOM     22  O   UNL     1      19.696   1.241  -6.824  0.00  0.00    -0.466 OA
ENDBRANCH  17  18
ENDBRANCH  14  17
ENDBRANCH   8  11
ENDBRANCH   3   5
BRANCH   1  24
ATOM     23  C   UNL     1       7.353  -3.728  -2.997  0.00  0.00    +0.013 C 
ATOM     24  C   UNL     1       7.763  -2.446  -3.109  0.00  0.00    +0.068 C 
BRANCH  23  28
ATOM     25  C   UNL     1       3.276  -4.588  -2.226  0.00  0.00    +0.048 A 
ATOM     26  C   UNL     1       4.192  -5.629  -2.364  0.00  0.00    +0.025 A 
ATOM     27  C   UNL     1       5.512  -5.355  -2.613  0.00  0.00    +0.010 A 
ATOM     28  C   UNL     1       5.939  -4.026  -2.730  0.00  0.00    -0.025 A 
ATOM     29  C   UNL     1       5.015  -2.983  -2.591  0.00  0.00    +0.010 A 
ATOM     30  C   UNL     1       3.696  -3.266  -2.347  0.00  0.00    +0.025 A 
BRANCH  25  31
ATOM     31  N   UNL     1       1.938  -4.871  -1.974  0.00  0.00    -0.221 N 
ATOM     32  H   UNL     1       1.461  -4.382  -1.285  0.00  0.00    +0.173 HD
BRANCH  31  34
ATOM     33  C   UNL     1       1.218  -5.457  -4.565  0.00  0.00    +0.218 C 
ATOM     34  S   UNL     1       1.159  -6.042  -2.849  0.00  0.00    +0.040 S 
ATOM     35  O   UNL     1      -0.179  -6.022  -2.371  0.00  0.00    -0.155 OA
ATOM     36  O   UNL     1       1.965  -7.202  -2.699  0.00  0.00    -0.155 OA
ENDBRANCH  31  34
ENDBRANCH  25  31
ENDBRANCH  23  28
ENDBRANCH   1  24
TORSDOF 8
