REMARK  Name = ZINC56960441
REMARK  5 active torsions:
REMARK  status: ('A' for Active; 'I' for Inactive)
REMARK    1  A    between atoms: C_10  and  O_11
REMARK    2  A    between atoms: O_11  and  C_12
REMARK    3  A    between atoms: C_14  and  O_24
REMARK    4  A    between atoms: C_16  and  O_23
REMARK    5  A    between atoms: C_18  and  O_22
REMARK                            x       y       z     vdW  Elec       q    Type
REMARK                         _______ _______ _______ _____ _____    ______ ____
ROOT
ATOM      1  O   UNL     1       1.812  -3.139  -0.032  0.00  0.00    -0.459 OA
ENDROOT
BRANCH   1  11
ATOM      2  C   UNL     1      -0.017   1.387   0.010  0.00  0.00    +0.027 A 
ATOM      3  C   UNL     1       1.167   2.091   0.002  0.00  0.00    +0.019 A 
ATOM      4  C   UNL     1       2.386   1.426  -0.013  0.00  0.00    +0.037 A 
ATOM      5  C   UNL     1       2.429   0.049  -0.021  0.00  0.00    +0.068 A 
ATOM      6  C   UNL     1       1.236  -0.679  -0.013  0.00  0.00    +0.061 A 
ATOM      7  C   UNL     1       0.002  -0.004   0.002  0.00  0.00    +0.052 A 
ATOM      8  N   UNL     1      -0.987  -0.962   0.006  0.00  0.00    -0.358 N 
ATOM      9  H   UNL     1      -1.940  -0.780   0.016  0.00  0.00    +0.165 HD
ATOM     10  C   UNL     1      -0.422  -2.216  -0.006  0.00  0.00    +0.130 A 
ATOM     11  C   UNL     1       0.918  -2.111  -0.018  0.00  0.00    +0.150 A 
ATOM     12 CL   UNL     1       3.955  -0.777  -0.041  0.00  0.00    -0.082 Cl
ATOM     13 BR   UNL     1       3.997   2.417  -0.024  0.00  0.00    -0.049 Br
ENDBRANCH   1  11
BRANCH   1  14
ATOM     14  C   UNL     1       1.276  -4.464  -0.034  0.00  0.00    +0.339 C 
ATOM     15  C   UNL     1       2.417  -5.476  -0.175  0.00  0.00    +0.214 C 
ATOM     16  C   UNL     1       1.841  -6.894  -0.116  0.00  0.00    +0.180 C 
ATOM     17  C   UNL     1       1.070  -7.066   1.197  0.00  0.00    +0.171 C 
ATOM     18  C   UNL     1      -0.018  -5.993   1.285  0.00  0.00    +0.198 C 
ATOM     19  O   UNL     1       0.581  -4.699   1.193  0.00  0.00    -0.337 OA
BRANCH  17  20
ATOM     20  O   UNL     1       0.469  -8.362   1.231  0.00  0.00    -0.387 OA
ATOM     21  H   UNL     1      -0.036  -8.540   2.036  0.00  0.00    +0.210 HD
ENDBRANCH  17  20
BRANCH  16  22
ATOM     22  O   UNL     1       0.958  -7.098  -1.221  0.00  0.00    -0.386 OA
ATOM     23  H   UNL     1       0.556  -7.977  -1.246  0.00  0.00    +0.210 HD
ENDBRANCH  16  22
BRANCH  15  24
ATOM     24  O   UNL     1       3.351  -5.293   0.891  0.00  0.00    -0.383 OA
ATOM     25  H   UNL     1       3.752  -4.414   0.916  0.00  0.00    +0.210 HD
ENDBRANCH  15  24
ENDBRANCH   1  14
TORSDOF 5
