REMARK  Name = ZINC42430310
REMARK  7 active torsions:
REMARK  status: ('A' for Active; 'I' for Inactive)
REMARK    1  A    between atoms: C_1  and  C_2
REMARK    2  A    between atoms: C_2  and  C_3
REMARK    3  A    between atoms: C_2  and  C_4
REMARK    4  A    between atoms: C_2  and  CA_5
REMARK    5  A    between atoms: CA_5  and  C_7
REMARK    6  A    between atoms: CA_5  and  N_10
REMARK    7  A    between atoms: C_17  and  N_20
REMARK                            x       y       z     vdW  Elec       q    Type
REMARK                         _______ _______ _______ _____ _____    ______ ____
ROOT
ATOM      1  N   UNL     1       0.739  -1.962  -1.265  0.00  0.00    -0.285 N 
ATOM      2  C   UNL     1       0.838  -2.628  -2.432  0.00  0.00    +0.303 C 
ATOM      3  O   UNL     1       0.819  -2.018  -3.484  0.00  0.00    -0.253 OA
ATOM      4  N   UNL     1       0.958  -3.971  -2.434  0.00  0.00    -0.287 N 
ATOM      5  C   UNL     1       1.183  -4.701  -3.689  0.00  0.00    +0.109 C 
ATOM      6  C   UNL     1       2.423  -5.586  -3.529  0.00  0.00    +0.017 C 
ATOM      7  C   UNL     1       2.249  -6.484  -2.302  0.00  0.00    -0.013 C 
ATOM      8  C   UNL     1       2.109  -5.617  -1.049  0.00  0.00    -0.057 C 
ATOM      9  C   UNL     1       0.872  -4.732  -1.180  0.00  0.00    +0.093 C 
ATOM     10  H   UNL     1       0.680  -2.453  -0.430  0.00  0.00    +0.151 HD
ENDROOT
BRANCH   8  11
ATOM     11  N   UNL     1       1.974  -6.481   0.132  0.00  0.00    +0.381 N 
ATOM     12  H   UNL     1       2.792  -7.065   0.217  0.00  0.00    -0.090 HD
ATOM     13  H   UNL     1       1.882  -5.909   0.958  0.00  0.00    -0.090 HD
ATOM     14  H   UNL     1       1.155  -7.061   0.032  0.00  0.00    -0.090 HD
ENDBRANCH   8  11
BRANCH   1  15
ATOM     15  CA  UNL     1       0.721  -0.497  -1.257  0.00  0.00    +0.193 C 
BRANCH  15  17
ATOM     16  C   UNL     1      -0.014   1.527   0.011  0.00  0.00    +0.013 C 
ATOM     17  C   UNL     1       0.005  -0.003   0.002  0.00  0.00    -0.009 C 
ATOM     18  C   UNL     1       0.744  -0.511   1.242  0.00  0.00    +0.013 C 
ATOM     19  C   UNL     1      -1.431  -0.531   0.013  0.00  0.00    +0.013 C 
ENDBRANCH  15  17
BRANCH  15  20
ATOM     20  C   UNL     1       2.135   0.023  -1.267  0.00  0.00    +0.376 C 
ATOM     21  O   UNL     1       3.068  -0.744  -1.097  0.00  0.00    -0.244 OA
ATOM     22  OXT UNL     1       2.347   1.210  -1.446  0.00  0.00    -0.244 OA
ENDBRANCH  15  20
ENDBRANCH   1  15
TORSDOF 4
