REMARK  Name = ZINC43509434
REMARK  10 active torsions:
REMARK  status: ('A' for Active; 'I' for Inactive)
REMARK    1  A    between atoms: C_1  and  C_2
REMARK    2  A    between atoms: C_2  and  O_17
REMARK    3  A    between atoms: C_3  and  C_15
REMARK    4  A    between atoms: C_6  and  C_13
REMARK    5  A    between atoms: C_6  and  O_14
REMARK    6  A    between atoms: C_7  and  C_11
REMARK    7  A    between atoms: C_7  and  O_12
REMARK    8  A    between atoms: C_8  and  C_9
REMARK    9  A    between atoms: C_8  and  O_10
REMARK   10  A    between atoms: C_15  and  O_16
REMARK                            x       y       z     vdW  Elec       q    Type
REMARK                         _______ _______ _______ _____ _____    ______ ____
ROOT
ATOM      1  C   UNL     1      -0.019   1.526   0.010  0.00  0.00    +0.047 C 
ATOM      2  C   UNL     1       0.002  -0.004   0.002  0.00  0.00    +0.123 C 
ATOM      3  C   UNL     1      -1.427  -0.540  -0.076  0.00  0.00    +0.181 C 
ATOM      4  O   UNL     1      -2.100  -0.274   1.148  0.00  0.00    -0.338 OA
ATOM      5  C   UNL     1      -1.556  -0.897   2.303  0.00  0.00    +0.197 C 
ATOM      6  C   UNL     1      -0.087  -0.550   2.503  0.00  0.00    +0.147 C 
ATOM      7  C   UNL     1       0.731  -0.549   1.222  0.00  0.00    +0.127 C 
ATOM      8  C   UNL     1       1.998   0.298   1.450  0.00  0.00    +0.047 C 
ATOM      9  C   UNL     1       0.028   0.805   3.214  0.00  0.00    +0.050 C 
ATOM     10  C   UNL     1      -1.728  -2.417   2.221  0.00  0.00    +0.077 C 
ENDROOT
BRANCH   7  11
ATOM     11  O   UNL     1       1.159  -1.894   0.940  0.00  0.00    -0.383 OA
ATOM     12  H   UNL     1       1.759  -1.965   0.184  0.00  0.00    +0.210 HD
ENDBRANCH   7  11
BRANCH   6  13
ATOM     13  O   UNL     1       0.480  -1.542   3.388  0.00  0.00    -0.381 OA
ATOM     14  H   UNL     1       0.058  -1.580   4.257  0.00  0.00    +0.211 HD
ENDBRANCH   6  13
BRANCH   5  15
ATOM     15  O   UNL     1      -2.291  -0.432   3.452  0.00  0.00    -0.362 OA
ATOM     16  H   UNL     1      -3.236  -0.634   3.422  0.00  0.00    +0.213 HD
ENDBRANCH   5  15
BRANCH   2  17
ATOM     17  O   UNL     1       0.706  -0.432  -1.179  0.00  0.00    -0.383 OA
ATOM     18  H   UNL     1       0.304  -0.134  -2.006  0.00  0.00    +0.210 HD
ENDBRANCH   2  17
BRANCH   3  19
ATOM     19  C   UNL     1      -2.165   0.166  -1.221  0.00  0.00    +0.190 C 
BRANCH  19  20
ATOM     20  O   UNL     1      -3.463  -0.410  -1.378  0.00  0.00    -0.392 OA
ATOM     21  H   UNL     1      -3.987  -0.012  -2.086  0.00  0.00    +0.210 HD
ENDBRANCH  19  20
ENDBRANCH   3  19
TORSDOF 6
