REMARK  Name = ZINC64788995
REMARK  5 active torsions:
REMARK  status: ('A' for Active; 'I' for Inactive)
REMARK    1  A    between atoms: C_1  and  C_2
REMARK    2  A    between atoms: C_5  and  C_27
REMARK    3  A    between atoms: N_16  and  C_19
REMARK    4  A    between atoms: C_19  and  C_20
REMARK    5  A    between atoms: C_30  and  O_33
REMARK                            x       y       z     vdW  Elec       q    Type
REMARK                         _______ _______ _______ _____ _____    ______ ____
ROOT
ATOM      1  C   UNL     1      -0.018   1.503   0.010  0.00  0.00    +0.111 C 
ATOM      2  C   UNL     1       0.002  -0.004   0.002  0.00  0.00    +0.229 C 
ATOM      3  O   UNL     1       0.020  -0.616   1.049  0.00  0.00    -0.274 OA
ATOM      4  N   UNL     1       0.000  -0.672  -1.169  0.00  0.00    -0.215 N 
ATOM      5  C   UNL     1       0.013  -2.134  -1.313  0.00  0.00    +0.132 C 
ATOM      6  C   UNL     1       0.004  -2.370  -2.835  0.00  0.00    +0.082 C 
ATOM      7  C   UNL     1      -0.013  -0.980  -3.429  0.00  0.00    +0.041 C 
ATOM      8  N   UNL     1      -0.020  -0.083  -2.432  0.00  0.00    -0.264 N 
ATOM      9  C   UNL     1      -0.025  -0.682  -4.779  0.00  0.00    +0.118 C 
ATOM     10  C   UNL     1      -0.027  -1.743  -5.801  0.00  0.00    +0.258 C 
ATOM     11  N   UNL     1      -0.039  -1.378  -7.100  0.00  0.00    -0.235 N 
ATOM     12  H   UNL     1      -0.041  -2.065  -7.785  0.00  0.00    +0.159 HD
ATOM     13  C   UNL     1      -0.049  -0.089  -7.465  0.00  0.00    +0.316 C 
ATOM     14  O   UNL     1      -0.060   0.173  -8.651  0.00  0.00    -0.252 OA
ATOM     15  N   UNL     1      -0.047   0.927  -6.590  0.00  0.00    -0.217 N 
ATOM     16  C   UNL     1      -0.041   0.712  -5.259  0.00  0.00    +0.261 C 
ATOM     17  O   UNL     1      -0.044   1.642  -4.475  0.00  0.00    -0.269 OA
ATOM     18  O   UNL     1      -0.018  -2.917  -5.482  0.00  0.00    -0.270 OA
ATOM     19  H   UNL     1      -0.035   0.876  -2.575  0.00  0.00    +0.170 HD
ENDROOT
BRANCH   5  20
ATOM     20  C   UNL     1      -1.214  -2.736  -0.678  0.00  0.00    -0.025 A 
ATOM     21  C   UNL     1      -2.435  -2.098  -0.794  0.00  0.00    +0.009 A 
ATOM     22  C   UNL     1      -3.561  -2.648  -0.212  0.00  0.00    +0.046 A 
ATOM     23  C   UNL     1      -3.466  -3.841   0.489  0.00  0.00    +0.117 A 
ATOM     24  C   UNL     1      -2.239  -4.479   0.604  0.00  0.00    +0.046 A 
ATOM     25  C   UNL     1      -1.117  -3.928   0.015  0.00  0.00    +0.009 A 
BRANCH  23  26
ATOM     26  O   UNL     1      -4.572  -4.384   1.063  0.00  0.00    -0.507 OA
ATOM     27  H   UNL     1      -5.056  -4.990   0.486  0.00  0.00    +0.292 HD
ENDBRANCH  23  26
ENDBRANCH   5  20
BRANCH  15  28
ATOM     28  C   UNL     1      -0.058   2.304  -7.092  0.00  0.00    +0.153 C 
BRANCH  28  29
ATOM     29  C   UNL     1      -1.483   2.768  -7.253  0.00  0.00    -0.030 A 
ATOM     30  C   UNL     1      -2.144   2.566  -8.450  0.00  0.00    +0.005 A 
ATOM     31  C   UNL     1      -3.451   2.992  -8.598  0.00  0.00    +0.000 A 
ATOM     32  C   UNL     1      -4.096   3.620  -7.549  0.00  0.00    +0.000 A 
ATOM     33  C   UNL     1      -3.434   3.822  -6.352  0.00  0.00    +0.000 A 
ATOM     34  C   UNL     1      -2.129   3.392  -6.203  0.00  0.00    +0.005 A 
ENDBRANCH  28  29
ENDBRANCH  15  28
TORSDOF 4
