REMARK  Name = ZINC12867862
REMARK  6 active torsions:
REMARK  status: ('A' for Active; 'I' for Inactive)
REMARK    1  A    between atoms: C_4  and  C_7
REMARK    2  A    between atoms: C_7  and  C_9
REMARK    3  A    between atoms: C_7  and  N_14
REMARK    4  A    between atoms: N_17  and  C_18
REMARK    5  A    between atoms: C_21  and  S_24
REMARK    6  A    between atoms: S_24  and  N_27
REMARK                            x       y       z     vdW  Elec       q    Type
REMARK                         _______ _______ _______ _____ _____    ______ ____
ROOT
ATOM      1  N   UNL     1       1.917  -2.485  -0.916  0.00  0.00    -0.288 N 
ATOM      2  C   UNL     1       2.167  -2.459  -2.240  0.00  0.00    +0.305 C 
ATOM      3  O   UNL     1       2.931  -1.632  -2.699  0.00  0.00    -0.252 OA
ATOM      4  N   UNL     1       1.568  -3.349  -3.056  0.00  0.00    -0.269 N 
ATOM      5  H   UNL     1       1.307  -3.144  -0.550  0.00  0.00    +0.151 HD
ATOM      6  H   UNL     1       1.011  -4.051  -2.684  0.00  0.00    +0.156 HD
ENDROOT
BRANCH   4   7
ATOM      7  C   UNL     1       1.751  -3.262  -4.441  0.00  0.00    +0.035 A 
ATOM      8  C   UNL     1       0.714  -3.597  -5.302  0.00  0.00    +0.025 A 
ATOM      9  C   UNL     1       0.896  -3.506  -6.668  0.00  0.00    +0.030 A 
ATOM     10  C   UNL     1       2.112  -3.091  -7.179  0.00  0.00    +0.105 A 
ATOM     11  C   UNL     1       3.148  -2.763  -6.324  0.00  0.00    +0.030 A 
ATOM     12  C   UNL     1       2.971  -2.847  -4.957  0.00  0.00    +0.025 A 
BRANCH  10  13
ATOM     13  S   UNL     1       2.342  -2.982  -8.922  0.00  0.00    +0.056 S 
ATOM     14  O   UNL     1       1.051  -2.820  -9.493  0.00  0.00    -0.153 OA
ATOM     15  O   UNL     1       3.392  -2.048  -9.136  0.00  0.00    -0.153 OA
BRANCH  13  16
ATOM     16  N   UNL     1       2.905  -4.452  -9.435  0.00  0.00    -0.204 NA
ATOM     17  H   UNL     1       2.699  -4.766 -10.329  0.00  0.00    +0.144 HD
ATOM     18  H   UNL     1       3.442  -5.000  -8.841  0.00  0.00    +0.144 HD
ENDBRANCH  13  16
ENDBRANCH  10  13
ENDBRANCH   4   7
BRANCH   1  19
ATOM     19  C   UNL     1       2.567  -1.517  -0.029  0.00  0.00    +0.142 C 
BRANCH  19  23
ATOM     20  C   UNL     1       2.783  -3.126   3.922  0.00  0.00    +0.000 A 
ATOM     21  C   UNL     1       3.848  -2.411   3.408  0.00  0.00    +0.000 A 
ATOM     22  C   UNL     1       3.779  -1.890   2.129  0.00  0.00    +0.006 A 
ATOM     23  C   UNL     1       2.643  -2.084   1.365  0.00  0.00    -0.022 A 
ATOM     24  C   UNL     1       1.576  -2.795   1.881  0.00  0.00    +0.006 A 
ATOM     25  C   UNL     1       1.647  -3.319   3.158  0.00  0.00    +0.000 A 
ENDBRANCH  19  23
BRANCH  19  26
ATOM     26  C   UNL     1       1.768  -0.239  -0.008  0.00  0.00    +0.014 A 
ATOM     27  C   UNL     1       2.208   1.043  -0.004  0.00  0.00    +0.013 A 
ATOM     28  C   UNL     1       1.283   2.070   0.017  0.00  0.00    +0.008 A 
ATOM     29  C   UNL     1      -0.038   1.764   0.033  0.00  0.00    +0.045 A 
ATOM     30  S   UNL     1      -0.003  -0.021   0.018  0.00  0.00    -0.099 S 
ENDBRANCH  19  26
ENDBRANCH   1  19
TORSDOF 6
