REMARK  Name = ZINC41069914
REMARK  8 active torsions:
REMARK  status: ('A' for Active; 'I' for Inactive)
REMARK    1  A    between atoms: C_1  and  C_2
REMARK    2  A    between atoms: C_2  and  C_3
REMARK    3  A    between atoms: C_3  and  C_5
REMARK    4  A    between atoms: C_3  and  N_6
REMARK    5  A    between atoms: N_6  and  S_7
REMARK    6  A    between atoms: S_7  and  C_10
REMARK    7  A    between atoms: C_15  and  N_16
REMARK    8  A    between atoms: N_16  and  N_17
REMARK                            x       y       z     vdW  Elec       q    Type
REMARK                         _______ _______ _______ _____ _____    ______ ____
ROOT
ATOM      1  C   UNL     1       2.311   1.692  -3.310  0.00  0.00    +0.147 A 
ATOM      2  C   UNL     1       1.552   1.656  -4.466  0.00  0.00    +0.048 A 
ATOM      3  C   UNL     1       1.040   2.849  -4.961  0.00  0.00    +0.038 A 
ATOM      4  C   UNL     1       1.303   4.028  -4.289  0.00  0.00    +0.128 A 
ATOM      5  N   UNL     1       2.031   4.031  -3.188  0.00  0.00    -0.236 NA
ATOM      6  C   UNL     1       2.530   2.914  -2.683  0.00  0.00    +0.159 A 
ATOM      7 BR   UNL     1      -0.004   2.861  -6.537  0.00  0.00    -0.049 Br
ENDROOT
BRANCH   1   8
ATOM      8  S   UNL     1       2.985   0.210  -2.638  0.00  0.00    +0.062 S 
ATOM      9  O   UNL     1       4.360   0.465  -2.388  0.00  0.00    -0.153 OA
ATOM     10  O   UNL     1       2.547  -0.852  -3.476  0.00  0.00    -0.153 OA
BRANCH   8  11
ATOM     11  N   UNL     1       2.271  -0.027  -1.162  0.00  0.00    -0.187 NA
ATOM     12  H   UNL     1       2.804   0.019  -0.353  0.00  0.00    +0.148 HD
BRANCH  11  13
ATOM     13  C   UNL     1       0.836  -0.307  -1.079  0.00  0.00    +0.073 C 
ATOM     14  C   UNL     1       0.612  -1.819  -1.030  0.00  0.00    +0.025 C 
BRANCH  13  16
ATOM     15  C   UNL     1       0.375   1.857   0.082  0.00  0.00    +0.005 C 
ATOM     16  C   UNL     1       0.264   0.335   0.187  0.00  0.00    +0.017 C 
ENDBRANCH  13  16
ENDBRANCH  11  13
ENDBRANCH   8  11
ENDBRANCH   1   8
BRANCH   6  17
ATOM     17  N   UNL     1       3.286   2.964  -1.517  0.00  0.00    -0.266 N 
ATOM     18  H   UNL     1       3.586   2.142  -1.098  0.00  0.00    +0.167 HD
BRANCH  17  19
ATOM     19  N   UNL     1       3.607   4.170  -0.962  0.00  0.00    -0.255 NA
ATOM     20  H   UNL     1       2.778   4.714  -0.775  0.00  0.00    +0.140 HD
ATOM     21  H   UNL     1       4.156   4.048  -0.124  0.00  0.00    +0.140 HD
ENDBRANCH  17  19
ENDBRANCH   6  17
TORSDOF 6
