REMARK  Name = ZINC35954249
REMARK  12 active torsions:
REMARK  status: ('A' for Active; 'I' for Inactive)
REMARK    1  A    between atoms: C_1  and  C_2
REMARK    2  A    between atoms: C_3  and  C_20
REMARK    3  A    between atoms: C_4  and  N_13
REMARK    4  A    between atoms: N_5  and  C_7
REMARK    5  A    between atoms: N_16  and  C_19
REMARK    6  A    between atoms: C_20  and  N_21
REMARK    7  A    between atoms: N_21  and  C_22
REMARK    8  A    between atoms: C_22  and  C_23
REMARK    9  A    between atoms: C_23  and  C_24
REMARK   10  A    between atoms: C_24  and  O_25
REMARK   11  A    between atoms: O_25  and  C_26
REMARK   12  A    between atoms: C_27  and  C_29
REMARK                            x       y       z     vdW  Elec       q    Type
REMARK                         _______ _______ _______ _____ _____    ______ ____
ROOT
ATOM      1  C   UNL     1       0.303   1.652   0.871  0.00  0.00    +0.068 C 
ATOM      2  C   UNL     1       0.241   0.147   0.914  0.00  0.00    +0.067 A 
ATOM      3  C   UNL     1       0.183  -0.700  -0.197  0.00  0.00    +0.032 A 
ATOM      4  C   UNL     1       0.141  -1.983   0.258  0.00  0.00    +0.130 A 
ATOM      5  N   UNL     1       0.172  -1.935   1.618  0.00  0.00    -0.218 N 
ATOM      6  N   UNL     1       0.239  -0.588   1.997  0.00  0.00    -0.170 NA
ENDROOT
BRANCH   4   7
ATOM      7  N   UNL     1       0.077  -3.133  -0.524  0.00  0.00    -0.318 N 
ATOM      8  C   UNL     1       1.291  -3.901  -0.839  0.00  0.00    +0.088 C 
ATOM      9  C   UNL     1       1.032  -5.375  -0.509  0.00  0.00    -0.060 C 
ATOM     10  N   UNL     1      -0.172  -5.829  -1.214  0.00  0.00    +0.380 N 
ATOM     11  C   UNL     1      -1.347  -5.101  -0.718  0.00  0.00    -0.060 C 
ATOM     12  C   UNL     1      -1.207  -3.617  -1.054  0.00  0.00    +0.088 C 
ATOM     13  C   UNL     1      -0.358  -7.269  -0.986  0.00  0.00    -0.096 C 
ATOM     14  H   UNL     1      -0.066  -5.659  -2.203  0.00  0.00    -0.082 HD
ENDBRANCH   4   7
BRANCH   5  15
ATOM     15  C   UNL     1       0.145  -3.036   2.485  0.00  0.00    +0.067 A 
ATOM     16  C   UNL     1      -0.822  -4.021   2.328  0.00  0.00    +0.028 A 
ATOM     17  C   UNL     1      -0.845  -5.105   3.183  0.00  0.00    +0.002 A 
ATOM     18  C   UNL     1       0.092  -5.210   4.194  0.00  0.00    +0.000 A 
ATOM     19  C   UNL     1       1.056  -4.231   4.353  0.00  0.00    +0.002 A 
ATOM     20  C   UNL     1       1.088  -3.147   3.497  0.00  0.00    +0.028 A 
ENDBRANCH   5  15
BRANCH   3  21
ATOM     21  C   UNL     1       0.170  -0.270  -1.641  0.00  0.00    +0.148 C 
BRANCH  21  22
ATOM     22  N   UNL     1       1.542  -0.020  -2.089  0.00  0.00    -0.296 N 
ATOM     23  C   UNL     1       2.051   1.227  -2.039  0.00  0.00    +0.222 C 
ATOM     24  O   UNL     1       1.382   2.137  -1.598  0.00  0.00    -0.275 OA
BRANCH  23  25
ATOM     25  C   UNL     1       3.450   1.490  -2.533  0.00  0.00    +0.048 C 
ATOM     26  C   UNL     1       4.456   0.819  -1.595  0.00  0.00    +0.019 C 
ATOM     27  C   UNL     1       5.877   1.086  -2.096  0.00  0.00    -0.009 C 
ATOM     28  C   UNL     1       6.133   2.594  -2.123  0.00  0.00    +0.007 C 
ATOM     29  C   UNL     1       5.127   3.266  -3.060  0.00  0.00    -0.009 C 
ATOM     30  C   UNL     1       3.706   2.998  -2.560  0.00  0.00    +0.019 C 
ATOM     31  C   UNL     1       5.286   2.696  -4.471  0.00  0.00    +0.007 C 
ATOM     32  C   UNL     1       5.030   1.188  -4.444  0.00  0.00    -0.009 C 
ATOM     33  C   UNL     1       6.036   0.516  -3.507  0.00  0.00    +0.007 C 
ATOM     34  C   UNL     1       3.609   0.920  -3.944  0.00  0.00    +0.019 C 
ENDBRANCH  23  25
BRANCH  22  35
ATOM     35  C   UNL     1       2.362  -1.126  -2.590  0.00  0.00    +0.110 C 
BRANCH  35  36
ATOM     36  C   UNL     1       1.968  -1.438  -4.036  0.00  0.00    +0.047 C 
BRANCH  36  37
ATOM     37  C   UNL     1       2.857  -2.561  -4.575  0.00  0.00    +0.161 C 
BRANCH  37  38
ATOM     38  O   UNL     1       2.569  -2.773  -5.959  0.00  0.00    -0.383 OA
ATOM     39  C   UNL     1       3.349  -3.807  -6.563  0.00  0.00    +0.193 C 
ENDBRANCH  37  38
ENDBRANCH  36  37
ENDBRANCH  35  36
ENDBRANCH  22  35
ENDBRANCH  21  22
ENDBRANCH   3  21
TORSDOF 9
