REMARK  Name = ZINC55174663
REMARK  3 active torsions:
REMARK  status: ('A' for Active; 'I' for Inactive)
REMARK    1  A    between atoms: C_1  and  C_2
REMARK    2  A    between atoms: C_3  and  C_8
REMARK    3  A    between atoms: C_20  and  C_22
REMARK                            x       y       z     vdW  Elec       q    Type
REMARK                         _______ _______ _______ _____ _____    ______ ____
ROOT
ATOM      1  C   UNL     1      -0.008  -0.258  -2.565  0.00  0.00    +0.256 C 
ATOM      2  O   UNL     1      -0.027   0.937  -2.802  0.00  0.00    -0.269 OA
ATOM      3  N   UNL     1      -0.001  -1.145  -3.580  0.00  0.00    -0.280 N 
ATOM      4  C   UNL     1      -0.007  -0.834  -5.000  0.00  0.00    +0.080 C 
ATOM      5  C   UNL     1       0.671   0.445  -5.444  0.00  0.00    +0.023 C 
ATOM      6  C   UNL     1       0.490   0.555  -6.967  0.00  0.00    +0.002 C 
ATOM      7  C   UNL     1       1.058  -0.666  -7.684  0.00  0.00    +0.000 C 
ATOM      8  C   UNL     1       0.453  -1.970  -7.139  0.00  0.00    +0.005 C 
ATOM      9  C   UNL     1       0.770  -2.011  -5.649  0.00  0.00    +0.012 C 
ATOM     10  C   UNL     1       0.149  -3.197  -4.894  0.00  0.00    +0.039 C 
ATOM     11  C   UNL     1       0.022  -2.622  -3.457  0.00  0.00    +0.190 C 
ENDROOT
BRANCH   1  14
ATOM     12  C   UNL     1      -0.018   1.503   0.010  0.00  0.00    +0.067 C 
ATOM     13  C   UNL     1       0.002  -0.004   0.002  0.00  0.00    +0.060 A 
ATOM     14  C   UNL     1       0.006  -0.729  -1.181  0.00  0.00    +0.098 A 
ATOM     15  S   UNL     1       0.033  -2.397  -0.545  0.00  0.00    -0.048 S 
ATOM     16  C   UNL     1       0.036  -2.022   1.096  0.00  0.00    +0.156 A 
ATOM     17  N   UNL     1       0.022  -0.700   1.111  0.00  0.00    -0.230 NA
ATOM     18  N   UNL     1       0.053  -2.886   2.169  0.00  0.00    -0.337 N 
ATOM     19  H   UNL     1       0.066  -3.845   2.019  0.00  0.00    +0.144 HD
ATOM     20  H   UNL     1       0.053  -2.537   3.074  0.00  0.00    +0.144 HD
ENDBRANCH   1  14
BRANCH  11  21
ATOM     21  C   UNL     1      -1.259  -3.104  -2.826  0.00  0.00    +0.376 C 
ATOM     22  O   UNL     1      -2.181  -2.327  -2.647  0.00  0.00    -0.244 OA
ATOM     23  O   UNL     1      -1.374  -4.272  -2.496  0.00  0.00    -0.244 OA
ENDBRANCH  11  21
TORSDOF 2
