REMARK  Name = ZINC14841431
REMARK  12 active torsions:
REMARK  status: ('A' for Active; 'I' for Inactive)
REMARK    1  A    between atoms: C_1  and  C_2
REMARK    2  A    between atoms: C_2  and  C_3
REMARK    3  A    between atoms: C_2  and  C_4
REMARK    4  A    between atoms: C_4  and  C_6
REMARK    5  A    between atoms: C_4  and  N_16
REMARK    6  A    between atoms: N_8  and  N_9
REMARK    7  A    between atoms: N_9  and  C_10
REMARK    8  A    between atoms: C_10  and  N_12
REMARK    9  A    between atoms: N_12  and  C_13
REMARK   10  A    between atoms: C_13  and  C_14
REMARK   11  A    between atoms: C_13  and  C_15
REMARK   12  A    between atoms: C_17  and  C_19
REMARK                            x       y       z     vdW  Elec       q    Type
REMARK                         _______ _______ _______ _____ _____    ______ ____
ROOT
ATOM      1  C   UNL     1      -2.164   7.238  -0.966  0.00  0.00    +0.163 C 
ENDROOT
BRANCH   1   2
ATOM      2  C   UNL     1      -3.031   8.081  -1.866  0.00  0.00    +0.250 C 
ATOM      3  O   UNL     1      -3.563   7.583  -2.835  0.00  0.00    -0.272 OA
ATOM      4  N   UNL     1      -3.214   9.388  -1.593  0.00  0.00    -0.234 N 
ATOM      5  H   UNL     1      -2.732   9.803  -0.861  0.00  0.00    +0.173 HD
BRANCH   4   6
ATOM      6  N   UNL     1      -4.102  10.147  -2.367  0.00  0.00    -0.246 N 
ATOM      7  H   UNL     1      -4.585   9.732  -3.099  0.00  0.00    +0.172 HD
BRANCH   6   8
ATOM      8  C   UNL     1      -4.285  11.454  -2.094  0.00  0.00    +0.147 C 
ATOM      9  S   UNL     1      -5.370  12.382  -3.039  0.00  0.00    -0.017 S 
BRANCH   8  10
ATOM     10  N   UNL     1      -3.615  12.031  -1.077  0.00  0.00    -0.323 N 
ATOM     11  H   UNL     1      -3.000  11.505  -0.541  0.00  0.00    +0.148 HD
BRANCH  10  12
ATOM     12  C   UNL     1      -3.814  13.452  -0.780  0.00  0.00    +0.066 C 
ATOM     13  C   UNL     1      -5.037  13.617   0.125  0.00  0.00    +0.027 C 
ATOM     14  C   UNL     1      -2.576  14.003  -0.071  0.00  0.00    +0.027 C 
ENDBRANCH  10  12
ENDBRANCH   8  10
ENDBRANCH   6   8
ENDBRANCH   4   6
ENDBRANCH   1   2
BRANCH   1  15
ATOM     15  N   UNL     1      -2.618   5.845  -1.016  0.00  0.00    -0.303 N 
ATOM     16  C   UNL     1      -2.372   5.019   0.019  0.00  0.00    +0.220 C 
ATOM     17  O   UNL     1      -1.776   5.428   0.994  0.00  0.00    -0.275 OA
ATOM     18  H   UNL     1      -3.094   5.518  -1.795  0.00  0.00    +0.149 HD
BRANCH  16  19
ATOM     19  C   UNL     1      -2.838   3.587  -0.032  0.00  0.00    +0.048 C 
ATOM     20  C   UNL     1      -2.192   2.883  -1.228  0.00  0.00    +0.019 C 
ATOM     21  C   UNL     1      -2.666   1.429  -1.280  0.00  0.00    -0.009 C 
ATOM     22  C   UNL     1      -2.263   0.715   0.011  0.00  0.00    +0.007 C 
ATOM     23  C   UNL     1      -2.909   1.418   1.206  0.00  0.00    -0.009 C 
ATOM     24  C   UNL     1      -2.435   2.872   1.259  0.00  0.00    +0.019 C 
ATOM     25  C   UNL     1      -4.431   1.382   1.058  0.00  0.00    +0.007 C 
ATOM     26  C   UNL     1      -4.834   2.097  -0.234  0.00  0.00    -0.009 C 
ATOM     27  C   UNL     1      -4.188   1.393  -1.429  0.00  0.00    +0.007 C 
ATOM     28  C   UNL     1      -4.361   3.551  -0.181  0.00  0.00    +0.019 C 
ENDBRANCH  16  19
ENDBRANCH   1  15
BRANCH   1  30
ATOM     29  C   UNL     1      -0.223   8.765  -1.340  0.00  0.00    +0.009 C 
ATOM     30  C   UNL     1      -0.711   7.318  -1.436  0.00  0.00    +0.012 C 
ATOM     31  C   UNL     1       0.162   6.426  -0.551  0.00  0.00    +0.009 C 
ENDBRANCH   1  30
TORSDOF 8
