REMARK  Name = ZINC39083265
REMARK  4 active torsions:
REMARK  status: ('A' for Active; 'I' for Inactive)
REMARK    1  A    between atoms: C_1  and  C_2
REMARK    2  A    between atoms: C_5  and  C_12
REMARK    3  A    between atoms: C_5  and  N_15
REMARK    4  A    between atoms: C_7  and  C_9
REMARK                            x       y       z     vdW  Elec       q    Type
REMARK                         _______ _______ _______ _____ _____    ______ ____
ROOT
ATOM      1  C   UNL     1      -0.019   1.526   0.010  0.00  0.00    +0.008 C 
ATOM      2  C   UNL     1       0.002  -0.004   0.002  0.00  0.00    -0.001 C 
ATOM      3  C   UNL     1      -1.432  -0.564   0.094  0.00  0.00    +0.002 C 
ATOM      4  C   UNL     1      -1.697  -0.852   1.583  0.00  0.00    +0.034 C 
ATOM      5  C   UNL     1      -0.414  -0.457   2.343  0.00  0.00    +0.013 C 
ATOM      6  C   UNL     1       0.706  -0.544   1.272  0.00  0.00    +0.104 C 
ENDROOT
BRANCH   4   7
ATOM      7  N   UNL     1      -2.831  -0.047   2.057  0.00  0.00    +0.389 N 
ATOM      8  H   UNL     1      -3.655  -0.279   1.523  0.00  0.00    -0.088 HD
ATOM      9  H   UNL     1      -2.997  -0.242   3.033  0.00  0.00    -0.088 HD
ATOM     10  H   UNL     1      -2.620   0.933   1.941  0.00  0.00    -0.088 HD
ENDBRANCH   4   7
BRANCH   6  11
ATOM     11  C   UNL     1       1.876   0.330   1.645  0.00  0.00    +0.359 C 
ATOM     12  O   UNL     1       2.208   0.437   2.814  0.00  0.00    -0.246 OA
ATOM     13  O   UNL     1       2.491   0.928   0.779  0.00  0.00    -0.246 OA
ENDBRANCH   6  11
BRANCH   4  14
ATOM     14  C   UNL     1      -1.984  -2.317   1.782  0.00  0.00    +0.345 C 
ATOM     15  O   UNL     1      -1.149  -3.150   1.473  0.00  0.00    -0.248 OA
ATOM     16  O   UNL     1      -3.052  -2.671   2.253  0.00  0.00    -0.248 OA
ENDBRANCH   4  14
TORSDOF 3
