REMARK  Name = ZINC21080001
REMARK  8 active torsions:
REMARK  status: ('A' for Active; 'I' for Inactive)
REMARK    1  A    between atoms: C_1  and  C_2
REMARK    2  A    between atoms: C_5  and  N_9
REMARK    3  A    between atoms: C_10  and  C_12
REMARK    4  A    between atoms: C_12  and  S_13
REMARK    5  A    between atoms: S_13  and  C_14
REMARK    6  A    between atoms: N_19  and  N_20
REMARK    7  A    between atoms: C_21  and  C_22
REMARK    8  A    between atoms: C_27  and  O_28
REMARK                            x       y       z     vdW  Elec       q    Type
REMARK                         _______ _______ _______ _____ _____    ______ ____
ROOT
ATOM      1  C   UNL     1       1.277   1.802   0.012  0.00  0.00    +0.211 A 
ATOM      2  N   UNL     1      -0.016   1.362   0.023  0.00  0.00    -0.186 NA
ATOM      3  C   UNL     1       0.003  -0.005   0.025  0.00  0.00    +0.232 A 
ATOM      4  N   UNL     1       1.255  -0.393   0.016  0.00  0.00    -0.245 N 
ATOM      5  N   UNL     1       2.063   0.752   0.009  0.00  0.00    -0.144 NA
ATOM      6  N   UNL     1      -1.108  -0.836   0.034  0.00  0.00    -0.205 N 
ATOM      7  H   UNL     1      -2.119  -0.402   0.041  0.00  0.00    +0.177 HD
ATOM      8  H   UNL     1       1.498  -1.465   0.017  0.00  0.00    +0.192 HD
ENDROOT
BRANCH   6   9
ATOM      9  N   UNL     1      -0.943  -2.227   0.036  0.00  0.00    -0.187 NA
ATOM     10  C   UNL     1      -1.983  -3.004   0.045  0.00  0.00    +0.142 C 
BRANCH  10  11
ATOM     11  C   UNL     1      -1.808  -4.468   0.046  0.00  0.00    +0.037 A 
ATOM     12  C   UNL     1      -2.924  -5.308   0.056  0.00  0.00    +0.028 A 
ATOM     13  C   UNL     1      -2.754  -6.677   0.056  0.00  0.00    +0.019 A 
ATOM     14  C   UNL     1      -1.481  -7.222   0.048  0.00  0.00    +0.019 A 
ATOM     15  C   UNL     1      -0.369  -6.401   0.038  0.00  0.00    +0.047 A 
ATOM     16  C   UNL     1      -0.522  -5.024   0.032  0.00  0.00    +0.126 A 
ATOM     17 BR   UNL     1      -4.265  -7.814   0.069  0.00  0.00    -0.050 Br
BRANCH  16  18
ATOM     18  O   UNL     1       0.570  -4.217   0.017  0.00  0.00    -0.506 OA
ATOM     19  H   UNL     1       1.579  -4.656   0.006  0.00  0.00    +0.292 HD
ENDBRANCH  16  18
ENDBRANCH  10  11
ENDBRANCH   6   9
BRANCH   1  20
ATOM     20  S   UNL     1       1.798   3.486   0.005  0.00  0.00    -0.075 S 
BRANCH  20  21
ATOM     21  C   UNL     1       3.610   3.384  -0.008  0.00  0.00    +0.173 C 
BRANCH  21  23
ATOM     22  N   UNL     1       5.527   4.946  -0.025  0.00  0.00    -0.285 N 
ATOM     23  C   UNL     1       4.191   4.774  -0.015  0.00  0.00    +0.227 C 
ATOM     24  O   UNL     1       3.455   5.739  -0.011  0.00  0.00    -0.275 OA
ATOM     25  H   UNL     1       6.194   4.075   0.049  0.00  0.00    +0.155 HD
BRANCH  22  30
ATOM     26  C   UNL     1       7.716  10.164  -0.449  0.00  0.00    +0.045 C 
ATOM     27  C   UNL     1       7.135   8.778  -0.336  0.00  0.00    -0.032 A 
ATOM     28  C   UNL     1       7.775   7.710  -0.937  0.00  0.00    +0.006 A 
ATOM     29  C   UNL     1       7.248   6.438  -0.831  0.00  0.00    +0.023 A 
ATOM     30  C   UNL     1       6.067   6.233  -0.129  0.00  0.00    +0.035 A 
ATOM     31  C   UNL     1       5.425   7.307   0.474  0.00  0.00    +0.043 A 
ATOM     32  C   UNL     1       5.961   8.577   0.369  0.00  0.00    +0.046 A 
ATOM     33 CL   UNL     1       5.160   9.921   1.122  0.00  0.00    -0.083 Cl
ENDBRANCH  22  30
ENDBRANCH  21  23
ENDBRANCH  20  21
ENDBRANCH   1  20
TORSDOF 7
