REMARK  Name = ZINC36266747
REMARK  5 active torsions:
REMARK  status: ('A' for Active; 'I' for Inactive)
REMARK    1  A    between atoms: C_6  and  S_7
REMARK    2  A    between atoms: S_7  and  N_10
REMARK    3  A    between atoms: N_10  and  C_11
REMARK    4  A    between atoms: C_11  and  C_12
REMARK    5  A    between atoms: C_12  and  N_19
REMARK                            x       y       z     vdW  Elec       q    Type
REMARK                         _______ _______ _______ _____ _____    ______ ____
ROOT
ATOM      1  N   UNL     1      -0.911  -3.178  -1.620  0.00  0.00    -0.191 NA
ATOM      2  H   UNL     1      -1.433  -3.977  -1.792  0.00  0.00    +0.148 HD
ENDROOT
BRANCH   1   3
ATOM      3  S   UNL     1       0.210  -3.168  -0.401  0.00  0.00    +0.058 S 
ATOM      4  O   UNL     1       1.408  -2.644  -0.955  0.00  0.00    -0.153 OA
ATOM      5  O   UNL     1       0.151  -4.447   0.215  0.00  0.00    -0.153 OA
BRANCH   3  11
ATOM      6  C   UNL     1      -1.160  -2.415   1.837  0.00  0.00    +0.029 A 
ATOM      7  C   UNL     1      -1.591  -1.502   2.781  0.00  0.00    +0.017 A 
ATOM      8  C   UNL     1      -1.202  -0.178   2.691  0.00  0.00    +0.018 A 
ATOM      9  C   UNL     1      -0.382   0.232   1.656  0.00  0.00    +0.017 A 
ATOM     10  C   UNL     1       0.049  -0.681   0.712  0.00  0.00    +0.029 A 
ATOM     11  C   UNL     1      -0.340  -2.004   0.803  0.00  0.00    +0.105 A 
ATOM     12 BR   UNL     1      -1.792   1.071   3.982  0.00  0.00    -0.050 Br
ENDBRANCH   3  11
ENDBRANCH   1   3
BRANCH   1  13
ATOM     13  C   UNL     1      -1.114  -1.980  -2.438  0.00  0.00    +0.093 C 
BRANCH  13  14
ATOM     14  C   UNL     1      -1.901  -2.349  -3.697  0.00  0.00    -0.057 C 
ATOM     15  C   UNL     1      -2.361  -1.055  -4.395  0.00  0.00    -0.012 C 
ATOM     16  C   UNL     1      -1.240  -0.388  -5.216  0.00  0.00    -0.001 C 
ATOM     17  C   UNL     1       0.085  -0.406  -4.503  0.00  0.00    -0.000 C 
ATOM     18  C   UNL     1       0.875  -1.647  -4.967  0.00  0.00    -0.000 C 
ATOM     19  C   UNL     1       0.444  -2.863  -4.294  0.00  0.00    -0.001 C 
ATOM     20  C   UNL     1      -1.033  -3.203  -4.581  0.00  0.00    -0.012 C 
BRANCH  14  21
ATOM     21  N   UNL     1      -3.087  -3.123  -3.306  0.00  0.00    +0.383 N 
ATOM     22  H   UNL     1      -3.664  -2.566  -2.693  0.00  0.00    -0.089 HD
ATOM     23  H   UNL     1      -3.613  -3.371  -4.130  0.00  0.00    -0.089 HD
ATOM     24  H   UNL     1      -2.798  -3.961  -2.825  0.00  0.00    -0.089 HD
ENDBRANCH  14  21
ENDBRANCH  13  14
ENDBRANCH   1  13
TORSDOF 5
