REMARK  Name = ZINC20115255
REMARK  9 active torsions:
REMARK  status: ('A' for Active; 'I' for Inactive)
REMARK    1  A    between atoms: C_1  and  C_2
REMARK    2  A    between atoms: C_2  and  C_4
REMARK    3  A    between atoms: C_2  and  O_18
REMARK    4  A    between atoms: N_6  and  N_7
REMARK    5  A    between atoms: C_8  and  C_9
REMARK    6  A    between atoms: C_8  and  C_10
REMARK    7  A    between atoms: C_12  and  O_17
REMARK    8  A    between atoms: C_15  and  O_16
REMARK    9  A    between atoms: O_18  and  C_19
REMARK                            x       y       z     vdW  Elec       q    Type
REMARK                         _______ _______ _______ _____ _____    ______ ____
ROOT
ATOM      1  C   UNL     1       0.719  -0.205   1.150  0.00  0.00    +0.273 C 
ATOM      2  O   UNL     1       0.187  -0.641   2.149  0.00  0.00    -0.270 OA
ATOM      3  N   UNL     1       2.061  -0.089   1.097  0.00  0.00    -0.204 N 
ATOM      4  H   UNL     1       2.492   0.190   0.274  0.00  0.00    +0.177 HD
ENDROOT
BRANCH   3   5
ATOM      5  N   UNL     1       2.834  -0.371   2.232  0.00  0.00    -0.184 NA
ATOM      6  C   UNL     1       4.115  -0.168   2.211  0.00  0.00    +0.067 C 
ATOM      7  C   UNL     1       4.964  -0.589   3.383  0.00  0.00    +0.068 C 
BRANCH   6   8
ATOM      8  C   UNL     1       4.741   0.474   1.041  0.00  0.00    +0.042 A 
ATOM      9  C   UNL     1       4.426   1.795   0.713  0.00  0.00    +0.058 A 
ATOM     10  C   UNL     1       5.017   2.391  -0.386  0.00  0.00    +0.118 A 
ATOM     11  C   UNL     1       5.922   1.680  -1.163  0.00  0.00    +0.049 A 
ATOM     12  C   UNL     1       6.238   0.373  -0.846  0.00  0.00    +0.049 A 
ATOM     13  C   UNL     1       5.659  -0.235   0.255  0.00  0.00    +0.126 A 
BRANCH  13  14
ATOM     14  O   UNL     1       5.975  -1.519   0.569  0.00  0.00    -0.506 OA
ATOM     15  H   UNL     1       5.457  -2.180   0.090  0.00  0.00    +0.292 HD
ENDBRANCH  13  14
BRANCH  10  16
ATOM     16  O   UNL     1       4.711   3.677  -0.706  0.00  0.00    -0.507 OA
ATOM     17  H   UNL     1       5.284   4.334  -0.288  0.00  0.00    +0.292 HD
ENDBRANCH  10  16
ENDBRANCH   6   8
ENDBRANCH   3   5
BRANCH   1  19
ATOM     18  C   UNL     1      -0.029   1.722  -0.219  0.00  0.00    +0.062 C 
ATOM     19  C   UNL     1      -0.119   0.206  -0.033  0.00  0.00    +0.257 C 
BRANCH  19  20
ATOM     20  O   UNL     1      -1.480  -0.166   0.196  0.00  0.00    -0.478 OA
BRANCH  20  21
ATOM     21  C   UNL     1      -2.267  -0.335  -0.900  0.00  0.00    +0.140 A 
ATOM     22  C   UNL     1      -1.747  -0.118  -2.167  0.00  0.00    +0.048 A 
ATOM     23  C   UNL     1      -2.547  -0.290  -3.280  0.00  0.00    +0.023 A 
ATOM     24  C   UNL     1      -3.868  -0.678  -3.131  0.00  0.00    +0.043 A 
ATOM     25  C   UNL     1      -4.388  -0.894  -1.868  0.00  0.00    +0.043 A 
ATOM     26  C   UNL     1      -3.589  -0.729  -0.752  0.00  0.00    +0.084 A 
ATOM     27 CL   UNL     1      -4.241  -1.008   0.833  0.00  0.00    -0.080 Cl
ATOM     28 CL   UNL     1      -4.871  -0.892  -4.531  0.00  0.00    -0.083 Cl
ENDBRANCH  20  21
ENDBRANCH  19  20
ENDBRANCH   1  19
TORSDOF 7
