REMARK  Name = ZINC36017161
REMARK  16 active torsions:
REMARK  status: ('A' for Active; 'I' for Inactive)
REMARK    1  A    between atoms: C_1  and  C_2
REMARK    2  A    between atoms: C_2  and  N_3
REMARK    3  A    between atoms: C_4  and  C_26
REMARK    4  A    between atoms: C_5  and  C_21
REMARK    5  A    between atoms: C_6  and  C_11
REMARK    6  A    between atoms: C_14  and  O_19
REMARK    7  A    between atoms: C_15  and  O_17
REMARK    8  A    between atoms: O_17  and  C_18
REMARK    9  A    between atoms: O_19  and  C_20
REMARK   10  A    between atoms: C_21  and  O_23
REMARK   11  A    between atoms: O_23  and  C_24
REMARK   12  A    between atoms: C_24  and  C_25
REMARK   13  A    between atoms: C_26  and  N_27
REMARK   14  A    between atoms: N_36  and  C_37
REMARK   15  A    between atoms: C_37  and  C_38
REMARK   16  A    between atoms: C_37  and  C_39
REMARK                            x       y       z     vdW  Elec       q    Type
REMARK                         _______ _______ _______ _____ _____    ______ ____
ROOT
ATOM      1  N   UNL     1      -0.540   0.008   0.103  0.00  0.00    -0.261 N 
ATOM      2  C   UNL     1      -1.113  -0.511   1.229  0.00  0.00    +0.010 C 
ATOM      3  C   UNL     1      -2.296  -1.160   1.174  0.00  0.00    +0.076 C 
ATOM      4  C   UNL     1      -2.965  -1.292  -0.180  0.00  0.00    +0.144 C 
ATOM      5  N   UNL     1      -2.265  -0.698  -1.331  0.00  0.00    -0.288 N 
ATOM      6  C   UNL     1      -1.089  -0.075  -1.115  0.00  0.00    +0.307 C 
ATOM      7  O   UNL     1      -0.505   0.422  -2.058  0.00  0.00    -0.252 OA
ATOM      8  H   UNL     1      -2.643  -0.750  -2.223  0.00  0.00    +0.151 HD
ENDROOT
BRANCH   4   9
ATOM      9  C   UNL     1      -4.329  -0.657  -0.088  0.00  0.00    -0.019 A 
ATOM     10  C   UNL     1      -5.458  -1.453  -0.039  0.00  0.00    +0.009 A 
ATOM     11  C   UNL     1      -6.711  -0.876   0.045  0.00  0.00    +0.050 A 
ATOM     12  C   UNL     1      -6.837   0.503   0.082  0.00  0.00    +0.162 A 
ATOM     13  C   UNL     1      -5.701   1.305   0.034  0.00  0.00    +0.162 A 
ATOM     14  C   UNL     1      -4.447   0.719  -0.046  0.00  0.00    +0.055 A 
BRANCH  13  15
ATOM     15  O   UNL     1      -5.819   2.659   0.070  0.00  0.00    -0.491 OA
ATOM     16  C   UNL     1      -4.620   3.420  -0.091  0.00  0.00    +0.277 C 
ENDBRANCH  13  15
BRANCH  12  17
ATOM     17  O   UNL     1      -8.069   1.073   0.164  0.00  0.00    -0.491 OA
ATOM     18  C   UNL     1      -9.191   0.189   0.209  0.00  0.00    +0.277 C 
ENDBRANCH  12  17
ENDBRANCH   4   9
BRANCH   1  20
ATOM     19  C   UNL     1       0.499   2.199   0.423  0.00  0.00    +0.025 C 
ATOM     20  C   UNL     1       0.744   0.700   0.237  0.00  0.00    +0.111 C 
ENDBRANCH   1  20
BRANCH   3  21
ATOM     21  C   UNL     1      -2.890  -1.698   2.339  0.00  0.00    +0.339 C 
ATOM     22  O   UNL     1      -2.377  -1.510   3.426  0.00  0.00    -0.245 OA
BRANCH  21  23
ATOM     23  O   UNL     1      -4.026  -2.421   2.245  0.00  0.00    -0.462 OA
BRANCH  23  24
ATOM     24  C   UNL     1      -4.631  -2.841   3.469  0.00  0.00    +0.229 C 
ATOM     25  C   UNL     1      -5.827  -3.745   3.163  0.00  0.00    +0.048 C 
ENDBRANCH  23  24
ENDBRANCH  21  23
ENDBRANCH   3  21
BRANCH   2  26
ATOM     26  C   UNL     1      -0.414  -0.357   2.555  0.00  0.00    -0.026 C 
BRANCH  26  27
ATOM     27  N   UNL     1       0.294  -1.602   2.883  0.00  0.00    +0.384 N 
ATOM     28  C   UNL     1       0.731  -1.531   4.276  0.00  0.00    -0.077 C 
ATOM     29  C   UNL     1       0.785  -2.927   4.854  0.00  0.00    +0.000 C 
ATOM     30  C   UNL     1       2.210  -3.490   4.700  0.00  0.00    +0.107 C 
ATOM     31  N   UNL     1       2.790  -3.119   3.393  0.00  0.00    -0.287 N 
ATOM     32  C   UNL     1       2.020  -3.152   2.167  0.00  0.00    +0.091 C 
ATOM     33  C   UNL     1       1.331  -1.786   1.942  0.00  0.00    -0.059 C 
ATOM     34  C   UNL     1       4.080  -2.735   3.340  0.00  0.00    +0.302 C 
ATOM     35  O   UNL     1       4.771  -2.785   4.340  0.00  0.00    -0.253 OA
ATOM     36  N   UNL     1       4.606  -2.297   2.179  0.00  0.00    -0.297 N 
ATOM     37  H   UNL     1       4.078  -2.325   1.366  0.00  0.00    +0.150 HD
ATOM     38  H   UNL     1      -0.356  -2.369   2.795  0.00  0.00    -0.081 HD
BRANCH  36  39
ATOM     39  C   UNL     1       5.976  -1.777   2.145  0.00  0.00    +0.068 C 
ATOM     40  C   UNL     1       6.545  -1.933   0.734  0.00  0.00    +0.027 C 
ATOM     41  C   UNL     1       5.969  -0.297   2.532  0.00  0.00    +0.027 C 
ENDBRANCH  36  39
ENDBRANCH  26  27
ENDBRANCH   2  26
TORSDOF 10
