REMARK  Name = ZINC16429692
REMARK  9 active torsions:
REMARK  status: ('A' for Active; 'I' for Inactive)
REMARK    1  A    between atoms: C_3  and  N_26
REMARK    2  A    between atoms: C_6  and  C_7
REMARK    3  A    between atoms: C_11  and  N_16
REMARK    4  A    between atoms: C_17  and  C_18
REMARK    5  A    between atoms: C_21  and  O_25
REMARK    6  A    between atoms: C_23  and  O_24
REMARK    7  A    between atoms: C_27  and  C_28
REMARK    8  A    between atoms: C_31  and  O_35
REMARK    9  A    between atoms: C_33  and  O_34
REMARK                            x       y       z     vdW  Elec       q    Type
REMARK                         _______ _______ _______ _____ _____    ______ ____
ROOT
ATOM      1  C   UNL     1      -6.629   6.092  -0.167  0.00  0.00    +0.228 A 
ATOM      2  N   UNL     1      -7.739   6.024  -0.859  0.00  0.00    -0.209 NA
ATOM      3  C   UNL     1      -8.255   4.773  -0.736  0.00  0.00    +0.112 A 
ATOM      4  C   UNL     1      -9.394   4.150  -1.245  0.00  0.00    +0.059 A 
ATOM      5  C   UNL     1      -9.651   2.820  -0.925  0.00  0.00    +0.066 A 
ATOM      6  C   UNL     1      -8.772   2.116  -0.092  0.00  0.00    +0.031 A 
ATOM      7  C   UNL     1      -7.645   2.729   0.407  0.00  0.00    +0.050 A 
ATOM      8  C   UNL     1      -7.377   4.055   0.095  0.00  0.00    +0.156 A 
ATOM      9  O   UNL     1      -6.382   4.908   0.426  0.00  0.00    -0.435 OA
ENDROOT
BRANCH   1  15
ATOM     10  C   UNL     1      -6.129   8.466  -0.719  0.00  0.00    +0.015 A 
ATOM     11  C   UNL     1      -5.341   9.577  -0.610  0.00  0.00    +0.028 A 
ATOM     12  C   UNL     1      -4.175   9.534   0.161  0.00  0.00    +0.064 A 
ATOM     13  C   UNL     1      -3.818   8.355   0.824  0.00  0.00    +0.028 A 
ATOM     14  C   UNL     1      -4.610   7.246   0.718  0.00  0.00    +0.015 A 
ATOM     15  C   UNL     1      -5.775   7.290  -0.052  0.00  0.00    +0.037 A 
BRANCH  12  16
ATOM     16  N   UNL     1      -3.384  10.642   0.265  0.00  0.00    -0.255 NA
ATOM     17  C   UNL     1      -2.703  11.059  -0.769  0.00  0.00    +0.123 C 
BRANCH  17  18
ATOM     18  C   UNL     1      -2.596  10.215  -1.965  0.00  0.00    +0.035 A 
ATOM     19  C   UNL     1      -2.566   8.821  -1.842  0.00  0.00    +0.016 A 
ATOM     20  C   UNL     1      -2.466   8.034  -2.966  0.00  0.00    +0.046 A 
ATOM     21  C   UNL     1      -2.394   8.619  -4.227  0.00  0.00    +0.120 A 
ATOM     22  C   UNL     1      -2.423   9.999  -4.361  0.00  0.00    +0.091 A 
ATOM     23  C   UNL     1      -2.528  10.803  -3.239  0.00  0.00    +0.129 A 
BRANCH  23  24
ATOM     24  O   UNL     1      -2.562  12.153  -3.369  0.00  0.00    -0.506 OA
ATOM     25  H   UNL     1      -1.688  12.565  -3.425  0.00  0.00    +0.292 HD
ENDBRANCH  23  24
BRANCH  21  26
ATOM     26  O   UNL     1      -2.296   7.835  -5.330  0.00  0.00    -0.507 OA
ATOM     27  H   UNL     1      -3.148   7.583  -5.711  0.00  0.00    +0.292 HD
ENDBRANCH  21  26
ENDBRANCH  17  18
ENDBRANCH  12  16
ENDBRANCH   1  15
BRANCH   5  28
ATOM     28  N   UNL     1     -10.767   2.201  -1.420  0.00  0.00    -0.255 NA
ATOM     29  C   UNL     1     -10.650   1.102  -2.112  0.00  0.00    +0.123 C 
BRANCH  29  30
ATOM     30  C   UNL     1      -9.322   0.636  -2.532  0.00  0.00    +0.035 A 
ATOM     31  C   UNL     1      -8.284   1.555  -2.728  0.00  0.00    +0.016 A 
ATOM     32  C   UNL     1      -7.042   1.114  -3.121  0.00  0.00    +0.046 A 
ATOM     33  C   UNL     1      -6.812  -0.243  -3.325  0.00  0.00    +0.120 A 
ATOM     34  C   UNL     1      -7.833  -1.163  -3.134  0.00  0.00    +0.091 A 
ATOM     35  C   UNL     1      -9.086  -0.734  -2.733  0.00  0.00    +0.129 A 
BRANCH  35  36
ATOM     36  O   UNL     1     -10.084  -1.632  -2.540  0.00  0.00    -0.506 OA
ATOM     37  H   UNL     1     -10.563  -1.867  -3.347  0.00  0.00    +0.292 HD
ENDBRANCH  35  36
BRANCH  33  38
ATOM     38  O   UNL     1      -5.582  -0.670  -3.713  0.00  0.00    -0.507 OA
ATOM     39  H   UNL     1      -4.990  -0.881  -2.978  0.00  0.00    +0.292 HD
ENDBRANCH  33  38
ENDBRANCH  29  30
ENDBRANCH   5  28
TORSDOF 9
