REMARK  Name = ZINC22502902
REMARK  8 active torsions:
REMARK  status: ('A' for Active; 'I' for Inactive)
REMARK    1  A    between atoms: C_1  and  C_2
REMARK    2  A    between atoms: C_2  and  C_3
REMARK    3  A    between atoms: C_12  and  N_15
REMARK    4  A    between atoms: N_18  and  C_19
REMARK    5  A    between atoms: C_21  and  O_27
REMARK    6  A    between atoms: C_23  and  O_25
REMARK    7  A    between atoms: O_25  and  C_26
REMARK    8  A    between atoms: O_27  and  C_28
REMARK                            x       y       z     vdW  Elec       q    Type
REMARK                         _______ _______ _______ _____ _____    ______ ____
ROOT
ATOM      1  N   UNL     1       4.647   4.146  -0.311  0.00  0.00    -0.269 N 
ATOM      2  C   UNL     1       3.699   3.445   0.343  0.00  0.00    +0.308 C 
ATOM      3  O   UNL     1       2.781   4.027   0.889  0.00  0.00    -0.252 OA
ATOM      4  N   UNL     1       3.768   2.100   0.390  0.00  0.00    -0.269 N 
ATOM      5  H   UNL     1       5.435   3.618  -0.868  0.00  0.00    +0.156 HD
ATOM      6  H   UNL     1       4.636   1.578  -0.038  0.00  0.00    +0.156 HD
ENDROOT
BRANCH   1  16
ATOM      7  C   UNL     1       8.170   7.700   0.057  0.00  0.00    +0.220 C 
ATOM      8  O   UNL     1       8.173   6.497   0.209  0.00  0.00    -0.275 OA
ATOM      9  N   UNL     1       7.014   8.343  -0.205  0.00  0.00    -0.271 N 
ATOM     10  C   UNL     1       7.007   9.788  -0.470  0.00  0.00    +0.114 C 
ATOM     11  C   UNL     1       5.848  10.404   0.324  0.00  0.00    +0.024 C 
ATOM     12  C   UNL     1       4.532   9.826  -0.195  0.00  0.00    +0.038 C 
ATOM     13  C   UNL     1       4.590   8.321  -0.221  0.00  0.00    -0.026 A 
ATOM     14  C   UNL     1       5.800   7.644  -0.231  0.00  0.00    +0.041 A 
ATOM     15  C   UNL     1       5.820   6.255  -0.261  0.00  0.00    +0.047 A 
ATOM     16  C   UNL     1       4.630   5.544  -0.280  0.00  0.00    +0.037 A 
ATOM     17  C   UNL     1       3.420   6.226  -0.273  0.00  0.00    +0.024 A 
ATOM     18  C   UNL     1       3.403   7.606  -0.238  0.00  0.00    +0.007 A 
BRANCH   7  20
ATOM     19  C   UNL     1      10.609   7.516   0.464  0.00  0.00    +0.013 C 
ATOM     20  C   UNL     1       9.457   8.476   0.162  0.00  0.00    +0.093 C 
ENDBRANCH   7  20
ENDBRANCH   1  16
BRANCH   4  21
ATOM     21  C   UNL     1       2.734   1.367   0.985  0.00  0.00    +0.042 A 
ATOM     22  C   UNL     1       2.068   1.878   2.091  0.00  0.00    +0.069 A 
ATOM     23  C   UNL     1       1.045   1.151   2.680  0.00  0.00    +0.125 A 
ATOM     24  C   UNL     1       0.686  -0.085   2.164  0.00  0.00    +0.091 A 
ATOM     25  C   UNL     1       1.351  -0.596   1.059  0.00  0.00    +0.125 A 
ATOM     26  C   UNL     1       2.375   0.130   0.469  0.00  0.00    +0.069 A 
BRANCH  25  27
ATOM     27  O   UNL     1       0.999  -1.807   0.554  0.00  0.00    -0.495 OA
ATOM     28  C   UNL     1      -0.065  -2.500   1.212  0.00  0.00    +0.277 C 
ENDBRANCH  25  27
BRANCH  23  29
ATOM     29  O   UNL     1       0.389   1.653   3.759  0.00  0.00    -0.495 OA
ATOM     30  C   UNL     1      -0.658   0.854   4.311  0.00  0.00    +0.277 C 
ENDBRANCH  23  29
ENDBRANCH   4  21
TORSDOF 5
