REMARK  Name = ZINC00629569
REMARK  5 active torsions:
REMARK  status: ('A' for Active; 'I' for Inactive)
REMARK    1  A    between atoms: C_1  and  C_2
REMARK    2  A    between atoms: N_5  and  C_7
REMARK    3  A    between atoms: C_14  and  N_28
REMARK    4  A    between atoms: C_15  and  C_26
REMARK    5  A    between atoms: C_16  and  C_18
REMARK                            x       y       z     vdW  Elec       q    Type
REMARK                         _______ _______ _______ _____ _____    ______ ____
ROOT
ATOM      1  C   UNL     1      -4.766   2.522  -0.900  0.00  0.00    +0.068 C 
ATOM      2  C   UNL     1      -3.348   2.565  -0.392  0.00  0.00    +0.068 A 
ATOM      3  C   UNL     1      -2.800   3.559   0.408  0.00  0.00    +0.050 A 
ATOM      4  C   UNL     1      -1.494   3.236   0.652  0.00  0.00    +0.230 A 
ATOM      5  N   UNL     1      -1.239   2.070   0.019  0.00  0.00    -0.200 N 
ATOM      6  N   UNL     1      -2.417   1.672  -0.633  0.00  0.00    -0.168 NA
ATOM      7  O   UNL     1      -0.677   4.008   1.410  0.00  0.00    -0.423 OA
ATOM      8  C   UNL     1      -1.248   4.977   2.155  0.00  0.00    +0.200 C 
ATOM      9  C   UNL     1      -2.524   5.392   1.998  0.00  0.00    +0.098 C 
ATOM     10  C   UNL     1      -3.444   4.806   0.957  0.00  0.00    +0.101 C 
ENDROOT
BRANCH  10  11
ATOM     11  C   UNL     1      -3.655   5.801  -0.155  0.00  0.00    -0.033 A 
ATOM     12  C   UNL     1      -4.931   6.238  -0.459  0.00  0.00    +0.006 A 
ATOM     13  C   UNL     1      -5.125   7.151  -1.478  0.00  0.00    +0.022 A 
ATOM     14  C   UNL     1      -4.043   7.628  -2.195  0.00  0.00    +0.059 A 
ATOM     15  C   UNL     1      -2.765   7.190  -1.891  0.00  0.00    +0.060 A 
ATOM     16  C   UNL     1      -2.572   6.281  -0.867  0.00  0.00    +0.026 A 
ATOM     17 CL   UNL     1      -1.406   7.788  -2.791  0.00  0.00    -0.082 Cl
ATOM     18 CL   UNL     1      -4.287   8.774  -3.476  0.00  0.00    -0.082 Cl
ENDBRANCH  10  11
BRANCH   5  19
ATOM     19  C   UNL     1      -0.017   1.384   0.010  0.00  0.00    +0.069 A 
ATOM     20  C   UNL     1       1.178   2.092   0.002  0.00  0.00    +0.028 A 
ATOM     21  C   UNL     1       2.381   1.413  -0.013  0.00  0.00    +0.002 A 
ATOM     22  C   UNL     1       2.396   0.031  -0.021  0.00  0.00    +0.000 A 
ATOM     23  C   UNL     1       1.208  -0.677  -0.013  0.00  0.00    +0.002 A 
ATOM     24  C   UNL     1       0.002  -0.004   0.002  0.00  0.00    +0.028 A 
ENDBRANCH   5  19
BRANCH   8  25
ATOM     25  N   UNL     1      -0.487   5.577   3.128  0.00  0.00    -0.328 N 
ATOM     26  H   UNL     1      -0.870   6.277   3.680  0.00  0.00    +0.145 HD
ATOM     27  H   UNL     1       0.432   5.300   3.264  0.00  0.00    +0.145 HD
ENDBRANCH   8  25
BRANCH   9  28
ATOM     28  C   UNL     1      -3.022   6.428   2.853  0.00  0.00    +0.101 C 
ATOM     29  N   UNL     1      -3.417   7.249   3.531  0.00  0.00    -0.191 NA
ENDBRANCH   9  28
TORSDOF 4
