REMARK  Name = ZINC19724148
REMARK  3 active torsions:
REMARK  status: ('A' for Active; 'I' for Inactive)
REMARK    1  A    between atoms: C_4  and  N_8
REMARK    2  A    between atoms: C_10  and  C_16
REMARK    3  A    between atoms: C_16  and  N_17
REMARK                            x       y       z     vdW  Elec       q    Type
REMARK                         _______ _______ _______ _____ _____    ______ ____
ROOT
ATOM      1  N   UNL     1       1.163   3.485   0.009  0.00  0.00    -0.226 N 
ATOM      2  C   UNL     1       1.250   4.387  -1.151  0.00  0.00    +0.106 C 
ATOM      3  C   UNL     1       0.688   5.761  -0.764  0.00  0.00    -0.096 C 
ATOM      4  N   UNL     1       1.036   6.016   0.648  0.00  0.00    +0.481 NA
ATOM      5  S   UNL     1       1.049   4.493   1.337  0.00  0.00    -0.011 S 
ATOM      6  O   UNL     1      -0.231   4.282   1.918  0.00  0.00    -0.177 OA
ATOM      7  O   UNL     1       2.263   4.370   2.065  0.00  0.00    -0.177 OA
ENDROOT
BRANCH   1  11
ATOM      8  C   UNL     1       1.208  -0.681  -0.014  0.00  0.00    +0.021 A 
ATOM      9  C   UNL     1       0.002  -0.004   0.002  0.00  0.00    +0.023 A 
ATOM     10  C   UNL     1      -0.017   1.377   0.010  0.00  0.00    +0.064 A 
ATOM     11  C   UNL     1       1.179   2.088   0.002  0.00  0.00    +0.069 A 
ATOM     12  C   UNL     1       2.388   1.405  -0.014  0.00  0.00    +0.046 A 
ATOM     13  C   UNL     1       2.400   0.023  -0.022  0.00  0.00    +0.043 A 
ATOM     14 CL   UNL     1       3.911  -0.831  -0.041  0.00  0.00    -0.083 Cl
ATOM     15 CL   UNL     1      -1.531   2.226   0.021  0.00  0.00    -0.082 Cl
ENDBRANCH   1  11
BRANCH   3  16
ATOM     16  C   UNL     1      -0.833   5.768  -0.931  0.00  0.00    -0.106 C 
BRANCH  16  17
ATOM     17  N   UNL     1      -1.373   7.046  -0.448  0.00  0.00    +0.377 N 
ATOM     18  H   UNL     1      -2.466   7.051  -0.568  0.00  0.00    -0.090 HD
ATOM     19  H   UNL     1      -0.936   7.871  -1.030  0.00  0.00    -0.090 HD
ATOM     20  H   UNL     1      -1.120   7.173   0.615  0.00  0.00    -0.090 HD
ENDBRANCH  16  17
ENDBRANCH   3  16
TORSDOF 3
