REMARK  Name = ZINC04961466
REMARK  4 active torsions:
REMARK  status: ('A' for Active; 'I' for Inactive)
REMARK    1  A    between atoms: C_1  and  C_2
REMARK    2  A    between atoms: C_3  and  C_12
REMARK    3  A    between atoms: N_15  and  S_18
REMARK    4  A    between atoms: S_18  and  C_21
REMARK                            x       y       z     vdW  Elec       q    Type
REMARK                         _______ _______ _______ _____ _____    ______ ____
ROOT
ATOM      1  C   UNL     1      -1.670   2.478   1.221  0.00  0.00    -0.039 C 
ATOM      2  C   UNL     1      -0.719   1.572   1.243  0.00  0.00    -0.006 C 
ATOM      3  C   UNL     1      -0.013   1.086   0.008  0.00  0.00    +0.137 C 
ATOM      4  N   UNL     1      -0.726   1.574  -1.181  0.00  0.00    -0.173 NA
ATOM      5  C   UNL     1      -1.183   2.974  -1.168  0.00  0.00    +0.114 C 
ATOM      6  C   UNL     1      -2.188   3.133  -0.025  0.00  0.00    +0.052 C 
ENDROOT
BRANCH   1   9
ATOM      7  C   UNL     1      -4.144   1.159   2.562  0.00  0.00    +0.064 C 
ATOM      8  C   UNL     1      -3.349   2.315   3.111  0.00  0.00    +0.021 A 
ATOM      9  C   UNL     1      -2.269   2.877   2.510  0.00  0.00    +0.006 A 
ATOM     10  C   UNL     1      -1.817   3.968   3.390  0.00  0.00    +0.007 A 
ATOM     11  C   UNL     1      -0.781   4.899   3.323  0.00  0.00    +0.010 A 
ATOM     12  C   UNL     1      -0.620   5.809   4.330  0.00  0.00    +0.001 A 
ATOM     13  C   UNL     1      -1.480   5.813   5.419  0.00  0.00    +0.002 A 
ATOM     14  C   UNL     1      -2.510   4.902   5.504  0.00  0.00    +0.026 A 
ATOM     15  C   UNL     1      -2.691   3.967   4.489  0.00  0.00    +0.047 A 
ATOM     16  N   UNL     1      -3.603   2.953   4.291  0.00  0.00    -0.358 N 
ATOM     17  H   UNL     1      -4.324   2.727   4.900  0.00  0.00    +0.166 HD
ENDBRANCH   1   9
BRANCH   4  18
ATOM     18  S   UNL     1      -1.006   0.589  -2.482  0.00  0.00    +0.061 S 
ATOM     19  O   UNL     1      -1.175   1.440  -3.607  0.00  0.00    -0.153 OA
ATOM     20  O   UNL     1      -0.017  -0.430  -2.440  0.00  0.00    -0.153 OA
BRANCH  18  21
ATOM     21  C   UNL     1      -2.557  -0.203  -2.212  0.00  0.00    +0.105 A 
ATOM     22  C   UNL     1      -2.607  -1.416  -1.550  0.00  0.00    +0.028 A 
ATOM     23  C   UNL     1      -3.824  -2.035  -1.334  0.00  0.00    +0.002 A 
ATOM     24  C   UNL     1      -4.989  -1.447  -1.788  0.00  0.00    +0.000 A 
ATOM     25  C   UNL     1      -4.938  -0.237  -2.455  0.00  0.00    +0.002 A 
ATOM     26  C   UNL     1      -3.722   0.385  -2.667  0.00  0.00    +0.028 A 
ENDBRANCH  18  21
ENDBRANCH   4  18
TORSDOF 3
