REMARK  Name = ZINC40783120
REMARK  8 active torsions:
REMARK  status: ('A' for Active; 'I' for Inactive)
REMARK    1  A    between atoms: C_1  and  C_2
REMARK    2  A    between atoms: C_4  and  O_10
REMARK    3  A    between atoms: C_6  and  C_9
REMARK    4  A    between atoms: O_10  and  C_11
REMARK    5  A    between atoms: C_12  and  N_25
REMARK    6  A    between atoms: C_13  and  N_17
REMARK    7  A    between atoms: C_20  and  C_24
REMARK    8  A    between atoms: C_21  and  C_23
REMARK                            x       y       z     vdW  Elec       q    Type
REMARK                         _______ _______ _______ _____ _____    ______ ____
ROOT
ATOM      1  C   UNL     1       0.152  -4.100  -2.347  0.00  0.00    +0.246 A 
ATOM      2  C   UNL     1       0.271  -4.834  -3.526  0.00  0.00    +0.128 A 
ATOM      3  C   UNL     1       0.396  -6.222  -3.430  0.00  0.00    +0.152 A 
ATOM      4  N   UNL     1       0.395  -6.787  -2.225  0.00  0.00    -0.218 NA
ATOM      5  C   UNL     1       0.280  -6.055  -1.136  0.00  0.00    +0.227 A 
ATOM      6  N   UNL     1       0.166  -4.743  -1.183  0.00  0.00    -0.199 NA
ENDROOT
BRANCH   3   7
ATOM      7  N   UNL     1       0.518  -7.001  -4.575  0.00  0.00    -0.277 N 
ATOM      8  C   UNL     1       0.640  -8.379  -4.467  0.00  0.00    +0.164 A 
ATOM      9  N   UNL     1       0.655  -9.116  -3.377  0.00  0.00    -0.230 NA
ATOM     10  C   UNL     1       0.780 -10.429  -3.442  0.00  0.00    +0.050 A 
ATOM     11  C   UNL     1       0.891 -10.976  -4.677  0.00  0.00    +0.011 A 
ATOM     12  S   UNL     1       0.799  -9.515  -5.699  0.00  0.00    -0.057 S 
ATOM     13  C   UNL     1       1.046 -12.421  -5.078  0.00  0.00    +0.053 C 
ATOM     14  C   UNL     1       0.799 -11.281  -2.200  0.00  0.00    +0.066 C 
ATOM     15  H   UNL     1       0.517  -6.582  -5.450  0.00  0.00    +0.156 HD
ENDBRANCH   3   7
BRANCH   2  16
ATOM     16  N   UNL     1       0.267  -4.195  -4.776  0.00  0.00    -0.351 N 
ATOM     17  H   UNL     1       0.179  -3.231  -4.827  0.00  0.00    +0.143 HD
ATOM     18  H   UNL     1       0.351  -4.719  -5.588  0.00  0.00    +0.143 HD
ENDBRANCH   2  16
BRANCH   1  19
ATOM     19  O   UNL     1       0.028  -2.749  -2.385  0.00  0.00    -0.436 OA
BRANCH  19  23
ATOM     20  C   UNL     1       2.493  -0.952   1.425  0.00  0.00    +0.045 C 
ATOM     21  C   UNL     1       1.203  -1.180   0.679  0.00  0.00    -0.028 A 
ATOM     22  C   UNL     1       1.211  -1.866  -0.520  0.00  0.00    +0.051 A 
ATOM     23  C   UNL     1       0.023  -2.075  -1.205  0.00  0.00    +0.131 A 
ATOM     24  C   UNL     1      -1.170  -1.595  -0.685  0.00  0.00    +0.051 A 
ATOM     25  C   UNL     1      -1.173  -0.910   0.514  0.00  0.00    -0.028 A 
ATOM     26  C   UNL     1       0.011  -0.706   1.199  0.00  0.00    +0.047 A 
ATOM     27 CL   UNL     1       0.004   0.149   2.710  0.00  0.00    -0.083 Cl
ATOM     28  C   UNL     1      -2.469  -0.388   1.080  0.00  0.00    +0.045 C 
ENDBRANCH  19  23
ENDBRANCH   1  19
TORSDOF 4
