REMARK  Name = ZINC67643696
REMARK  3 active torsions:
REMARK  status: ('A' for Active; 'I' for Inactive)
REMARK    1  A    between atoms: C_3  and  C_27
REMARK    2  A    between atoms: C_11  and  C_14
REMARK    3  A    between atoms: C_15  and  C_20
REMARK                            x       y       z     vdW  Elec       q    Type
REMARK                         _______ _______ _______ _____ _____    ______ ____
ROOT
ATOM      1  C   UNL     1       0.007   1.406  -0.132  0.00  0.00    +0.021 A 
ATOM      2  C   UNL     1       0.681   1.013  -1.275  0.00  0.00    +0.018 A 
ATOM      3  C   UNL     1       1.856   0.267  -1.131  0.00  0.00    +0.076 A 
ATOM      4  C   UNL     1       2.301  -0.051   0.164  0.00  0.00    +0.133 A 
ATOM      5  N   UNL     1       1.617   0.351   1.224  0.00  0.00    -0.240 NA
ATOM      6  C   UNL     1       0.507   1.055   1.109  0.00  0.00    +0.113 A 
ATOM      7  N   UNL     1       3.459  -0.787   0.332  0.00  0.00    -0.314 N 
ATOM      8  C   UNL     1       4.747  -0.116   0.557  0.00  0.00    +0.106 C 
ATOM      9  C   UNL     1       5.384  -0.686   1.828  0.00  0.00    +0.020 C 
ATOM     10  C   UNL     1       5.482  -2.208   1.707  0.00  0.00    +0.013 C 
ATOM     11  C   UNL     1       4.078  -2.801   1.563  0.00  0.00    +0.055 C 
ATOM     12  C   UNL     1       3.425  -2.255   0.295  0.00  0.00    +0.116 C 
ENDROOT
BRANCH  11  13
ATOM     13  C   UNL     1       4.173  -4.303   1.477  0.00  0.00    +0.048 A 
ATOM     14  C   UNL     1       3.598  -5.196   2.333  0.00  0.00    +0.023 A 
ATOM     15  C   UNL     1       3.937  -6.489   1.888  0.00  0.00    +0.143 A 
ATOM     16  N   UNL     1       4.677  -6.369   0.818  0.00  0.00    -0.181 NA
ATOM     17  N   UNL     1       4.835  -5.006   0.537  0.00  0.00    -0.281 N 
ATOM     18  H   UNL     1       5.336  -4.633  -0.205  0.00  0.00    +0.189 HD
BRANCH  14  19
ATOM     19  C   UNL     1       2.768  -4.866   3.519  0.00  0.00    -0.015 A 
ATOM     20  C   UNL     1       3.220  -3.934   4.451  0.00  0.00    +0.011 A 
ATOM     21  C   UNL     1       2.445  -3.630   5.551  0.00  0.00    +0.039 A 
ATOM     22  C   UNL     1       1.219  -4.250   5.730  0.00  0.00    +0.123 A 
ATOM     23  C   UNL     1       0.766  -5.177   4.806  0.00  0.00    +0.039 A 
ATOM     24  C   UNL     1       1.532  -5.483   3.700  0.00  0.00    +0.011 A 
ATOM     25  F   UNL     1       0.464  -3.950   6.809  0.00  0.00    -0.205 F 
ENDBRANCH  14  19
ENDBRANCH  11  13
BRANCH   3  26
ATOM     26  C   UNL     1       2.613  -0.178  -2.315  0.00  0.00    +0.245 C 
ATOM     27  O   UNL     1       3.684  -0.737  -2.177  0.00  0.00    -0.270 OA
ATOM     28  N   UNL     1       2.118   0.034  -3.550  0.00  0.00    -0.325 N 
ATOM     29  H   UNL     1       1.263   0.479  -3.660  0.00  0.00    +0.145 HD
ATOM     30  H   UNL     1       2.616  -0.259  -4.329  0.00  0.00    +0.145 HD
ENDBRANCH   3  26
TORSDOF 3
