REMARK  Name = ZINC06855632
REMARK  10 active torsions:
REMARK  status: ('A' for Active; 'I' for Inactive)
REMARK    1  A    between atoms: C_1  and  C_2
REMARK    2  A    between atoms: C_2  and  C_3
REMARK    3  A    between atoms: C_2  and  N_4
REMARK    4  A    between atoms: C_11  and  C_23
REMARK    5  A    between atoms: C_13  and  C_19
REMARK    6  A    between atoms: C_13  and  C_21
REMARK    7  A    between atoms: C_14  and  N_18
REMARK    8  A    between atoms: C_15  and  C_16
REMARK    9  A    between atoms: C_26  and  O_29
REMARK   10  A    between atoms: O_29  and  C_30
REMARK                            x       y       z     vdW  Elec       q    Type
REMARK                         _______ _______ _______ _____ _____    ______ ____
ROOT
ATOM      1  N   UNL     1      -1.401  -0.265   0.501  0.00  0.00    -0.296 NA
ATOM      2  C   UNL     1      -2.084   0.355  -0.649  0.00  0.00    +0.112 C 
ATOM      3  C   UNL     1      -3.502  -0.159  -0.668  0.00  0.00    -0.006 C 
ATOM      4  C   UNL     1      -3.764  -1.386  -0.258  0.00  0.00    -0.026 C 
ATOM      5  C   UNL     1      -2.696  -2.343   0.189  0.00  0.00    +0.044 C 
ATOM      6  C   UNL     1      -1.327  -1.717   0.322  0.00  0.00    +0.094 C 
ATOM      7  C   UNL     1      -3.160  -2.998   1.492  0.00  0.00    +0.067 C 
ATOM      8  C   UNL     1      -4.429  -3.806   1.215  0.00  0.00    +0.188 C 
ATOM      9  C   UNL     1      -5.456  -2.998   0.482  0.00  0.00    +0.054 C 
ATOM     10  C   UNL     1      -5.165  -1.873  -0.220  0.00  0.00    +0.074 C 
ENDROOT
BRANCH   7  11
ATOM     11  C   UNL     1      -2.080  -3.911   2.010  0.00  0.00    -0.041 A 
ATOM     12  C   UNL     1      -1.754  -3.900   3.354  0.00  0.00    +0.007 A 
ATOM     13  C   UNL     1      -0.763  -4.736   3.832  0.00  0.00    +0.046 A 
ATOM     14  C   UNL     1      -0.096  -5.587   2.963  0.00  0.00    +0.120 A 
ATOM     15  C   UNL     1      -0.426  -5.596   1.616  0.00  0.00    +0.046 A 
ATOM     16  C   UNL     1      -1.421  -4.762   1.143  0.00  0.00    +0.007 A 
BRANCH  14  17
ATOM     17  O   UNL     1       0.879  -6.410   3.431  0.00  0.00    -0.495 OA
ATOM     18  C   UNL     1       1.523  -7.259   2.479  0.00  0.00    +0.277 C 
ENDBRANCH  14  17
ENDBRANCH   7  11
BRANCH   1  20
ATOM     19  C   UNL     1      -0.180   1.825   0.874  0.00  0.00    +0.024 C 
ATOM     20  C   UNL     1      -0.063   0.311   0.691  0.00  0.00    +0.051 C 
ATOM     21  C   UNL     1       0.585  -0.304   1.934  0.00  0.00    +0.024 C 
ENDBRANCH   1  20
BRANCH   9  22
ATOM     22  N   UNL     1      -6.757  -3.415   0.524  0.00  0.00    -0.358 N 
ATOM     23  H   UNL     1      -6.994  -4.216   1.018  0.00  0.00    +0.142 HD
ATOM     24  H   UNL     1      -7.443  -2.912   0.059  0.00  0.00    +0.142 HD
ENDBRANCH   9  22
BRANCH  10  25
ATOM     25  C   UNL     1      -6.198  -1.165  -0.916  0.00  0.00    +0.101 C 
ATOM     26  N   UNL     1      -7.017  -0.604  -1.468  0.00  0.00    -0.191 NA
ENDBRANCH  10  25
BRANCH   8  27
ATOM     27  C   UNL     1      -4.997  -4.258   2.495  0.00  0.00    +0.091 C 
ATOM     28  N   UNL     1      -5.436  -4.608   3.483  0.00  0.00    -0.194 NA
ENDBRANCH   8  27
BRANCH   8  29
ATOM     29  C   UNL     1      -4.079  -4.984   0.405  0.00  0.00    +0.091 C 
ATOM     30  N   UNL     1      -3.809  -5.894  -0.221  0.00  0.00    -0.194 NA
ENDBRANCH   8  29
TORSDOF 7
