REMARK  Name = ZINC03887465
REMARK  4 active torsions:
REMARK  status: ('A' for Active; 'I' for Inactive)
REMARK    1  A    between atoms: C_3  and  N_17
REMARK    2  A    between atoms: C_4  and  N_16
REMARK    3  A    between atoms: C_6  and  S_7
REMARK    4  A    between atoms: S_7  and  N_10
REMARK                            x       y       z     vdW  Elec       q    Type
REMARK                         _______ _______ _______ _____ _____    ______ ____
ROOT
ATOM      1  C   UNL     1       3.490  -2.335  -0.769  0.00  0.00    +0.030 A 
ATOM      2  C   UNL     1       3.925  -2.644  -2.045  0.00  0.00    +0.027 A 
ATOM      3  C   UNL     1       4.848  -1.827  -2.679  0.00  0.00    +0.051 A 
ATOM      4  C   UNL     1       5.332  -0.691  -2.029  0.00  0.00    +0.048 A 
ATOM      5  C   UNL     1       4.887  -0.387  -0.751  0.00  0.00    +0.053 A 
ATOM      6  C   UNL     1       3.966  -1.208  -0.126  0.00  0.00    +0.107 A 
ENDROOT
BRANCH   3   7
ATOM      7  N   UNL     1       5.294  -2.140  -3.969  0.00  0.00    -0.328 N 
ATOM      8  C   UNL     1       4.174  -2.118  -4.937  0.00  0.00    +0.105 C 
ATOM      9  C   UNL     1       4.545  -2.708  -6.271  0.00  0.00    +0.019 C 
ATOM     10  C   UNL     1       4.150  -4.199  -6.273  0.00  0.00    +0.002 C 
ATOM     11  C   UNL     1       5.113  -5.025  -5.552  0.00  0.00    +0.002 C 
ATOM     12  C   UNL     1       5.226  -4.623  -4.066  0.00  0.00    +0.019 C 
ATOM     13  C   UNL     1       6.084  -3.392  -3.968  0.00  0.00    +0.105 C 
ENDBRANCH   3   7
BRANCH   6  14
ATOM     14  S   UNL     1       3.402  -0.819   1.497  0.00  0.00    +0.061 S 
ATOM     15  O   UNL     1       4.411  -0.017   2.096  0.00  0.00    -0.153 OA
ATOM     16  O   UNL     1       2.955  -2.038   2.075  0.00  0.00    -0.153 OA
BRANCH  14  17
ATOM     17  N   UNL     1       2.066   0.145   1.334  0.00  0.00    -0.177 NA
ATOM     18  C   UNL     1       0.723  -0.445   1.249  0.00  0.00    +0.109 C 
ATOM     19  C   UNL     1       0.030   0.084  -0.010  0.00  0.00    +0.017 C 
ATOM     20  C   UNL     1       0.043   1.615   0.010  0.00  0.00    +0.003 C 
ATOM     21  C   UNL     1       1.490   2.113   0.011  0.00  0.00    +0.017 C 
ATOM     22  C   UNL     1       2.200   1.607   1.271  0.00  0.00    +0.109 C 
ENDBRANCH  14  17
ENDBRANCH   6  14
BRANCH   4  23
ATOM     23  N   UNL     1       6.264   0.138  -2.664  0.00  0.00    -0.356 N 
ATOM     24  H   UNL     1       6.599   0.927  -2.210  0.00  0.00    +0.142 HD
ATOM     25  H   UNL     1       6.574  -0.076  -3.557  0.00  0.00    +0.142 HD
ENDBRANCH   4  23
TORSDOF 4
