REMARK  Name = ZINC44023237
REMARK  3 active torsions:
REMARK  status: ('A' for Active; 'I' for Inactive)
REMARK    1  A    between atoms: C_4  and  N_8
REMARK    2  A    between atoms: N_8  and  C_9
REMARK    3  A    between atoms: N_13  and  C_18
REMARK                            x       y       z     vdW  Elec       q    Type
REMARK                         _______ _______ _______ _____ _____    ______ ____
ROOT
ATOM      1  C   UNL     1       3.561  -2.022   0.018  0.00  0.00    +0.109 A 
ATOM      2  C   UNL     1       4.707  -2.763   0.092  0.00  0.00    +0.112 A 
ATOM      3  C   UNL     1       4.613  -4.162   0.146  0.00  0.00    +0.259 A 
ATOM      4  O   UNL     1       5.622  -4.843   0.213  0.00  0.00    -0.267 OA
ATOM      5  N   UNL     1       3.400  -4.749   0.125  0.00  0.00    -0.258 N 
ATOM      6  C   UNL     1       2.281  -4.005   0.052  0.00  0.00    +0.331 A 
ATOM      7  O   UNL     1       1.196  -4.554   0.034  0.00  0.00    -0.246 OA
ATOM      8  N   UNL     1       2.344  -2.661   0.004  0.00  0.00    -0.296 N 
ATOM      9  H   UNL     1       1.526  -2.142  -0.045  0.00  0.00    +0.172 HD
ENDROOT
BRANCH   5  10
ATOM     10  C   UNL     1       3.298  -6.209   0.182  0.00  0.00    +0.095 C 
ATOM     11  C   UNL     1       2.590  -6.721  -1.074  0.00  0.00    +0.025 C 
ATOM     12  C   UNL     1       2.484  -8.246  -1.015  0.00  0.00    +0.002 C 
ATOM     13  C   UNL     1       1.683  -8.653   0.223  0.00  0.00    +0.000 C 
ATOM     14  C   UNL     1       2.390  -8.142   1.480  0.00  0.00    +0.002 C 
ATOM     15  C   UNL     1       2.497  -6.617   1.420  0.00  0.00    +0.025 C 
ENDBRANCH   5  10
BRANCH   1  16
ATOM     16  N   UNL     1       3.623  -0.652  -0.036  0.00  0.00    -0.298 N 
ATOM     17  H   UNL     1       4.075  -0.159   0.666  0.00  0.00    +0.154 HD
BRANCH  16  21
ATOM     18  C   UNL     1       1.873   1.393  -3.220  0.00  0.00    +0.041 A 
ATOM     19  C   UNL     1       2.410   2.099  -2.159  0.00  0.00    +0.043 A 
ATOM     20  C   UNL     1       2.992   1.424  -1.102  0.00  0.00    +0.145 A 
ATOM     21  C   UNL     1       3.035   0.034  -1.105  0.00  0.00    +0.071 A 
ATOM     22  C   UNL     1       2.495  -0.672  -2.171  0.00  0.00    +0.064 A 
ATOM     23  C   UNL     1       1.914   0.009  -3.227  0.00  0.00    +0.125 A 
ATOM     24  F   UNL     1       1.388  -0.677  -4.264  0.00  0.00    -0.205 F 
ATOM     25  F   UNL     1       3.517   2.115  -0.066  0.00  0.00    -0.204 F 
ENDBRANCH  16  21
ENDBRANCH   1  16
TORSDOF 3
