REMARK  Name = ZINC62801380
REMARK  6 active torsions:
REMARK  status: ('A' for Active; 'I' for Inactive)
REMARK    1  A    between atoms: C_1  and  C_2
REMARK    2  A    between atoms: C_2  and  C_3
REMARK    3  A    between atoms: C_2  and  N_4
REMARK    4  A    between atoms: C_8  and  S_9
REMARK    5  A    between atoms: S_9  and  C_10
REMARK    6  A    between atoms: C_10  and  C_11
REMARK                            x       y       z     vdW  Elec       q    Type
REMARK                         _______ _______ _______ _____ _____    ______ ____
ROOT
ATOM      1  N   UNL     1      -1.372  -0.511   0.012  0.00  0.00    -0.288 N 
ATOM      2  C   UNL     1      -2.309  -0.271   0.977  0.00  0.00    +0.215 A 
ATOM      3  N   UNL     1      -3.412  -0.891   0.634  0.00  0.00    -0.113 NA
ATOM      4  N   UNL     1      -3.179  -1.548  -0.581  0.00  0.00    -0.121 NA
ATOM      5  C   UNL     1      -1.944  -1.303  -0.944  0.00  0.00    +0.193 A 
ATOM      6  N   UNL     1      -2.126   0.496   2.120  0.00  0.00    -0.328 N 
ATOM      7  H   UNL     1      -1.269   0.918   2.289  0.00  0.00    +0.145 HD
ATOM      8  H   UNL     1      -2.855   0.610   2.750  0.00  0.00    +0.145 HD
ENDROOT
BRANCH   1  10
ATOM      9  C   UNL     1      -0.019   1.526   0.010  0.00  0.00    +0.031 C 
ATOM     10  C   UNL     1       0.002  -0.004   0.002  0.00  0.00    +0.086 C 
ATOM     11  C   UNL     1       0.742  -0.511   1.242  0.00  0.00    +0.031 C 
ENDBRANCH   1  10
BRANCH   5  12
ATOM     12  S   UNL     1      -1.157  -1.893  -2.406  0.00  0.00    -0.080 S 
BRANCH  12  13
ATOM     13  C   UNL     1      -2.442  -2.872  -3.231  0.00  0.00    +0.134 C 
BRANCH  13  14
ATOM     14  C   UNL     1      -1.893  -3.442  -4.514  0.00  0.00    +0.071 A 
ATOM     15  C   UNL     1      -2.005  -2.718  -5.687  0.00  0.00    +0.063 A 
ATOM     16  C   UNL     1      -1.496  -3.252  -6.862  0.00  0.00    +0.025 A 
ATOM     17  C   UNL     1      -0.891  -4.499  -6.813  0.00  0.00    +0.041 A 
ATOM     18  C   UNL     1      -0.816  -5.164  -5.602  0.00  0.00    +0.130 A 
ATOM     19  N   UNL     1      -1.307  -4.623  -4.503  0.00  0.00    -0.238 NA
ATOM     20 CL   UNL     1      -0.062  -6.726  -5.527  0.00  0.00    -0.062 Cl
ATOM     21 CL   UNL     1      -2.773  -1.161  -5.689  0.00  0.00    -0.082 Cl
ENDBRANCH  13  14
ENDBRANCH  12  13
ENDBRANCH   5  12
TORSDOF 4
