REMARK  Name = ZINC12658945
REMARK  7 active torsions:
REMARK  status: ('A' for Active; 'I' for Inactive)
REMARK    1  A    between atoms: C_1  and  C_2
REMARK    2  A    between atoms: C_13  and  O_15
REMARK    3  A    between atoms: N_21  and  O_22
REMARK    4  A    between atoms: O_22  and  C_23
REMARK    5  A    between atoms: C_23  and  C_24
REMARK    6  A    between atoms: N_26  and  C_27
REMARK    7  A    between atoms: C_38  and  C_39
REMARK                            x       y       z     vdW  Elec       q    Type
REMARK                         _______ _______ _______ _____ _____    ______ ____
ROOT
ATOM      1  C   UNL     1       7.047   5.626   1.887  0.00  0.00    +0.014 C 
ATOM      2  C   UNL     1       6.786   5.949   0.414  0.00  0.00    -0.003 C 
ATOM      3  C   UNL     1       5.439   6.630   0.264  0.00  0.00    +0.010 C 
ATOM      4  C   UNL     1       4.391   5.713   0.914  0.00  0.00    +0.005 C 
ATOM      5  C   UNL     1       4.391   4.324   0.282  0.00  0.00    +0.002 C 
ATOM      6  C   UNL     1       5.791   3.689   0.314  0.00  0.00    -0.003 C 
ATOM      7  C   UNL     1       6.731   4.635  -0.411  0.00  0.00    +0.001 C 
ATOM      8  C   UNL     1       8.207   4.222  -0.436  0.00  0.00    +0.007 C 
ATOM      9  C   UNL     1       8.941   5.569  -0.678  0.00  0.00    +0.032 C 
ATOM     10  C   UNL     1       7.988   6.682  -0.175  0.00  0.00    +0.121 C 
ATOM     11  C   UNL     1       5.766   2.334  -0.393  0.00  0.00    +0.008 C 
ATOM     12  C   UNL     1       4.832   1.372   0.349  0.00  0.00    +0.031 C 
ATOM     13  C   UNL     1       3.472   2.046   0.438  0.00  0.00    -0.062 C 
ATOM     14  C   UNL     1       2.408   1.399  -0.007  0.00  0.00    +0.026 C 
ATOM     15  C   UNL     1       1.096   2.075   0.003  0.00  0.00    +0.080 C 
ATOM     16  N   UNL     1      -0.017   1.412   0.010  0.00  0.00    -0.089 NA
ATOM     17  C   UNL     1       1.127   3.591   0.011  0.00  0.00    +0.059 C 
ATOM     18  C   UNL     1       2.047   4.028   1.151  0.00  0.00    +0.017 C 
ATOM     19  C   UNL     1       3.423   3.416   1.042  0.00  0.00    -0.007 C 
ATOM     20  C   UNL     1       3.966   3.290   2.466  0.00  0.00    +0.016 C 
ENDROOT
BRANCH  10  21
ATOM     21  O   UNL     1       7.577   7.511  -1.264  0.00  0.00    -0.391 OA
ATOM     22  H   UNL     1       8.304   7.972  -1.704  0.00  0.00    +0.210 HD
ENDBRANCH  10  21
BRANCH  16  23
ATOM     23  O   UNL     1       0.002  -0.004   0.002  0.00  0.00    -0.384 OA
BRANCH  23  24
ATOM     24  C   UNL     1      -1.295  -0.603   0.011  0.00  0.00    +0.358 C 
BRANCH  24  25
ATOM     25  C   UNL     1      -1.156  -2.103   0.002  0.00  0.00    +0.254 C 
ATOM     26  O   UNL     1      -0.054  -2.610  -0.011  0.00  0.00    -0.272 OA
ATOM     27  N   UNL     1      -2.256  -2.882   0.008  0.00  0.00    -0.301 N 
ATOM     28  H   UNL     1      -3.137  -2.477   0.019  0.00  0.00    +0.150 HD
BRANCH  27  29
ATOM     29  C   UNL     1      -2.120  -4.341  -0.001  0.00  0.00    +0.159 C 
ATOM     30  C   UNL     1      -3.380  -4.971  -0.602  0.00  0.00    +0.032 C 
ATOM     31  C   UNL     1      -3.073  -6.341  -1.179  0.00  0.00    +0.004 C 
ATOM     32  C   UNL     1      -2.696  -7.375  -0.134  0.00  0.00    +0.019 C 
ATOM     33  C   UNL     1      -1.357  -7.028   0.519  0.00  0.00    +0.104 C 
ATOM     34  N   UNL     1      -1.604  -6.111   1.643  0.00  0.00    -0.314 N 
ATOM     35  C   UNL     1      -1.961  -4.846   1.418  0.00  0.00    +0.233 C 
ATOM     36  O   UNL     1      -2.157  -4.098   2.351  0.00  0.00    -0.274 OA
ATOM     37  H   UNL     1      -1.508  -6.429   2.555  0.00  0.00    +0.149 HD
ENDBRANCH  27  29
ENDBRANCH  24  25
ENDBRANCH  23  24
ENDBRANCH  16  23
TORSDOF 5
