REMARK  Name = ZINC08859191
REMARK  11 active torsions:
REMARK  status: ('A' for Active; 'I' for Inactive)
REMARK    1  A    between atoms: C_1  and  C_2
REMARK    2  A    between atoms: C_5  and  C_8
REMARK    3  A    between atoms: C_8  and  C_9
REMARK    4  A    between atoms: N_11  and  C_12
REMARK    5  A    between atoms: C_12  and  C_14
REMARK    6  A    between atoms: C_12  and  N_18
REMARK    7  A    between atoms: N_18  and  C_19
REMARK    8  A    between atoms: C_19  and  N_21
REMARK    9  A    between atoms: N_21  and  C_22
REMARK   10  A    between atoms: C_25  and  N_28
REMARK   11  A    between atoms: C_29  and  C_31
REMARK                            x       y       z     vdW  Elec       q    Type
REMARK                         _______ _______ _______ _____ _____    ______ ____
ROOT
ATOM      1  C   UNL     1      -5.835   7.303  -0.367  0.00  0.00    +0.211 C 
ENDROOT
BRANCH   1   4
ATOM      2  C   UNL     1      -5.227   7.994  -2.623  0.00  0.00    +0.219 C 
ATOM      3  O   UNL     1      -4.072   8.065  -2.259  0.00  0.00    -0.275 OA
ATOM      4  N   UNL     1      -6.186   7.622  -1.753  0.00  0.00    -0.293 N 
ATOM      5  H   UNL     1      -7.110   7.565  -2.044  0.00  0.00    +0.151 HD
BRANCH   2   6
ATOM      6  C   UNL     1      -5.589   8.322  -4.049  0.00  0.00    +0.131 C 
BRANCH   6  11
ATOM      7  C   UNL     1      -0.818   9.793  -6.958  0.00  0.00    +0.044 C 
ATOM      8  C   UNL     1      -2.062   9.409  -6.199  0.00  0.00    -0.050 A 
ATOM      9  C   UNL     1      -2.465   8.088  -6.157  0.00  0.00    +0.003 A 
ATOM     10  C   UNL     1      -3.607   7.736  -5.461  0.00  0.00    +0.004 A 
ATOM     11  C   UNL     1      -4.344   8.706  -4.807  0.00  0.00    -0.039 A 
ATOM     12  C   UNL     1      -3.943  10.028  -4.854  0.00  0.00    +0.004 A 
ATOM     13  C   UNL     1      -2.800  10.379  -5.546  0.00  0.00    +0.003 A 
ENDBRANCH   6  11
ENDBRANCH   2   6
ENDBRANCH   1   4
BRANCH   1  14
ATOM     14  C   UNL     1      -6.834   7.971   0.580  0.00  0.00    +0.225 C 
ATOM     15 CL   UNL     1      -6.401   7.579   2.285  0.00  0.00    -0.080 Cl
ATOM     16 CL   UNL     1      -6.785   9.758   0.343  0.00  0.00    -0.080 Cl
ATOM     17 CL   UNL     1      -8.495   7.364   0.226  0.00  0.00    -0.080 Cl
ENDBRANCH   1  14
BRANCH   1  18
ATOM     18  N   UNL     1      -5.875   5.852  -0.174  0.00  0.00    -0.305 N 
ATOM     19  H   UNL     1      -6.728   5.395  -0.108  0.00  0.00    +0.150 HD
BRANCH  18  20
ATOM     20  C   UNL     1      -4.727   5.151  -0.088  0.00  0.00    +0.136 C 
ATOM     21  S   UNL     1      -3.221   5.958  -0.204  0.00  0.00    -0.019 S 
BRANCH  20  22
ATOM     22  N   UNL     1      -4.764   3.816   0.089  0.00  0.00    -0.297 N 
ATOM     23  H   UNL     1      -5.615   3.366   0.209  0.00  0.00    +0.154 HD
BRANCH  22  24
ATOM     24  C   UNL     1      -3.574   3.077   0.100  0.00  0.00    +0.033 A 
ATOM     25  C   UNL     1      -2.471   3.548   0.801  0.00  0.00    +0.025 A 
ATOM     26  C   UNL     1      -1.298   2.820   0.812  0.00  0.00    +0.025 A 
ATOM     27  C   UNL     1      -1.221   1.617   0.123  0.00  0.00    +0.033 A 
ATOM     28  C   UNL     1      -2.321   1.149  -0.583  0.00  0.00    +0.025 A 
ATOM     29  C   UNL     1      -3.496   1.875  -0.590  0.00  0.00    +0.025 A 
BRANCH  27  30
ATOM     30  N   UNL     1      -0.030   0.879   0.134  0.00  0.00    -0.286 N 
ATOM     31  C   UNL     1       0.733   0.847   1.245  0.00  0.00    +0.214 C 
ATOM     32  O   UNL     1       0.413   1.496   2.218  0.00  0.00    -0.276 OA
ATOM     33  C   UNL     1       1.982   0.005   1.277  0.00  0.00    +0.109 C 
ATOM     34  H   UNL     1       0.247   0.393  -0.659  0.00  0.00    +0.155 HD
ENDBRANCH  27  30
ENDBRANCH  22  24
ENDBRANCH  20  22
ENDBRANCH  18  20
ENDBRANCH   1  18
TORSDOF 9
