REMARK  Name = ZINC19979352
REMARK  6 active torsions:
REMARK  status: ('A' for Active; 'I' for Inactive)
REMARK    1  A    between atoms: C_1  and  C_2
REMARK    2  A    between atoms: C_8  and  N_10
REMARK    3  A    between atoms: N_10  and  S_11
REMARK    4  A    between atoms: S_11  and  C_14
REMARK    5  A    between atoms: C_17  and  O_21
REMARK    6  A    between atoms: C_18  and  N_20
REMARK                            x       y       z     vdW  Elec       q    Type
REMARK                         _______ _______ _______ _____ _____    ______ ____
ROOT
ATOM      1  S   UNL     1       2.618   0.643   3.085  0.00  0.00    +0.059 S 
ATOM      2  O   UNL     1       3.814   1.392   2.914  0.00  0.00    -0.153 OA
ATOM      3  O   UNL     1       2.193   0.165   4.354  0.00  0.00    -0.153 OA
ENDROOT
BRANCH   1   4
ATOM      4  C   UNL     1       2.751  -0.765   2.035  0.00  0.00    +0.107 A 
ATOM      5  C   UNL     1       2.027  -1.908   2.320  0.00  0.00    +0.032 A 
ATOM      6  C   UNL     1       2.123  -3.015   1.496  0.00  0.00    +0.049 A 
ATOM      7  C   UNL     1       2.954  -2.984   0.388  0.00  0.00    +0.137 A 
ATOM      8  C   UNL     1       3.687  -1.834   0.103  0.00  0.00    +0.068 A 
ATOM      9  C   UNL     1       3.582  -0.726   0.931  0.00  0.00    +0.055 A 
BRANCH   8  10
ATOM     10  N   UNL     1       4.529  -1.797  -1.015  0.00  0.00    -0.355 N 
ATOM     11  H   UNL     1       5.107  -0.889  -1.238  0.00  0.00    +0.142 HD
ATOM     12  H   UNL     1       4.611  -2.677  -1.670  0.00  0.00    +0.142 HD
ENDBRANCH   8  10
BRANCH   7  13
ATOM     13  O   UNL     1       3.053  -4.073  -0.420  0.00  0.00    -0.505 OA
ATOM     14  H   UNL     1       3.713  -4.048  -1.300  0.00  0.00    +0.292 HD
ENDBRANCH   7  13
ENDBRANCH   1   4
BRANCH   1  15
ATOM     15  N   UNL     1       1.386   1.579   2.496  0.00  0.00    -0.187 NA
ATOM     16  H   UNL     1       1.626   2.505   1.952  0.00  0.00    +0.148 HD
BRANCH  15  23
ATOM     17  C   UNL     1      -0.013   1.086   0.008  0.00  0.00    +0.009 C 
ATOM     18  C   UNL     1      -0.729   1.579   1.267  0.00  0.00    +0.005 C 
ATOM     19  C   UNL     1      -0.750   3.109   1.275  0.00  0.00    +0.005 C 
ATOM     20  C   UNL     1      -1.466   3.603   2.534  0.00  0.00    +0.000 C 
ATOM     21  C   UNL     1      -0.726   3.096   3.774  0.00  0.00    +0.002 C 
ATOM     22  C   UNL     1      -0.705   1.566   3.765  0.00  0.00    +0.020 C 
ATOM     23  C   UNL     1       0.011   1.072   2.506  0.00  0.00    +0.079 C 
ENDBRANCH  15  23
ENDBRANCH   1  15
TORSDOF 5
