REMARK  Name = ZINC66123600
REMARK  11 active torsions:
REMARK  status: ('A' for Active; 'I' for Inactive)
REMARK    1  A    between atoms: C_1  and  C_2
REMARK    2  A    between atoms: C_2  and  C_3
REMARK    3  A    between atoms: C_2  and  C_4
REMARK    4  A    between atoms: C_9  and  N_10
REMARK    5  A    between atoms: N_10  and  C_11
REMARK    6  A    between atoms: C_11  and  N_13
REMARK    7  A    between atoms: N_13  and  N_14
REMARK    8  A    between atoms: C_15  and  C_17
REMARK    9  A    between atoms: C_20  and  C_22
REMARK   10  A    between atoms: C_22  and  N_23
REMARK   11  A    between atoms: C_24  and  C_26
REMARK                            x       y       z     vdW  Elec       q    Type
REMARK                         _______ _______ _______ _____ _____    ______ ____
ROOT
ATOM      1  N   UNL     1      -0.591  -2.344  -4.239  0.00  0.00    -0.245 N 
ATOM      2  H   UNL     1      -0.917  -2.778  -5.042  0.00  0.00    +0.172 HD
ENDROOT
BRANCH   1   3
ATOM      3  N   UNL     1       0.769  -2.030  -4.115  0.00  0.00    -0.231 N 
ATOM      4  C   UNL     1       1.623  -2.331  -5.114  0.00  0.00    +0.267 C 
ATOM      5  O   UNL     1       1.213  -2.876  -6.122  0.00  0.00    -0.268 OA
ATOM      6  H   UNL     1       1.096  -1.596  -3.312  0.00  0.00    +0.173 HD
BRANCH   4   7
ATOM      7  C   UNL     1       3.046  -2.003  -4.985  0.00  0.00    +0.076 A 
ATOM      8  C   UNL     1       4.078  -2.219  -5.886  0.00  0.00    +0.021 A 
ATOM      9  C   UNL     1       5.322  -1.798  -5.481  0.00  0.00    +0.013 A 
ATOM     10  C   UNL     1       5.457  -1.215  -4.263  0.00  0.00    +0.008 A 
ATOM     11  S   UNL     1       3.899  -1.214  -3.633  0.00  0.00    -0.087 S 
BRANCH  10  12
ATOM     12  C   UNL     1       6.714  -0.685  -3.625  0.00  0.00    +0.146 C 
BRANCH  12  13
ATOM     13  N   UNL     1       6.887   0.725  -3.984  0.00  0.00    -0.311 N 
ATOM     14  C   UNL     1       7.952   1.411  -3.523  0.00  0.00    +0.210 C 
ATOM     15  O   UNL     1       8.766   0.863  -2.812  0.00  0.00    -0.276 OA
ATOM     16  C   UNL     1       8.130   2.862  -3.893  0.00  0.00    +0.109 C 
ATOM     17  H   UNL     1       6.236   1.163  -4.553  0.00  0.00    +0.149 HD
ENDBRANCH  12  13
ENDBRANCH  10  12
ENDBRANCH   4   7
ENDBRANCH   1   3
BRANCH   1  18
ATOM     18  C   UNL     1      -1.445  -2.043  -3.240  0.00  0.00    +0.151 C 
ATOM     19  S   UNL     1      -3.107  -2.426  -3.391  0.00  0.00    -0.017 S 
BRANCH  18  20
ATOM     20  N   UNL     1      -0.991  -1.440  -2.124  0.00  0.00    -0.296 N 
ATOM     21  H   UNL     1      -0.062  -1.165  -2.064  0.00  0.00    +0.154 HD
BRANCH  20  27
ATOM     22  C   UNL     1      -1.473  -1.545   0.240  0.00  0.00    -0.024 A 
ATOM     23  C   UNL     1      -2.330  -1.311   1.298  0.00  0.00    +0.006 A 
ATOM     24  C   UNL     1      -3.573  -0.748   1.071  0.00  0.00    +0.000 A 
ATOM     25  C   UNL     1      -3.962  -0.418  -0.214  0.00  0.00    +0.002 A 
ATOM     26  C   UNL     1      -3.110  -0.650  -1.276  0.00  0.00    +0.023 A 
ATOM     27  C   UNL     1      -1.859  -1.209  -1.051  0.00  0.00    +0.036 A 
BRANCH  22  29
ATOM     28  C   UNL     1       0.698  -1.240   1.397  0.00  0.00    +0.012 C 
ATOM     29  C   UNL     1      -0.119  -2.159   0.488  0.00  0.00    +0.015 C 
ATOM     30  C   UNL     1      -0.293  -3.521   1.162  0.00  0.00    +0.012 C 
ENDBRANCH  22  29
ENDBRANCH  20  27
ENDBRANCH  18  20
ENDBRANCH   1  18
TORSDOF 8
