REMARK  Name = ZINC14834028
REMARK  10 active torsions:
REMARK  status: ('A' for Active; 'I' for Inactive)
REMARK    1  A    between atoms: C_1  and  C_2
REMARK    2  A    between atoms: C_2  and  C_3
REMARK    3  A    between atoms: C_2  and  C_4
REMARK    4  A    between atoms: N_6  and  C_7
REMARK    5  A    between atoms: C_10  and  C_13
REMARK    6  A    between atoms: N_15  and  N_16
REMARK    7  A    between atoms: N_16  and  C_17
REMARK    8  A    between atoms: C_17  and  N_19
REMARK    9  A    between atoms: C_20  and  C_22
REMARK   10  A    between atoms: C_23  and  C_24
REMARK                            x       y       z     vdW  Elec       q    Type
REMARK                         _______ _______ _______ _____ _____    ______ ____
ROOT
ATOM      1  C   UNL     1      -1.064   7.786   0.421  0.00  0.00    +0.260 C 
ATOM      2  O   UNL     1      -2.102   8.413   0.516  0.00  0.00    -0.269 OA
ATOM      3  N   UNL     1       0.117   8.435   0.412  0.00  0.00    -0.231 N 
ATOM      4  H   UNL     1       0.944   7.935   0.336  0.00  0.00    +0.173 HD
ENDROOT
BRANCH   1   8
ATOM      5  C   UNL     1      -1.162   3.551   0.119  0.00  0.00    +0.033 A 
ATOM      6  C   UNL     1       0.058   4.219   0.115  0.00  0.00    +0.024 A 
ATOM      7  C   UNL     1       0.093   5.592   0.207  0.00  0.00    +0.015 A 
ATOM      8  C   UNL     1      -1.098   6.314   0.317  0.00  0.00    +0.038 A 
ATOM      9  C   UNL     1      -2.322   5.640   0.327  0.00  0.00    +0.015 A 
ATOM     10  C   UNL     1      -2.350   4.267   0.229  0.00  0.00    +0.024 A 
BRANCH   5  13
ATOM     11  C   UNL     1      -0.267   1.516  -0.716  0.00  0.00    +0.220 C 
ATOM     12  O   UNL     1       0.535   2.149  -1.370  0.00  0.00    -0.275 OA
ATOM     13  N   UNL     1      -1.195   2.161   0.019  0.00  0.00    -0.285 N 
ATOM     14  H   UNL     1      -1.884   1.657   0.480  0.00  0.00    +0.155 HD
BRANCH  11  16
ATOM     15  C   UNL     1       0.903  -0.464  -1.643  0.00  0.00    +0.017 C 
ATOM     16  C   UNL     1      -0.231   0.010  -0.731  0.00  0.00    +0.069 C 
ATOM     17  C   UNL     1       0.005  -0.509   0.689  0.00  0.00    +0.017 C 
ENDBRANCH  11  16
ENDBRANCH   5  13
ENDBRANCH   1   8
BRANCH   3  18
ATOM     18  N   UNL     1       0.149   9.833   0.511  0.00  0.00    -0.245 N 
ATOM     19  H   UNL     1      -0.679  10.333   0.587  0.00  0.00    +0.172 HD
BRANCH  18  20
ATOM     20  C   UNL     1       1.330  10.482   0.501  0.00  0.00    +0.153 C 
ATOM     21  S   UNL     1       1.370  12.189   0.623  0.00  0.00    -0.017 S 
BRANCH  20  22
ATOM     22  N   UNL     1       2.480   9.787   0.396  0.00  0.00    -0.263 N 
ATOM     23  C   UNL     1       3.661  10.436   0.387  0.00  0.00    +0.242 C 
ATOM     24  O   UNL     1       3.689  11.649   0.473  0.00  0.00    -0.270 OA
ATOM     25  H   UNL     1       2.458   8.819   0.328  0.00  0.00    +0.157 HD
BRANCH  23  26
ATOM     26  C   UNL     1       4.909   9.682   0.273  0.00  0.00    +0.068 C 
ATOM     27  C   UNL     1       6.092  10.332   0.263  0.00  0.00    +0.013 C 
BRANCH  27  28
ATOM     28  C   UNL     1       7.347   9.573   0.148  0.00  0.00    -0.025 A 
ATOM     29  C   UNL     1       7.319   8.178   0.055  0.00  0.00    +0.009 A 
ATOM     30  C   UNL     1       8.499   7.474  -0.057  0.00  0.00    +0.020 A 
ATOM     31  C   UNL     1       9.711   8.145  -0.067  0.00  0.00    +0.041 A 
ATOM     32  C   UNL     1       9.747   9.526   0.030  0.00  0.00    +0.020 A 
ATOM     33  C   UNL     1       8.575  10.243   0.138  0.00  0.00    +0.009 A 
ATOM     34 CL   UNL     1      11.193   7.249  -0.201  0.00  0.00    -0.084 Cl
ENDBRANCH  27  28
ENDBRANCH  23  26
ENDBRANCH  20  22
ENDBRANCH  18  20
ENDBRANCH   3  18
TORSDOF 8
