REMARK  Name = ZINC34831888
REMARK  14 active torsions:
REMARK  status: ('A' for Active; 'I' for Inactive)
REMARK    1  A    between atoms: C_1  and  C_2
REMARK    2  A    between atoms: C_2  and  N_3
REMARK    3  A    between atoms: N_6  and  C_9
REMARK    4  A    between atoms: C_10  and  C_22
REMARK    5  A    between atoms: C_11  and  C_21
REMARK    6  A    between atoms: N_13  and  C_14
REMARK    7  A    between atoms: C_22  and  N_23
REMARK    8  A    between atoms: N_23  and  C_24
REMARK    9  A    between atoms: N_23  and  S_28
REMARK   10  A    between atoms: C_24  and  C_25
REMARK   11  A    between atoms: C_25  and  O_26
REMARK   12  A    between atoms: O_26  and  C_27
REMARK   13  A    between atoms: S_28  and  C_31
REMARK   14  A    between atoms: C_34  and  C_37
REMARK                            x       y       z     vdW  Elec       q    Type
REMARK                         _______ _______ _______ _____ _____    ______ ____
ROOT
ATOM      1  C   UNL     1      -2.877  -3.772  -1.864  0.00  0.00    +0.129 A 
ATOM      2  C   UNL     1      -3.598  -4.889  -1.568  0.00  0.00    +0.031 A 
ATOM      3  C   UNL     1      -4.433  -5.161  -2.656  0.00  0.00    +0.067 A 
ATOM      4  N   UNL     1      -4.229  -4.250  -3.573  0.00  0.00    -0.170 NA
ATOM      5  N   UNL     1      -3.259  -3.357  -3.103  0.00  0.00    -0.218 N 
ATOM      6  C   UNL     1      -5.404  -6.309  -2.755  0.00  0.00    +0.068 C 
ENDROOT
BRANCH   1  10
ATOM      7  N   UNL     1      -0.351  -2.625   1.196  0.00  0.00    +0.382 N 
ATOM      8  C   UNL     1      -0.115  -3.854   0.428  0.00  0.00    -0.060 C 
ATOM      9  C   UNL     1      -0.534  -3.634  -1.029  0.00  0.00    +0.088 C 
ATOM     10  N   UNL     1      -1.928  -3.164  -1.048  0.00  0.00    -0.318 N 
ATOM     11  C   UNL     1      -2.291  -2.034  -0.179  0.00  0.00    +0.088 C 
ATOM     12  C   UNL     1      -1.789  -2.330   1.238  0.00  0.00    -0.060 C 
ATOM     13  H   UNL     1       0.135  -1.858   0.756  0.00  0.00    -0.082 HD
BRANCH   7  15
ATOM     14  C   UNL     1       1.670  -2.983   2.531  0.00  0.00    -0.017 C 
ATOM     15  C   UNL     1       0.151  -2.800   2.565  0.00  0.00    -0.082 C 
ENDBRANCH   7  15
ENDBRANCH   1  10
BRANCH   5  16
ATOM     16  C   UNL     1      -2.766  -2.237  -3.786  0.00  0.00    +0.070 A 
ATOM     17  C   UNL     1      -2.705  -1.004  -3.149  0.00  0.00    +0.028 A 
ATOM     18  C   UNL     1      -2.219   0.099  -3.824  0.00  0.00    +0.005 A 
ATOM     19  C   UNL     1      -1.793  -0.023  -5.134  0.00  0.00    +0.038 A 
ATOM     20  C   UNL     1      -1.852  -1.250  -5.773  0.00  0.00    +0.125 A 
ATOM     21  C   UNL     1      -2.333  -2.359  -5.099  0.00  0.00    +0.066 A 
ATOM     22  F   UNL     1      -1.435  -1.365  -7.053  0.00  0.00    -0.205 F 
ENDBRANCH   5  16
BRANCH   2  23
ATOM     23  C   UNL     1      -3.511  -5.690  -0.295  0.00  0.00    +0.150 C 
BRANCH  23  24
ATOM     24  N   UNL     1      -4.837  -5.769   0.324  0.00  0.00    -0.170 NA
BRANCH  24  25
ATOM     25  S   UNL     1      -5.387  -4.524   1.266  0.00  0.00    +0.061 S 
ATOM     26  O   UNL     1      -6.080  -5.115   2.356  0.00  0.00    -0.153 OA
ATOM     27  O   UNL     1      -4.291  -3.638   1.449  0.00  0.00    -0.153 OA
BRANCH  25  28
ATOM     28  C   UNL     1      -6.589  -3.648   0.321  0.00  0.00    +0.106 A 
ATOM     29  C   UNL     1      -6.224  -2.516  -0.384  0.00  0.00    +0.029 A 
ATOM     30  C   UNL     1      -7.167  -1.829  -1.125  0.00  0.00    +0.005 A 
ATOM     31  C   UNL     1      -8.475  -2.274  -1.162  0.00  0.00    -0.050 A 
ATOM     32  C   UNL     1      -8.840  -3.406  -0.459  0.00  0.00    +0.005 A 
ATOM     33  C   UNL     1      -7.896  -4.096   0.279  0.00  0.00    +0.029 A 
ATOM     34  C   UNL     1      -9.503  -1.524  -1.970  0.00  0.00    +0.044 C 
ENDBRANCH  25  28
ENDBRANCH  24  25
BRANCH  24  35
ATOM     35  C   UNL     1      -5.675  -6.951   0.109  0.00  0.00    +0.138 C 
BRANCH  35  36
ATOM     36  C   UNL     1      -5.029  -8.165   0.780  0.00  0.00    +0.176 C 
BRANCH  36  37
ATOM     37  O   UNL     1      -5.006  -7.970   2.195  0.00  0.00    -0.382 OA
ATOM     38  C   UNL     1      -4.418  -9.051   2.922  0.00  0.00    +0.194 C 
ENDBRANCH  36  37
ENDBRANCH  35  36
ENDBRANCH  24  35
ENDBRANCH  23  24
ENDBRANCH   2  23
TORSDOF 10
