REMARK  Name = ZINC59351032
REMARK  8 active torsions:
REMARK  status: ('A' for Active; 'I' for Inactive)
REMARK    1  A    between atoms: C_1  and  C_2
REMARK    2  A    between atoms: C_2  and  C_3
REMARK    3  A    between atoms: C_6  and  C_9
REMARK    4  A    between atoms: C_9  and  C_11
REMARK    5  A    between atoms: C_9  and  N_12
REMARK    6  A    between atoms: N_15  and  C_16
REMARK    7  A    between atoms: C_19  and  C_22
REMARK    8  A    between atoms: N_24  and  C_25
REMARK                            x       y       z     vdW  Elec       q    Type
REMARK                         _______ _______ _______ _____ _____    ______ ____
ROOT
ATOM      1  N   UNL     1       1.984  -2.934   5.358  0.00  0.00    -0.293 N 
ATOM      2  C   UNL     1       2.577  -3.870   6.125  0.00  0.00    +0.304 C 
ATOM      3  O   UNL     1       3.785  -3.871   6.259  0.00  0.00    -0.252 OA
ATOM      4  N   UNL     1       1.830  -4.806   6.744  0.00  0.00    -0.269 N 
ATOM      5  H   UNL     1       1.020  -2.934   5.251  0.00  0.00    +0.151 HD
ATOM      6  H   UNL     1       0.862  -4.767   6.692  0.00  0.00    +0.156 HD
ENDROOT
BRANCH   4   7
ATOM      7  C   UNL     1       2.448  -5.831   7.459  0.00  0.00    +0.035 A 
ATOM      8  C   UNL     1       3.622  -5.577   8.162  0.00  0.00    +0.024 A 
ATOM      9  C   UNL     1       4.234  -6.587   8.869  0.00  0.00    +0.015 A 
ATOM     10  C   UNL     1       3.677  -7.868   8.880  0.00  0.00    +0.037 A 
ATOM     11  C   UNL     1       2.498  -8.120   8.174  0.00  0.00    +0.015 A 
ATOM     12  C   UNL     1       1.887  -7.104   7.473  0.00  0.00    +0.024 A 
BRANCH  10  13
ATOM     13  C   UNL     1       4.331  -8.953   9.637  0.00  0.00    +0.244 C 
ATOM     14  O   UNL     1       5.357  -8.733  10.251  0.00  0.00    -0.270 OA
ATOM     15  N   UNL     1       3.792 -10.188   9.647  0.00  0.00    -0.308 N 
ATOM     16  H   UNL     1       2.973 -10.364   9.157  0.00  0.00    +0.149 HD
BRANCH  15  17
ATOM     17  C   UNL     1       4.442 -11.265  10.398  0.00  0.00    +0.073 C 
ATOM     18  C   UNL     1       5.492 -11.967   9.513  0.00  0.00    +0.022 C 
ATOM     19  C   UNL     1       5.387 -13.461   9.911  0.00  0.00    +0.002 C 
ATOM     20  C   UNL     1       3.865 -13.652  10.123  0.00  0.00    +0.002 C 
ATOM     21  C   UNL     1       3.407 -12.336  10.786  0.00  0.00    +0.022 C 
ENDBRANCH  15  17
ENDBRANCH  10  13
ENDBRANCH   4   7
BRANCH   1  22
ATOM     22  C   UNL     1       2.796  -1.917   4.686  0.00  0.00    +0.102 C 
ATOM     23  C   UNL     1       3.056  -0.755   5.646  0.00  0.00    +0.033 C 
BRANCH  22  27
ATOM     24  C   UNL     1       0.714  -0.482   1.243  0.00  0.00    -0.048 A 
ATOM     25  C   UNL     1       2.079  -0.694   1.187  0.00  0.00    +0.004 A 
ATOM     26  C   UNL     1       2.753  -1.159   2.301  0.00  0.00    +0.006 A 
ATOM     27  C   UNL     1       2.062  -1.410   3.471  0.00  0.00    -0.027 A 
ATOM     28  C   UNL     1       0.697  -1.197   3.528  0.00  0.00    +0.006 A 
ATOM     29  C   UNL     1       0.024  -0.729   2.415  0.00  0.00    +0.004 A 
BRANCH  24  31
ATOM     30  C   UNL     1      -0.035   1.553   0.041  0.00  0.00    +0.009 C 
ATOM     31  C   UNL     1      -0.021   0.024   0.028  0.00  0.00    +0.032 C 
ENDBRANCH  24  31
ENDBRANCH  22  27
ENDBRANCH   1  22
TORSDOF 6
