REMARK  Name = ZINC62320189
REMARK  6 active torsions:
REMARK  status: ('A' for Active; 'I' for Inactive)
REMARK    1  A    between atoms: C_1  and  C_2
REMARK    2  A    between atoms: C_5  and  C_8
REMARK    3  A    between atoms: C_8  and  N_9
REMARK    4  A    between atoms: C_11  and  C_21
REMARK    5  A    between atoms: C_19  and  N_20
REMARK    6  A    between atoms: N_23  and  C_24
REMARK                            x       y       z     vdW  Elec       q    Type
REMARK                         _______ _______ _______ _____ _____    ______ ____
ROOT
ATOM      1  N   UNL     1       1.127  -4.663  -0.089  0.00  0.00    -0.341 N 
ATOM      2  C   UNL     1       1.565  -4.833  -1.344  0.00  0.00    +0.103 A 
ATOM      3  C   UNL     1       2.836  -5.288  -1.623  0.00  0.00    +0.100 A 
ATOM      4  C   UNL     1       3.743  -5.597  -0.505  0.00  0.00    +0.203 A 
ATOM      5  O   UNL     1       4.876  -6.001  -0.699  0.00  0.00    -0.286 OA
ATOM      6  C   UNL     1       3.224  -5.397   0.857  0.00  0.00    +0.067 A 
ATOM      7  C   UNL     1       1.910  -4.922   1.016  0.00  0.00    +0.055 A 
ATOM      8  C   UNL     1       1.409  -4.724   2.298  0.00  0.00    +0.026 A 
ATOM      9  C   UNL     1       2.199  -4.986   3.399  0.00  0.00    +0.004 A 
ATOM     10  C   UNL     1       3.495  -5.447   3.249  0.00  0.00    +0.023 A 
ATOM     11  C   UNL     1       4.016  -5.665   1.982  0.00  0.00    +0.037 A 
ENDROOT
BRANCH   3  12
ATOM     12  C   UNL     1       3.279  -5.462  -3.015  0.00  0.00    +0.249 C 
ATOM     13  O   UNL     1       2.491  -5.308  -3.928  0.00  0.00    -0.270 OA
ATOM     14  N   UNL     1       4.559  -5.794  -3.278  0.00  0.00    -0.314 N 
ATOM     15  C   UNL     1       5.029  -5.857  -4.665  0.00  0.00    +0.128 C 
ATOM     16  H   UNL     1       5.169  -5.990  -2.550  0.00  0.00    +0.149 HD
ENDBRANCH   3  12
BRANCH  11  17
ATOM     17  N   UNL     1       5.317  -6.129   1.829  0.00  0.00    -0.357 N 
ATOM     18  H   UNL     1       5.709  -6.190   0.944  0.00  0.00    +0.142 HD
ATOM     19  H   UNL     1       5.833  -6.392   2.608  0.00  0.00    +0.142 HD
ENDBRANCH  11  17
BRANCH   1  20
ATOM     20  C   UNL     1      -0.239  -4.175   0.118  0.00  0.00    +0.157 C 
BRANCH  20  25
ATOM     21  C   UNL     1      -0.218   1.600   0.304  0.00  0.00    +0.044 C 
ATOM     22  C   UNL     1      -0.223   0.094   0.256  0.00  0.00    -0.050 A 
ATOM     23  C   UNL     1      -0.390  -0.558  -0.952  0.00  0.00    +0.004 A 
ATOM     24  C   UNL     1      -0.395  -1.940  -0.997  0.00  0.00    +0.005 A 
ATOM     25  C   UNL     1      -0.233  -2.669   0.166  0.00  0.00    -0.028 A 
ATOM     26  C   UNL     1      -0.065  -2.017   1.374  0.00  0.00    +0.005 A 
ATOM     27  C   UNL     1      -0.056  -0.636   1.418  0.00  0.00    +0.004 A 
ENDBRANCH  20  25
ENDBRANCH   1  20
TORSDOF 4
