REMARK  Name = ZINC43510293
REMARK  8 active torsions:
REMARK  status: ('A' for Active; 'I' for Inactive)
REMARK    1  A    between atoms: C_1  and  C_2
REMARK    2  A    between atoms: C_2  and  C_3
REMARK    3  A    between atoms: C_2  and  C_4
REMARK    4  A    between atoms: C_8  and  O_11
REMARK    5  A    between atoms: C_9  and  O_10
REMARK    6  A    between atoms: C_16  and  C_27
REMARK    7  A    between atoms: C_16  and  C_28
REMARK    8  A    between atoms: C_21  and  O_23
REMARK                            x       y       z     vdW  Elec       q    Type
REMARK                         _______ _______ _______ _____ _____    ______ ____
ROOT
ATOM      1  C   UNL     1      -1.416  -0.366   0.223  0.00  0.00    +0.001 A 
ATOM      2  C   UNL     1      -2.304  -0.062   1.236  0.00  0.00    +0.014 A 
ATOM      3  C   UNL     1      -3.593  -0.571   1.216  0.00  0.00    -0.007 A 
ATOM      4  C   UNL     1      -3.984  -1.390   0.173  0.00  0.00    +0.021 A 
ATOM      5  C   UNL     1      -3.103  -1.697  -0.849  0.00  0.00    +0.163 A 
ATOM      6  C   UNL     1      -1.811  -1.178  -0.828  0.00  0.00    +0.162 A 
ATOM      7  C   UNL     1      -5.381  -1.959   0.163  0.00  0.00    +0.103 C 
ATOM      8  C   UNL     1      -5.802  -2.448  -1.194  0.00  0.00    +0.023 C 
ATOM      9  C   UNL     1      -7.255  -2.929  -1.182  0.00  0.00    +0.002 C 
ATOM     10  C   UNL     1      -8.150  -1.771  -0.730  0.00  0.00    +0.007 C 
ATOM     11  C   UNL     1      -7.771  -1.376   0.696  0.00  0.00    -0.027 C 
ATOM     12  C   UNL     1      -6.324  -0.880   0.744  0.00  0.00    +0.060 C 
ATOM     13  C   UNL     1      -5.849  -0.991   2.227  0.00  0.00    +0.214 C 
ATOM     14  C   UNL     1      -4.537  -0.210   2.333  0.00  0.00    +0.186 C 
ATOM     15  O   UNL     1      -5.600  -2.393   2.417  0.00  0.00    -0.457 OA
ATOM     16  C   UNL     1      -5.433  -3.027   1.238  0.00  0.00    +0.319 C 
ATOM     17  O   UNL     1      -5.343  -4.221   1.071  0.00  0.00    -0.250 OA
ATOM     18  C   UNL     1      -8.704  -0.264   1.179  0.00  0.00    +0.011 C 
ATOM     19  C   UNL     1      -7.920  -2.591   1.615  0.00  0.00    +0.011 C 
ENDROOT
BRANCH   1  21
ATOM     20  C   UNL     1      -0.076   1.720   0.258  0.00  0.00    +0.012 C 
ATOM     21  C   UNL     1      -0.016   0.191   0.257  0.00  0.00    +0.017 C 
ATOM     22  C   UNL     1       0.694  -0.292   1.523  0.00  0.00    +0.012 C 
ENDBRANCH   1  21
BRANCH   6  23
ATOM     23  O   UNL     1      -0.940  -1.471  -1.831  0.00  0.00    -0.503 OA
ATOM     24  H   UNL     1      -0.413  -2.267  -1.675  0.00  0.00    +0.292 HD
ENDBRANCH   6  23
BRANCH   5  25
ATOM     25  O   UNL     1      -3.499  -2.498  -1.873  0.00  0.00    -0.503 OA
ATOM     26  H   UNL     1      -3.888  -2.021  -2.619  0.00  0.00    +0.292 HD
ENDBRANCH   5  25
BRANCH  14  27
ATOM     27  O   UNL     1      -3.916  -0.506   3.585  0.00  0.00    -0.383 OA
ATOM     28  H   UNL     1      -3.091  -0.025   3.738  0.00  0.00    +0.210 HD
ENDBRANCH  14  27
TORSDOF 4
