REMARK  Name = ZINC51481024
REMARK  6 active torsions:
REMARK  status: ('A' for Active; 'I' for Inactive)
REMARK    1  A    between atoms: C_4  and  C_6
REMARK    2  A    between atoms: C_6  and  N_7
REMARK    3  A    between atoms: N_10  and  C_11
REMARK    4  A    between atoms: C_11  and  C_12
REMARK    5  A    between atoms: N_14  and  N_15
REMARK    6  A    between atoms: N_15  and  C_16
REMARK                            x       y       z     vdW  Elec       q    Type
REMARK                         _______ _______ _______ _____ _____    ______ ____
ROOT
ATOM      1  C   UNL     1      -0.310  -7.405   0.122  0.00  0.00    +0.246 C 
ATOM      2  O   UNL     1      -0.906  -7.050  -0.873  0.00  0.00    -0.273 OA
ATOM      3  N   UNL     1      -0.194  -8.717   0.406  0.00  0.00    -0.235 N 
ATOM      4  H   UNL     1       0.283  -9.001   1.201  0.00  0.00    +0.173 HD
ENDROOT
BRANCH   3   5
ATOM      5  N   UNL     1      -0.762  -9.672  -0.448  0.00  0.00    -0.259 N 
ATOM      6  H   UNL     1      -1.172  -9.394  -1.282  0.00  0.00    +0.170 HD
BRANCH   5   7
ATOM      7  C   UNL     1      -0.737 -11.028  -0.097  0.00  0.00    +0.121 A 
ATOM      8  C   UNL     1      -0.872 -11.405   1.234  0.00  0.00    +0.186 A 
ATOM      9  C   UNL     1      -0.848 -12.746   1.578  0.00  0.00    +0.198 A 
ATOM     10  C   UNL     1      -0.688 -13.712   0.597  0.00  0.00    +0.199 A 
ATOM     11  C   UNL     1      -0.554 -13.338  -0.731  0.00  0.00    +0.198 A 
ATOM     12  C   UNL     1      -0.584 -11.998  -1.080  0.00  0.00    +0.186 A 
ATOM     13  F   UNL     1      -0.458 -11.634  -2.375  0.00  0.00    -0.200 F 
ATOM     14  F   UNL     1      -0.398 -14.281  -1.685  0.00  0.00    -0.199 F 
ATOM     15  F   UNL     1      -0.664 -15.020   0.935  0.00  0.00    -0.199 F 
ATOM     16  F   UNL     1      -0.979 -13.114   2.872  0.00  0.00    -0.199 F 
ATOM     17  F   UNL     1      -1.027 -10.464   2.190  0.00  0.00    -0.200 F 
ENDBRANCH   5   7
ENDBRANCH   3   5
BRANCH   1  18
ATOM     18  C   UNL     1       0.301  -6.378   1.040  0.00  0.00    +0.203 C 
BRANCH  18  22
ATOM     19  N   UNL     1       0.252  -2.718   0.693  0.00  0.00    -0.299 N 
ATOM     20  C   UNL     1       0.494  -3.953   1.176  0.00  0.00    +0.300 C 
ATOM     21  O   UNL     1       1.123  -4.090   2.207  0.00  0.00    -0.253 OA
ATOM     22  N   UNL     1       0.039  -5.035   0.515  0.00  0.00    -0.291 N 
ATOM     23  H   UNL     1      -0.250  -2.608  -0.130  0.00  0.00    +0.150 HD
ATOM     24  H   UNL     1      -0.463  -4.926  -0.308  0.00  0.00    +0.151 HD
BRANCH  19  25
ATOM     25  C   UNL     1       0.747  -1.541   1.411  0.00  0.00    +0.109 C 
BRANCH  25  29
ATOM     26  C   UNL     1      -1.395   1.470   0.898  0.00  0.00    +0.000 C 
ATOM     27  C   UNL     1       0.007   2.114   0.869  0.00  0.00    +0.000 C 
ATOM     28  C   UNL     1       0.956   0.979   1.327  0.00  0.00    +0.005 C 
ATOM     29  C   UNL     1       0.339  -0.274   0.656  0.00  0.00    +0.006 C 
ATOM     30  C   UNL     1      -1.183  -0.049   0.763  0.00  0.00    +0.005 C 
ENDBRANCH  25  29
ENDBRANCH  19  25
ENDBRANCH  18  22
ENDBRANCH   1  18
TORSDOF 6
