REMARK  Name = ZINC03322497
REMARK  10 active torsions:
REMARK  status: ('A' for Active; 'I' for Inactive)
REMARK    1  A    between atoms: C_3  and  C_21
REMARK    2  A    between atoms: C_5  and  S_7
REMARK    3  A    between atoms: S_7  and  N_10
REMARK    4  A    between atoms: N_10  and  C_11
REMARK    5  A    between atoms: C_15  and  C_17
REMARK    6  A    between atoms: N_23  and  N_24
REMARK    7  A    between atoms: N_24  and  C_25
REMARK    8  A    between atoms: C_25  and  N_27
REMARK    9  A    between atoms: N_27  and  C_28
REMARK   10  A    between atoms: C_28  and  C_29
REMARK                            x       y       z     vdW  Elec       q    Type
REMARK                         _______ _______ _______ _____ _____    ______ ____
ROOT
ATOM      1  C   UNL     1       0.554   4.377  -4.611  0.00  0.00    +0.003 A 
ATOM      2  C   UNL     1      -0.401   5.159  -5.228  0.00  0.00    +0.013 A 
ATOM      3  C   UNL     1      -0.961   6.239  -4.544  0.00  0.00    +0.040 A 
ATOM      4  C   UNL     1      -0.551   6.521  -3.240  0.00  0.00    +0.042 A 
ATOM      5  C   UNL     1       0.405   5.732  -2.635  0.00  0.00    +0.109 A 
ATOM      6  C   UNL     1       0.960   4.665  -3.320  0.00  0.00    +0.029 A 
ENDROOT
BRANCH   3   7
ATOM      7  C   UNL     1      -1.985   7.082  -5.199  0.00  0.00    +0.260 C 
ATOM      8  O   UNL     1      -2.471   8.023  -4.602  0.00  0.00    -0.269 OA
ATOM      9  N   UNL     1      -2.379   6.807  -6.459  0.00  0.00    -0.231 N 
ATOM     10  H   UNL     1      -1.991   6.056  -6.935  0.00  0.00    +0.173 HD
BRANCH   9  11
ATOM     11  N   UNL     1      -3.348   7.605  -7.079  0.00  0.00    -0.246 N 
ATOM     12  H   UNL     1      -3.736   8.356  -6.603  0.00  0.00    +0.172 HD
BRANCH  11  13
ATOM     13  C   UNL     1      -3.742   7.330  -8.338  0.00  0.00    +0.147 C 
ATOM     14  S   UNL     1      -4.927   8.306  -9.097  0.00  0.00    -0.017 S 
BRANCH  13  15
ATOM     15  N   UNL     1      -3.204   6.288  -9.001  0.00  0.00    -0.318 N 
ATOM     16  H   UNL     1      -2.532   5.735  -8.571  0.00  0.00    +0.148 HD
BRANCH  15  17
ATOM     17  C   UNL     1      -3.632   5.989 -10.369  0.00  0.00    +0.177 C 
BRANCH  17  18
ATOM     18  C   UNL     1      -2.883   4.784 -10.878  0.00  0.00    +0.122 A 
ATOM     19  C   UNL     1      -3.276   3.504 -10.756  0.00  0.00    +0.046 A 
ATOM     20  C   UNL     1      -2.282   2.709 -11.371  0.00  0.00    +0.041 A 
ATOM     21  C   UNL     1      -1.340   3.551 -11.832  0.00  0.00    +0.195 A 
ATOM     22  O   UNL     1      -1.712   4.807 -11.536  0.00  0.00    -0.466 OA
ENDBRANCH  17  18
ENDBRANCH  15  17
ENDBRANCH  13  15
ENDBRANCH  11  13
ENDBRANCH   9  11
ENDBRANCH   3   7
BRANCH   5  23
ATOM     23  S   UNL     1       0.924   6.086  -0.989  0.00  0.00    +0.072 S 
ATOM     24  O   UNL     1       0.655   7.463  -0.766  0.00  0.00    -0.150 OA
ATOM     25  O   UNL     1       2.224   5.530  -0.845  0.00  0.00    -0.150 OA
BRANCH  23  26
ATOM     26  N   UNL     1      -0.069   5.239   0.030  0.00  0.00    -0.216 N 
ATOM     27  H   UNL     1      -0.664   5.713   0.633  0.00  0.00    +0.174 HD
BRANCH  26  28
ATOM     28  C   UNL     1      -0.050   3.842   0.023  0.00  0.00    +0.049 A 
ATOM     29  C   UNL     1       1.161   3.163   0.008  0.00  0.00    +0.024 A 
ATOM     30  C   UNL     1       1.177   1.782   0.000  0.00  0.00    +0.002 A 
ATOM     31  C   UNL     1      -0.013   1.076   0.008  0.00  0.00    +0.012 A 
ATOM     32  C   UNL     1      -1.220   1.749   0.017  0.00  0.00    +0.057 A 
ATOM     33  C   UNL     1      -1.242   3.130   0.031  0.00  0.00    +0.036 A 
BRANCH  32  34
ATOM     34  C   UNL     1      -2.513   0.976   0.019  0.00  0.00    +0.417 C 
ATOM     35  F   UNL     1      -2.236  -0.396   0.010  0.00  0.00    -0.166 F 
ATOM     36  F   UNL     1      -3.247   1.295   1.166  0.00  0.00    -0.166 F 
ATOM     37  F   UNL     1      -3.257   1.309  -1.118  0.00  0.00    -0.166 F 
ENDBRANCH  32  34
ENDBRANCH  26  28
ENDBRANCH  23  26
ENDBRANCH   5  23
TORSDOF 10
