REMARK  Name = ZINC40111161
REMARK  6 active torsions:
REMARK  status: ('A' for Active; 'I' for Inactive)
REMARK    1  A    between atoms: C_1  and  C_2
REMARK    2  A    between atoms: C_13  and  C_15
REMARK    3  A    between atoms: C_15  and  C_16
REMARK    4  A    between atoms: N_18  and  C_19
REMARK    5  A    between atoms: C_23  and  C_25
REMARK    6  A    between atoms: C_25  and  C_32
REMARK                            x       y       z     vdW  Elec       q    Type
REMARK                         _______ _______ _______ _____ _____    ______ ____
ROOT
ATOM      1  C   UNL     1      -0.406  -2.253  -2.366  0.00  0.00    +0.219 C 
ATOM      2  O   UNL     1       0.542  -1.606  -1.974  0.00  0.00    -0.275 OA
ATOM      3  N   UNL     1      -0.498  -2.593  -3.667  0.00  0.00    -0.285 N 
ATOM      4  H   UNL     1      -1.220  -3.166  -3.968  0.00  0.00    +0.155 HD
ENDROOT
BRANCH   3   5
ATOM      5  C   UNL     1       0.448  -2.119  -4.582  0.00  0.00    +0.034 A 
ATOM      6  C   UNL     1       1.774  -1.966  -4.197  0.00  0.00    +0.023 A 
ATOM      7  C   UNL     1       2.705  -1.498  -5.103  0.00  0.00    +0.002 A 
ATOM      8  C   UNL     1       2.319  -1.182  -6.393  0.00  0.00    +0.006 A 
ATOM      9  C   UNL     1       1.000  -1.333  -6.780  0.00  0.00    -0.014 A 
ATOM     10  C   UNL     1       0.065  -1.807  -5.880  0.00  0.00    +0.029 A 
BRANCH   9  11
ATOM     11  C   UNL     1       0.583  -0.987  -8.186  0.00  0.00    +0.135 C 
ATOM     12  C   UNL     1      -0.360   0.200  -8.186  0.00  0.00    +0.248 C 
ATOM     13  O   UNL     1      -1.449   0.269  -7.659  0.00  0.00    -0.273 OA
ATOM     14  N   UNL     1       0.266   1.161  -8.894  0.00  0.00    -0.238 N 
ATOM     15  C   UNL     1       1.460   0.751  -9.336  0.00  0.00    +0.307 C 
ATOM     16  O   UNL     1       2.209   1.443  -9.998  0.00  0.00    -0.252 OA
ATOM     17  N   UNL     1       1.739  -0.512  -8.967  0.00  0.00    -0.282 N 
ATOM     18  C   UNL     1      -0.066  -2.195  -8.866  0.00  0.00    +0.047 C 
ATOM     19  H   UNL     1      -0.105   2.042  -9.062  0.00  0.00    +0.159 HD
ATOM     20  H   UNL     1       2.543  -1.012  -9.174  0.00  0.00    +0.152 HD
ENDBRANCH   9  11
ENDBRANCH   3   5
BRANCH   1  21
ATOM     21  C   UNL     1      -1.481  -2.675  -1.398  0.00  0.00    +0.123 C 
BRANCH  21  34
ATOM     22  C   UNL     1      -0.042   1.507   0.009  0.00  0.00    +0.109 C 
ATOM     23  C   UNL     1      -0.011   0.000   0.001  0.00  0.00    +0.217 C 
ATOM     24  O   UNL     1       1.051  -0.585  -0.014  0.00  0.00    -0.276 OA
ATOM     25  N   UNL     1      -1.164  -0.697   0.010  0.00  0.00    -0.270 N 
ATOM     26  C   UNL     1      -2.382  -0.029   0.020  0.00  0.00    +0.079 C 
ATOM     27  C   UNL     1      -3.433  -0.579   0.641  0.00  0.00    +0.023 C 
ATOM     28  C   UNL     1      -3.284  -1.902   1.277  0.00  0.00    -0.019 A 
ATOM     29  C   UNL     1      -4.254  -2.384   2.155  0.00  0.00    +0.008 A 
ATOM     30  C   UNL     1      -4.084  -3.618   2.750  0.00  0.00    +0.001 A 
ATOM     31  C   UNL     1      -2.955  -4.372   2.479  0.00  0.00    +0.000 A 
ATOM     32  C   UNL     1      -1.992  -3.901   1.604  0.00  0.00    +0.006 A 
ATOM     33  C   UNL     1      -2.155  -2.675   0.997  0.00  0.00    -0.019 A 
ATOM     34  C   UNL     1      -1.137  -2.164   0.002  0.00  0.00    +0.120 C 
ENDBRANCH  21  34
ENDBRANCH   1  21
TORSDOF 4
