REMARK  Name = ZINC14276586
REMARK  8 active torsions:
REMARK  status: ('A' for Active; 'I' for Inactive)
REMARK    1  A    between atoms: C_1  and  C_2
REMARK    2  A    between atoms: C_9  and  N_14
REMARK    3  A    between atoms: C_10  and  C_11
REMARK    4  A    between atoms: N_14  and  C_15
REMARK    5  A    between atoms: C_15  and  N_17
REMARK    6  A    between atoms: C_18  and  C_20
REMARK    7  A    between atoms: C_23  and  O_28
REMARK    8  A    between atoms: O_28  and  C_29
REMARK                            x       y       z     vdW  Elec       q    Type
REMARK                         _______ _______ _______ _____ _____    ______ ____
ROOT
ATOM      1  C   UNL     1      -3.570  -6.204   0.396  0.00  0.00    +0.141 C 
ATOM      2  S   UNL     1      -4.597  -4.962  -0.181  0.00  0.00    -0.018 S 
ENDROOT
BRANCH   1   3
ATOM      3  N   UNL     1      -4.026  -7.469   0.484  0.00  0.00    -0.263 N 
ATOM      4  C   UNL     1      -5.290  -7.757   0.117  0.00  0.00    +0.255 C 
ATOM      5  O   UNL     1      -6.020  -6.875  -0.293  0.00  0.00    -0.270 OA
ATOM      6  H   UNL     1      -3.443  -8.172   0.811  0.00  0.00    +0.157 HD
BRANCH   4   7
ATOM      7  C   UNL     1      -5.788  -9.139   0.213  0.00  0.00    +0.113 A 
ATOM      8  C   UNL     1      -6.397  -9.586   1.392  0.00  0.00    +0.177 A 
ATOM      9  C   UNL     1      -6.867 -10.883   1.474  0.00  0.00    +0.204 A 
ATOM     10  C   UNL     1      -6.727 -11.746   0.393  0.00  0.00    +0.196 A 
ATOM     11  C   UNL     1      -6.118 -11.309  -0.778  0.00  0.00    +0.204 A 
ATOM     12  C   UNL     1      -5.649 -10.013  -0.873  0.00  0.00    +0.177 A 
ATOM     13  F   UNL     1      -5.057  -9.590  -2.011  0.00  0.00    -0.201 F 
ATOM     14  F   UNL     1      -5.984 -12.153  -1.824  0.00  0.00    -0.198 F 
ATOM     15  F   UNL     1      -7.460 -11.314   2.609  0.00  0.00    -0.198 F 
ATOM     16  F   UNL     1      -6.529  -8.750   2.445  0.00  0.00    -0.201 F 
BRANCH  10  17
ATOM     17  O   UNL     1      -7.186 -13.021   0.482  0.00  0.00    -0.489 OA
ATOM     18  C   UNL     1      -6.274 -14.006   0.971  0.00  0.00    +0.277 C 
ENDBRANCH  10  17
ENDBRANCH   4   7
ENDBRANCH   1   3
BRANCH   1  19
ATOM     19  N   UNL     1      -2.305  -5.916   0.763  0.00  0.00    -0.291 N 
ATOM     20  H   UNL     1      -1.723  -6.620   1.090  0.00  0.00    +0.154 HD
BRANCH  19  28
ATOM     21  C   UNL     1      -0.019   1.526   0.010  0.00  0.00    +0.008 C 
ATOM     22  C   UNL     1       0.002  -0.004   0.002  0.00  0.00    -0.009 C 
ATOM     23  C   UNL     1       0.742  -0.514   1.242  0.00  0.00    +0.008 C 
ATOM     24  C   UNL     1       0.984  -2.020   1.121  0.00  0.00    +0.037 C 
ATOM     25  C   UNL     1      -0.340  -2.706   0.809  0.00  0.00    -0.023 A 
ATOM     26  C   UNL     1      -1.390  -2.006   0.327  0.00  0.00    -0.004 A 
ATOM     27  S   UNL     1      -2.678  -3.203   0.125  0.00  0.00    -0.077 S 
ATOM     28  C   UNL     1      -1.837  -4.615   0.673  0.00  0.00    +0.084 A 
ATOM     29  C   UNL     1      -0.579  -4.127   0.999  0.00  0.00    +0.068 A 
ATOM     30  C   UNL     1      -1.437  -0.538   0.030  0.00  0.00    +0.046 C 
BRANCH  29  31
ATOM     31  C   UNL     1       0.469  -5.011   1.516  0.00  0.00    +0.244 C 
ATOM     32  O   UNL     1       0.577  -5.192   2.715  0.00  0.00    -0.270 OA
ATOM     33  N   UNL     1       1.314  -5.625   0.663  0.00  0.00    -0.325 N 
ATOM     34  H   UNL     1       1.228  -5.480  -0.292  0.00  0.00    +0.145 HD
ATOM     35  H   UNL     1       2.008  -6.210   1.005  0.00  0.00    +0.145 HD
ENDBRANCH  29  31
ENDBRANCH  19  28
ENDBRANCH   1  19
TORSDOF 6
