REMARK  Name = ZINC40761239
REMARK  3 active torsions:
REMARK  status: ('A' for Active; 'I' for Inactive)
REMARK    1  A    between atoms: C_12  and  N_28
REMARK    2  A    between atoms: C_13  and  S_17
REMARK    3  A    between atoms: S_17  and  C_18
REMARK                            x       y       z     vdW  Elec       q    Type
REMARK                         _______ _______ _______ _____ _____    ______ ____
ROOT
ATOM      1  C   UNL     1       0.070   1.369   0.933  0.00  0.00    +0.002 A 
ATOM      2  C   UNL     1       1.250   2.097   0.995  0.00  0.00    +0.001 A 
ATOM      3  C   UNL     1       2.460   1.432   0.909  0.00  0.00    +0.017 A 
ATOM      4  C   UNL     1       2.475   0.068   0.765  0.00  0.00    +0.041 A 
ATOM      5  C   UNL     1       1.294  -0.706   0.698  0.00  0.00    +0.080 A 
ATOM      6  C   UNL     1       0.076   0.007   0.789  0.00  0.00    +0.029 A 
ATOM      7  N   UNL     1       1.473  -2.037   0.555  0.00  0.00    -0.225 NA
ATOM      8  C   UNL     1       2.665  -2.584   0.482  0.00  0.00    +0.165 A 
ATOM      9  S   UNL     1       3.745  -1.167   0.619  0.00  0.00    -0.052 S 
ATOM     10  N   UNL     1       2.999  -3.917   0.338  0.00  0.00    -0.277 N 
ATOM     11  C   UNL     1       4.337  -4.298   0.281  0.00  0.00    +0.150 A 
ATOM     12  C   UNL     1       4.686  -5.641   0.129  0.00  0.00    +0.098 A 
ATOM     13  C   UNL     1       6.043  -5.967   0.077  0.00  0.00    +0.127 A 
ATOM     14  N   UNL     1       6.945  -4.992   0.174  0.00  0.00    -0.227 NA
ATOM     15  C   UNL     1       6.572  -3.736   0.316  0.00  0.00    +0.224 A 
ATOM     16  N   UNL     1       5.302  -3.386   0.364  0.00  0.00    -0.219 NA
ATOM     17  H   UNL     1       2.301  -4.588   0.276  0.00  0.00    +0.156 HD
ENDROOT
BRANCH  12  18
ATOM     18  N   UNL     1       3.701  -6.635   0.032  0.00  0.00    -0.353 N 
ATOM     19  H   UNL     1       2.762  -6.394   0.070  0.00  0.00    +0.142 HD
ATOM     20  H   UNL     1       3.959  -7.564  -0.073  0.00  0.00    +0.142 HD
ENDBRANCH  12  18
BRANCH  13  21
ATOM     21  S   UNL     1       6.554  -7.643  -0.112  0.00  0.00    -0.066 S 
BRANCH  21  22
ATOM     22  C   UNL     1       8.305  -7.538  -0.276  0.00  0.00    +0.040 A 
ATOM     23  C   UNL     1       9.123  -7.885   0.779  0.00  0.00    +0.017 A 
ATOM     24  C   UNL     1      10.508  -7.807   0.662  0.00  0.00    +0.002 A 
ATOM     25  C   UNL     1      11.091  -7.387  -0.495  0.00  0.00    +0.010 A 
ATOM     26  C   UNL     1      10.292  -7.026  -1.592  0.00  0.00    +0.001 A 
ATOM     27  C   UNL     1       8.882  -7.105  -1.490  0.00  0.00    +0.085 A 
ATOM     28  N   UNL     1       8.120  -6.767  -2.533  0.00  0.00    -0.254 NA
ATOM     29  C   UNL     1       8.649  -6.364  -3.663  0.00  0.00    +0.111 A 
ATOM     30  C   UNL     1      10.028  -6.268  -3.832  0.00  0.00    +0.020 A 
ATOM     31  C   UNL     1      10.865  -6.588  -2.801  0.00  0.00    +0.011 A 
ENDBRANCH  21  22
ENDBRANCH  13  21
TORSDOF 3
