REMARK  Name = ZINC59434236
REMARK  5 active torsions:
REMARK  status: ('A' for Active; 'I' for Inactive)
REMARK    1  A    between atoms: C_3  and  C_8
REMARK    2  A    between atoms: C_5  and  O_7
REMARK    3  A    between atoms: N_9  and  N_10
REMARK    4  A    between atoms: C_11  and  C_13
REMARK    5  A    between atoms: N_15  and  C_16
REMARK                            x       y       z     vdW  Elec       q    Type
REMARK                         _______ _______ _______ _____ _____    ______ ____
ROOT
ATOM      1  N   UNL     1       4.838   4.182  -0.028  0.00  0.00    -0.199 N 
ATOM      2  C   UNL     1       4.819   5.530  -0.023  0.00  0.00    +0.318 C 
ATOM      3  O   UNL     1       3.759   6.122  -0.018  0.00  0.00    -0.263 OA
ATOM      4  H   UNL     1       5.684   3.709  -0.031  0.00  0.00    +0.178 HD
ENDROOT
BRANCH   2   5
ATOM      5  C   UNL     1       6.099   6.294  -0.023  0.00  0.00    +0.305 C 
ATOM      6  O   UNL     1       7.159   5.702  -0.027  0.00  0.00    -0.265 OA
ATOM      7  N   UNL     1       6.080   7.641  -0.018  0.00  0.00    -0.278 N 
ATOM      8  H   UNL     1       5.236   8.115  -0.082  0.00  0.00    +0.155 HD
BRANCH   7   9
ATOM      9  C   UNL     1       7.277   8.356   0.080  0.00  0.00    +0.035 A 
ATOM     10  C   UNL     1       7.318   9.552   0.787  0.00  0.00    +0.023 A 
ATOM     11  C   UNL     1       8.502  10.257   0.881  0.00  0.00    +0.003 A 
ATOM     12  C   UNL     1       9.646   9.774   0.273  0.00  0.00    +0.015 A 
ATOM     13  C   UNL     1       9.609   8.584  -0.432  0.00  0.00    +0.020 A 
ATOM     14  C   UNL     1       8.429   7.871  -0.525  0.00  0.00    +0.038 A 
ATOM     15 BR   UNL     1      11.177   7.930  -1.263  0.00  0.00    -0.050 Br
ENDBRANCH   7   9
ENDBRANCH   2   5
BRANCH   1  17
ATOM     16  C   UNL     1       3.653   2.166  -0.032  0.00  0.00    +0.138 C 
ATOM     17  N   UNL     1       3.634   3.465  -0.028  0.00  0.00    -0.187 NA
BRANCH  16  20
ATOM     18  C   UNL     1      -0.018   1.379  -0.028  0.00  0.00    +0.004 A 
ATOM     19  C   UNL     1       1.165   2.090  -0.027  0.00  0.00    +0.010 A 
ATOM     20  C   UNL     1       2.386   1.411  -0.032  0.00  0.00    -0.002 A 
ATOM     21  C   UNL     1       2.403   0.015  -0.038  0.00  0.00    +0.054 A 
ATOM     22  C   UNL     1       1.210  -0.687  -0.038  0.00  0.00    +0.117 A 
ATOM     23  C   UNL     1       0.001  -0.003  -0.033  0.00  0.00    +0.045 A 
BRANCH  22  24
ATOM     24  O   UNL     1       1.221  -2.046  -0.044  0.00  0.00    -0.507 OA
ATOM     25  H   UNL     1       1.226  -2.443   0.838  0.00  0.00    +0.292 HD
ENDBRANCH  22  24
ENDBRANCH  16  20
ENDBRANCH   1  17
TORSDOF 5
