REMARK  Name = ZINC36496870
REMARK  13 active torsions:
REMARK  status: ('A' for Active; 'I' for Inactive)
REMARK    1  A    between atoms: C_1  and  C_2
REMARK    2  A    between atoms: C_2  and  C_3
REMARK    3  A    between atoms: C_3  and  C_5
REMARK    4  A    between atoms: C_3  and  C_11
REMARK    5  A    between atoms: N_13  and  C_14
REMARK    6  A    between atoms: N_13  and  C_20
REMARK    7  A    between atoms: C_14  and  C_15
REMARK    8  A    between atoms: C_20  and  C_22
REMARK    9  A    between atoms: C_20  and  C_31
REMARK   10  A    between atoms: C_23  and  O_30
REMARK   11  A    between atoms: C_25  and  O_29
REMARK   12  A    between atoms: C_27  and  O_28
REMARK   13  A    between atoms: N_33  and  C_34
REMARK                            x       y       z     vdW  Elec       q    Type
REMARK                         _______ _______ _______ _____ _____    ______ ____
ROOT
ATOM      1  C   UNL     1       0.423  -2.764   0.707  0.00  0.00    +0.200 C 
ENDROOT
BRANCH   1   2
ATOM      2  C   UNL     1       0.234  -3.238  -0.711  0.00  0.00    +0.065 A 
ATOM      3  C   UNL     1       1.226  -3.017  -1.654  0.00  0.00    +0.129 A 
ATOM      4  C   UNL     1       1.052  -3.453  -2.959  0.00  0.00    +0.091 A 
ATOM      5  C   UNL     1      -0.114  -4.109  -3.321  0.00  0.00    +0.124 A 
ATOM      6  C   UNL     1      -1.107  -4.331  -2.378  0.00  0.00    +0.091 A 
ATOM      7  C   UNL     1      -0.931  -3.899  -1.072  0.00  0.00    +0.129 A 
BRANCH   7   8
ATOM      8  O   UNL     1      -1.901  -4.120  -0.147  0.00  0.00    -0.506 OA
ATOM      9  H   UNL     1      -2.556  -3.411  -0.087  0.00  0.00    +0.292 HD
ENDBRANCH   7   8
BRANCH   5  10
ATOM     10  O   UNL     1      -0.285  -4.536  -4.600  0.00  0.00    -0.507 OA
ATOM     11  H   UNL     1       0.036  -5.433  -4.762  0.00  0.00    +0.292 HD
ENDBRANCH   5  10
BRANCH   3  12
ATOM     12  O   UNL     1       2.370  -2.374  -1.299  0.00  0.00    -0.506 OA
ATOM     13  H   UNL     1       3.092  -2.966  -1.046  0.00  0.00    +0.292 HD
ENDBRANCH   3  12
ENDBRANCH   1   2
BRANCH   1  14
ATOM     14  C   UNL     1       1.332  -3.718   1.438  0.00  0.00    +0.239 C 
ATOM     15  O   UNL     1       2.503  -3.442   1.593  0.00  0.00    -0.273 OA
ATOM     16  N   UNL     1       0.844  -4.878   1.920  0.00  0.00    -0.311 N 
ATOM     17  H   UNL     1      -0.092  -5.100   1.796  0.00  0.00    +0.149 HD
BRANCH  16  18
ATOM     18  C   UNL     1       1.728  -5.806   2.630  0.00  0.00    +0.073 C 
ATOM     19  C   UNL     1       2.450  -6.699   1.619  0.00  0.00    +0.022 C 
ATOM     20  C   UNL     1       3.373  -7.667   2.361  0.00  0.00    +0.002 C 
ATOM     21  C   UNL     1       2.544  -8.537   3.309  0.00  0.00    +0.000 C 
ATOM     22  C   UNL     1       1.822  -7.644   4.320  0.00  0.00    +0.002 C 
ATOM     23  C   UNL     1       0.899  -6.675   3.578  0.00  0.00    +0.022 C 
ENDBRANCH  16  18
ENDBRANCH   1  14
BRANCH   1  26
ATOM     24  C   UNL     1       0.246  -0.342   0.505  0.00  0.00    +0.224 C 
ATOM     25  O   UNL     1      -0.960  -0.460   0.456  0.00  0.00    -0.275 OA
ATOM     26  N   UNL     1       1.022  -1.427   0.700  0.00  0.00    -0.278 N 
BRANCH  24  27
ATOM     27  C   UNL     1       0.878   1.017   0.349  0.00  0.00    +0.105 C 
BRANCH  27  28
ATOM     28  C   UNL     1      -0.197   2.073   0.349  0.00  0.00    -0.036 A 
ATOM     29  C   UNL     1      -1.190   2.049  -0.613  0.00  0.00    +0.004 A 
ATOM     30  C   UNL     1      -2.176   3.017  -0.613  0.00  0.00    +0.000 A 
ATOM     31  C   UNL     1      -2.170   4.011   0.348  0.00  0.00    +0.000 A 
ATOM     32  C   UNL     1      -1.177   4.035   1.310  0.00  0.00    +0.000 A 
ATOM     33  C   UNL     1      -0.194   3.063   1.313  0.00  0.00    +0.004 A 
ENDBRANCH  27  28
BRANCH  27  35
ATOM     34  C   UNL     1       2.332   2.435  -1.106  0.00  0.00    +0.005 C 
ATOM     35  C   UNL     1       1.648   1.073  -0.972  0.00  0.00    +0.014 C 
ENDBRANCH  27  35
ENDBRANCH  24  27
BRANCH  26  36
ATOM     36  C   UNL     1       2.464  -1.270   0.903  0.00  0.00    +0.183 C 
BRANCH  36  37
ATOM     37  C   UNL     1       2.759  -1.207   2.380  0.00  0.00    +0.122 A 
ATOM     38  C   UNL     1       3.787  -1.810   3.004  0.00  0.00    +0.046 A 
ATOM     39  C   UNL     1       3.680  -1.487   4.376  0.00  0.00    +0.041 A 
ATOM     40  C   UNL     1       2.594  -0.705   4.509  0.00  0.00    +0.195 A 
ATOM     41  O   UNL     1       2.043  -0.534   3.296  0.00  0.00    -0.466 OA
ENDBRANCH  36  37
ENDBRANCH  26  36
ENDBRANCH   1  26
TORSDOF 12
