REMARK  Name = ZINC21081012
REMARK  8 active torsions:
REMARK  status: ('A' for Active; 'I' for Inactive)
REMARK    1  A    between atoms: C_1  and  C_2
REMARK    2  A    between atoms: C_5  and  C_7
REMARK    3  A    between atoms: N_8  and  N_9
REMARK    4  A    between atoms: C_12  and  S_15
REMARK    5  A    between atoms: S_15  and  C_16
REMARK    6  A    between atoms: C_16  and  C_17
REMARK    7  A    between atoms: C_17  and  C_18
REMARK    8  A    between atoms: N_20  and  C_21
REMARK                            x       y       z     vdW  Elec       q    Type
REMARK                         _______ _______ _______ _____ _____    ______ ____
ROOT
ATOM      1  N   UNL     1       1.124   5.497   0.028  0.00  0.00    -0.205 N 
ATOM      2  C   UNL     1       0.157   6.491   0.041  0.00  0.00    +0.232 A 
ATOM      3  N   UNL     1       0.390   7.838   0.054  0.00  0.00    -0.186 NA
ATOM      4  C   UNL     1      -0.818   8.475   0.064  0.00  0.00    +0.210 A 
ATOM      5  N   UNL     1      -1.759   7.561   0.059  0.00  0.00    -0.144 NA
ATOM      6  N   UNL     1      -1.141   6.304   0.039  0.00  0.00    -0.245 N 
ATOM      7  H   UNL     1       2.191   5.766   0.026  0.00  0.00    +0.177 HD
ATOM      8  H   UNL     1      -1.549   5.283   0.023  0.00  0.00    +0.192 HD
ENDROOT
BRANCH   1  10
ATOM      9  C   UNL     1       1.650   3.216   0.004  0.00  0.00    +0.176 C 
ATOM     10  N   UNL     1       0.743   4.149   0.016  0.00  0.00    -0.184 NA
BRANCH   9  15
ATOM     11  C   UNL     1      -1.210  -0.898  -0.026  0.00  0.00    +0.086 C 
ATOM     12  C   UNL     1       0.003  -0.003  -0.021  0.00  0.00    +0.103 A 
ATOM     13  C   UNL     1       1.286  -0.419  -0.030  0.00  0.00    +0.045 A 
ATOM     14  C   UNL     1       2.095   0.733  -0.021  0.00  0.00    +0.051 A 
ATOM     15  C   UNL     1       1.250   1.805  -0.008  0.00  0.00    +0.148 A 
ATOM     16  O   UNL     1      -0.015   1.340  -0.008  0.00  0.00    -0.459 OA
ENDBRANCH   9  15
ENDBRANCH   1  10
BRANCH   4  17
ATOM     17  S   UNL     1      -1.069  10.219   0.082  0.00  0.00    -0.084 S 
BRANCH  17  18
ATOM     18  C   UNL     1      -2.874  10.403   0.091  0.00  0.00    +0.086 C 
BRANCH  18  19
ATOM     19  C   UNL     1      -3.235  11.889   0.107  0.00  0.00    +0.107 C 
BRANCH  19  20
ATOM     20  C   UNL     1      -4.734  12.042   0.114  0.00  0.00    +0.218 C 
ATOM     21  O   UNL     1      -5.444  11.058   0.107  0.00  0.00    -0.275 OA
ATOM     22  N   UNL     1      -5.287  13.271   0.128  0.00  0.00    -0.285 N 
ATOM     23  H   UNL     1      -4.646  14.161   0.211  0.00  0.00    +0.155 HD
BRANCH  22  24
ATOM     24  C   UNL     1      -6.676  13.415   0.037  0.00  0.00    +0.033 A 
ATOM     25  C   UNL     1      -7.220  14.497  -0.643  0.00  0.00    +0.025 A 
ATOM     26  C   UNL     1      -8.591  14.634  -0.736  0.00  0.00    +0.022 A 
ATOM     27  C   UNL     1      -9.423  13.701  -0.142  0.00  0.00    +0.041 A 
ATOM     28  C   UNL     1      -8.883  12.625   0.541  0.00  0.00    +0.022 A 
ATOM     29  C   UNL     1      -7.513  12.480   0.631  0.00  0.00    +0.025 A 
ATOM     30 CL   UNL     1     -11.146  13.880  -0.255  0.00  0.00    -0.084 Cl
ENDBRANCH  22  24
ENDBRANCH  19  20
ENDBRANCH  18  19
ENDBRANCH  17  18
ENDBRANCH   4  17
TORSDOF 7
