REMARK  Name = ZINC19861659
REMARK  3 active torsions:
REMARK  status: ('A' for Active; 'I' for Inactive)
REMARK    1  A    between atoms: C_7  and  C_17
REMARK    2  A    between atoms: C_8  and  C_14
REMARK    3  A    between atoms: C_14  and  O_16
REMARK                            x       y       z     vdW  Elec       q    Type
REMARK                         _______ _______ _______ _____ _____    ______ ____
ROOT
ATOM      1  C   UNL     1      -3.367  -0.939   1.953  0.00  0.00    +0.000 C 
ATOM      2  C   UNL     1      -2.026  -1.646   2.159  0.00  0.00    +0.001 C 
ATOM      3  C   UNL     1      -1.441  -2.038   0.798  0.00  0.00    +0.010 C 
ATOM      4  C   UNL     1      -1.314  -0.779  -0.066  0.00  0.00    +0.020 C 
ATOM      5  C   UNL     1      -2.605   0.029  -0.222  0.00  0.00    +0.010 C 
ATOM      6  C   UNL     1      -3.155   0.358   1.170  0.00  0.00    +0.001 C 
ATOM      7  C   UNL     1       0.002  -0.004   0.002  0.00  0.00    +0.156 C 
ATOM      8  C   UNL     1      -0.326  -0.826  -1.262  0.00  0.00    +0.175 C 
ATOM      9  C   UNL     1       0.746  -1.893  -1.278  0.00  0.00    +0.258 C 
ATOM     10  O   UNL     1       0.860  -2.761  -2.117  0.00  0.00    -0.272 OA
ATOM     11  N   UNL     1       1.549  -1.728  -0.220  0.00  0.00    -0.144 NA
ATOM     12  C   UNL     1       1.223  -0.696   0.568  0.00  0.00    +0.256 C 
ATOM     13  O   UNL     1       1.812  -0.367   1.575  0.00  0.00    -0.272 OA
ENDROOT
BRANCH   7  14
ATOM     14  C   UNL     1      -0.018   1.503   0.010  0.00  0.00    +0.228 C 
ATOM     15  O   UNL     1      -1.077   2.095   0.018  0.00  0.00    -0.275 OA
ATOM     16  N   UNL     1       1.139   2.192   0.003  0.00  0.00    -0.328 N 
ATOM     17  H   UNL     1       1.125   3.292   0.009  0.00  0.00    +0.145 HD
ATOM     18  H   UNL     1       2.099   1.655  -0.009  0.00  0.00    +0.145 HD
ENDBRANCH   7  14
BRANCH   8  19
ATOM     19  C   UNL     1      -0.678  -0.175  -2.575  0.00  0.00    +0.322 C 
ATOM     20  O   UNL     1      -1.734   0.398  -2.701  0.00  0.00    -0.250 OA
BRANCH  19  21
ATOM     21  O   UNL     1       0.182  -0.232  -3.604  0.00  0.00    -0.480 OA
ATOM     22  H   UNL     1      -0.075   0.243  -4.562  0.00  0.00    +0.295 HD
ENDBRANCH  19  21
ENDBRANCH   8  19
TORSDOF 3
