REMARK  Name = ZINC59947395
REMARK  12 active torsions:
REMARK  status: ('A' for Active; 'I' for Inactive)
REMARK    1  A    between atoms: C_1  and  O_2
REMARK    2  A    between atoms: O_2  and  C_3
REMARK    3  A    between atoms: C_6  and  C_11
REMARK    4  A    between atoms: C_8  and  O_9
REMARK    5  A    between atoms: O_9  and  C_10
REMARK    6  A    between atoms: C_15  and  O_35
REMARK    7  A    between atoms: C_16  and  O_33
REMARK    8  A    between atoms: N_22  and  N_23
REMARK    9  A    between atoms: C_24  and  C_26
REMARK   10  A    between atoms: C_31  and  N_32
REMARK   11  A    between atoms: O_33  and  C_34
REMARK   12  A    between atoms: O_35  and  C_36
REMARK                            x       y       z     vdW  Elec       q    Type
REMARK                         _______ _______ _______ _____ _____    ______ ____
ROOT
ATOM      1  C   UNL     1       2.470  -2.516  -4.325  0.00  0.00    +0.157 C 
ATOM      2  C   UNL     1       3.953  -2.544  -4.082  0.00  0.00    -0.014 A 
ATOM      3  C   UNL     1       4.469  -3.521  -3.242  0.00  0.00    +0.055 A 
ATOM      4  C   UNL     1       5.828  -3.582  -2.991  0.00  0.00    +0.162 A 
ATOM      5  C   UNL     1       6.681  -2.656  -3.584  0.00  0.00    +0.162 A 
ATOM      6  C   UNL     1       6.162  -1.683  -4.419  0.00  0.00    +0.053 A 
ATOM      7  C   UNL     1       4.799  -1.627  -4.668  0.00  0.00    -0.030 A 
ATOM      8  C   UNL     1       4.277  -0.555  -5.585  0.00  0.00    +0.133 C 
ATOM      9  C   UNL     1       2.934  -0.922  -6.136  0.00  0.00    +0.237 C 
ATOM     10  O   UNL     1       2.558  -0.383  -7.155  0.00  0.00    -0.274 OA
ATOM     11  N   UNL     1       2.135  -1.816  -5.553  0.00  0.00    -0.208 N 
ENDROOT
BRANCH   1  15
ATOM     12  C   UNL     1       0.559  -0.551  -1.043  0.00  0.00    +0.162 A 
ATOM     13  C   UNL     1       1.144   0.194  -2.054  0.00  0.00    +0.050 A 
ATOM     14  C   UNL     1       1.761  -0.444  -3.114  0.00  0.00    +0.009 A 
ATOM     15  C   UNL     1       1.796  -1.825  -3.168  0.00  0.00    -0.017 A 
ATOM     16  C   UNL     1       1.214  -2.574  -2.162  0.00  0.00    +0.055 A 
ATOM     17  C   UNL     1       0.599  -1.941  -1.094  0.00  0.00    +0.162 A 
BRANCH  12  19
ATOM     18  C   UNL     1      -0.051   1.504  -0.013  0.00  0.00    +0.277 C 
ATOM     19  O   UNL     1      -0.049   0.076   0.000  0.00  0.00    -0.491 OA
ENDBRANCH  12  19
BRANCH  17  20
ATOM     20  O   UNL     1       0.030  -2.676  -0.101  0.00  0.00    -0.491 OA
ATOM     21  C   UNL     1       0.110  -4.098  -0.220  0.00  0.00    +0.277 C 
ENDBRANCH  17  20
ENDBRANCH   1  15
BRANCH  11  22
ATOM     22  N   UNL     1       0.903  -2.095  -6.159  0.00  0.00    -0.227 N 
ATOM     23  C   UNL     1      -0.108  -1.208  -6.070  0.00  0.00    +0.262 C 
ATOM     24  O   UNL     1       0.048  -0.166  -5.462  0.00  0.00    -0.269 OA
ATOM     25  H   UNL     1       0.778  -2.925  -6.644  0.00  0.00    +0.173 HD
BRANCH  23  26
ATOM     26  C   UNL     1      -1.405  -1.501  -6.708  0.00  0.00    +0.059 A 
ATOM     27  C   UNL     1      -1.553  -2.636  -7.509  0.00  0.00    +0.015 A 
ATOM     28  C   UNL     1      -2.767  -2.905  -8.103  0.00  0.00    +0.001 A 
ATOM     29  C   UNL     1      -3.844  -2.054  -7.910  0.00  0.00    +0.002 A 
ATOM     30  C   UNL     1      -3.714  -0.929  -7.122  0.00  0.00    +0.023 A 
ATOM     31  C   UNL     1      -2.499  -0.645  -6.509  0.00  0.00    +0.037 A 
BRANCH  31  32
ATOM     32  N   UNL     1      -2.367   0.483  -5.710  0.00  0.00    -0.357 N 
ATOM     33  H   UNL     1      -1.499   0.724  -5.352  0.00  0.00    +0.142 HD
ATOM     34  H   UNL     1      -3.144   1.029  -5.510  0.00  0.00    +0.142 HD
ENDBRANCH  31  32
ENDBRANCH  23  26
ENDBRANCH  11  22
BRANCH   5  35
ATOM     35  O   UNL     1       8.019  -2.707  -3.342  0.00  0.00    -0.491 OA
ATOM     36  C   UNL     1       8.832  -1.724  -3.985  0.00  0.00    +0.277 C 
ENDBRANCH   5  35
BRANCH   4  37
ATOM     37  O   UNL     1       6.327  -4.542  -2.167  0.00  0.00    -0.491 OA
ATOM     38  C   UNL     1       5.391  -5.457  -1.595  0.00  0.00    +0.277 C 
ENDBRANCH   4  37
TORSDOF 8
