REMARK  Name = ZINC08684316
REMARK  10 active torsions:
REMARK  status: ('A' for Active; 'I' for Inactive)
REMARK    1  A    between atoms: C_1  and  C_2
REMARK    2  A    between atoms: C_2  and  O_3
REMARK    3  A    between atoms: O_3  and  C_4
REMARK    4  A    between atoms: C_6  and  C_11
REMARK    5  A    between atoms: C_9  and  O_10
REMARK    6  A    between atoms: C_13  and  C_20
REMARK    7  A    between atoms: C_14  and  C_19
REMARK    8  A    between atoms: N_22  and  C_23
REMARK    9  A    between atoms: C_26  and  O_29
REMARK   10  A    between atoms: O_29  and  C_30
REMARK                            x       y       z     vdW  Elec       q    Type
REMARK                         _______ _______ _______ _____ _____    ______ ____
ROOT
ATOM      1  C   UNL     1       0.287  -4.696  -0.155  0.00  0.00    +0.139 C 
ATOM      2  C   UNL     1       0.730  -4.745   1.294  0.00  0.00    +0.056 C 
ATOM      3  C   UNL     1       0.672  -5.935   1.929  0.00  0.00    +0.017 C 
ATOM      4  N   UNL     1       0.229  -7.056   1.286  0.00  0.00    -0.300 N 
ATOM      5  C   UNL     1      -0.174  -7.070   0.009  0.00  0.00    +0.135 C 
ATOM      6  N   UNL     1      -0.172  -5.960  -0.754  0.00  0.00    -0.315 N 
ATOM      7  S   UNL     1      -0.706  -8.546  -0.675  0.00  0.00    -0.019 S 
ATOM      8  C   UNL     1       1.103  -6.028   3.369  0.00  0.00    +0.061 C 
ATOM      9  H   UNL     1       0.205  -7.889   1.783  0.00  0.00    +0.154 HD
ATOM     10  H   UNL     1      -0.468  -5.993  -1.678  0.00  0.00    +0.149 HD
ENDROOT
BRANCH   1  13
ATOM     11  C   UNL     1       2.543  -2.388  -2.118  0.00  0.00    +0.162 A 
ATOM     12  C   UNL     1       1.482  -2.859  -1.362  0.00  0.00    +0.055 A 
ATOM     13  C   UNL     1       1.443  -4.186  -0.977  0.00  0.00    -0.019 A 
ATOM     14  C   UNL     1       2.462  -5.045  -1.343  0.00  0.00    +0.009 A 
ATOM     15  C   UNL     1       3.525  -4.582  -2.096  0.00  0.00    +0.049 A 
ATOM     16  C   UNL     1       3.566  -3.254  -2.491  0.00  0.00    +0.158 A 
BRANCH  16  17
ATOM     17  O   UNL     1       4.608  -2.798  -3.237  0.00  0.00    -0.503 OA
ATOM     18  H   UNL     1       5.350  -2.464  -2.714  0.00  0.00    +0.292 HD
ENDBRANCH  16  17
BRANCH  11  19
ATOM     19  O   UNL     1       2.583  -1.083  -2.498  0.00  0.00    -0.489 OA
BRANCH  19  21
ATOM     20  C   UNL     1       1.831   1.213  -2.432  0.00  0.00    +0.048 C 
ATOM     21  C   UNL     1       1.568  -0.223  -1.975  0.00  0.00    +0.226 C 
ENDBRANCH  19  21
ENDBRANCH  11  19
ENDBRANCH   1  13
BRANCH   2  22
ATOM     22  C   UNL     1       1.189  -3.582   1.959  0.00  0.00    +0.248 C 
ATOM     23  O   UNL     1       0.390  -2.780   2.405  0.00  0.00    -0.270 OA
ATOM     24  N   UNL     1       2.512  -3.363   2.097  0.00  0.00    -0.282 N 
ATOM     25  H   UNL     1       3.149  -3.948   1.657  0.00  0.00    +0.155 HD
BRANCH  24  26
ATOM     26  C   UNL     1       2.967  -2.292   2.876  0.00  0.00    +0.034 A 
ATOM     27  C   UNL     1       2.248  -1.892   3.995  0.00  0.00    +0.027 A 
ATOM     28  C   UNL     1       2.697  -0.836   4.763  0.00  0.00    +0.047 A 
ATOM     29  C   UNL     1       3.866  -0.174   4.416  0.00  0.00    +0.120 A 
ATOM     30  C   UNL     1       4.585  -0.573   3.299  0.00  0.00    +0.047 A 
ATOM     31  C   UNL     1       4.140  -1.632   2.533  0.00  0.00    +0.027 A 
BRANCH  29  32
ATOM     32  O   UNL     1       4.308   0.866   5.173  0.00  0.00    -0.495 OA
ATOM     33  C   UNL     1       5.519   1.502   4.758  0.00  0.00    +0.277 C 
ENDBRANCH  29  32
ENDBRANCH  24  26
ENDBRANCH   2  22
TORSDOF 7
