REMARK  Name = ZINC66951975
REMARK  9 active torsions:
REMARK  status: ('A' for Active; 'I' for Inactive)
REMARK    1  A    between atoms: C_1  and  C_2
REMARK    2  A    between atoms: C_2  and  C_3
REMARK    3  A    between atoms: C_2  and  C_4
REMARK    4  A    between atoms: C_2  and  N_5
REMARK    5  A    between atoms: C_6  and  C_8
REMARK    6  A    between atoms: C_11  and  N_14
REMARK    7  A    between atoms: N_17  and  C_18
REMARK    8  A    between atoms: C_18  and  C_19
REMARK    9  A    between atoms: C_19  and  O_29
REMARK                            x       y       z     vdW  Elec       q    Type
REMARK                         _______ _______ _______ _____ _____    ______ ____
ROOT
ATOM      1  N   UNL     1       4.614  -1.956  -6.067  0.00  0.00    -0.269 N 
ATOM      2  C   UNL     1       5.864  -1.533  -6.340  0.00  0.00    +0.304 C 
ATOM      3  O   UNL     1       6.457  -0.833  -5.542  0.00  0.00    -0.253 OA
ATOM      4  N   UNL     1       6.456  -1.885  -7.498  0.00  0.00    -0.296 N 
ATOM      5  H   UNL     1       4.165  -2.567  -6.672  0.00  0.00    +0.156 HD
ATOM      6  H   UNL     1       5.983  -2.443  -8.135  0.00  0.00    +0.150 HD
ENDROOT
BRANCH   1  10
ATOM      7  C   UNL     1       2.675  -0.639  -2.623  0.00  0.00    +0.037 A 
ATOM      8  C   UNL     1       4.055  -0.862  -2.608  0.00  0.00    +0.015 A 
ATOM      9  C   UNL     1       4.692  -1.297  -3.748  0.00  0.00    +0.024 A 
ATOM     10  C   UNL     1       3.965  -1.515  -4.914  0.00  0.00    +0.035 A 
ATOM     11  C   UNL     1       2.591  -1.293  -4.932  0.00  0.00    +0.024 A 
ATOM     12  C   UNL     1       1.947  -0.864  -3.794  0.00  0.00    +0.015 A 
BRANCH   7  14
ATOM     13  N   UNL     1       2.692   0.044  -0.274  0.00  0.00    -0.307 N 
ATOM     14  C   UNL     1       1.988  -0.173  -1.403  0.00  0.00    +0.244 C 
ATOM     15  O   UNL     1       0.787   0.016  -1.416  0.00  0.00    -0.270 OA
ATOM     16  H   UNL     1       3.650  -0.107  -0.264  0.00  0.00    +0.150 HD
BRANCH  13  18
ATOM     17  C   UNL     1       0.954  -0.520   1.351  0.00  0.00    +0.031 C 
ATOM     18  C   UNL     1       2.010   0.506   0.937  0.00  0.00    +0.026 C 
ATOM     19  C   UNL     1       1.335   1.851   0.660  0.00  0.00    +0.031 C 
ATOM     20  C   UNL     1       3.031   0.671   2.065  0.00  0.00    +0.031 C 
ENDBRANCH  13  18
ENDBRANCH   7  14
ENDBRANCH   1  10
BRANCH   4  21
ATOM     21  C   UNL     1       7.815  -1.425  -7.795  0.00  0.00    +0.145 C 
BRANCH  21  22
ATOM     22  C   UNL     1       8.202  -1.857  -9.211  0.00  0.00    +0.107 C 
ATOM     23  C   UNL     1       8.115  -3.378  -9.315  0.00  0.00    +0.041 C 
ATOM     24  C   UNL     1       8.711  -3.805 -10.661  0.00  0.00    +0.008 C 
ATOM     25  C   UNL     1      10.220  -3.573 -10.616  0.00  0.00    +0.035 C 
ATOM     26  C   UNL     1      10.526  -2.170 -10.159  0.00  0.00    -0.041 A 
ATOM     27  C   UNL     1       9.600  -1.384  -9.510  0.00  0.00    -0.011 A 
ATOM     28  C   UNL     1       9.948  -0.101  -9.109  0.00  0.00    +0.007 A 
ATOM     29  C   UNL     1      11.213   0.393  -9.358  0.00  0.00    +0.000 A 
ATOM     30  C   UNL     1      12.141  -0.395 -10.013  0.00  0.00    +0.000 A 
ATOM     31  C   UNL     1      11.797  -1.671 -10.410  0.00  0.00    +0.004 A 
BRANCH  22  32
ATOM     32  O   UNL     1       7.295  -1.269 -10.147  0.00  0.00    -0.382 OA
ATOM     33  H   UNL     1       7.288  -0.302 -10.133  0.00  0.00    +0.211 HD
ENDBRANCH  22  32
ENDBRANCH  21  22
ENDBRANCH   4  21
TORSDOF 6
