REMARK  Name = ZINC55030616
REMARK  7 active torsions:
REMARK  status: ('A' for Active; 'I' for Inactive)
REMARK    1  A    between atoms: C_4  and  N_7
REMARK    2  A    between atoms: N_10  and  C_11
REMARK    3  A    between atoms: N_14  and  C_17
REMARK    4  A    between atoms: C_17  and  C_18
REMARK    5  A    between atoms: N_20  and  C_21
REMARK    6  A    between atoms: C_21  and  C_22
REMARK    7  A    between atoms: C_22  and  C_23
REMARK                            x       y       z     vdW  Elec       q    Type
REMARK                         _______ _______ _______ _____ _____    ______ ____
ROOT
ATOM      1  C   UNL     1       4.848  -4.106   0.247  0.00  0.00    +0.071 C 
ATOM      2  C   UNL     1       4.691  -4.519   1.713  0.00  0.00    +0.004 C 
ATOM      3  C   UNL     1       4.797  -6.041   1.823  0.00  0.00    -0.076 C 
ATOM      4  N   UNL     1       6.107  -6.481   1.327  0.00  0.00    +0.385 N 
ATOM      5  C   UNL     1       6.236  -6.151  -0.098  0.00  0.00    -0.076 C 
ATOM      6  C   UNL     1       6.185  -4.633  -0.281  0.00  0.00    +0.004 C 
ATOM      7  H   UNL     1       6.836  -6.014   1.846  0.00  0.00    -0.081 HD
ENDROOT
BRANCH   1  11
ATOM      8  N   UNL     1       3.622  -0.651  -0.036  0.00  0.00    -0.269 N 
ATOM      9  C   UNL     1       3.645  -1.995   0.058  0.00  0.00    +0.304 C 
ATOM     10  O   UNL     1       2.603  -2.622   0.065  0.00  0.00    -0.253 OA
ATOM     11  N   UNL     1       4.823  -2.644   0.144  0.00  0.00    -0.296 N 
ATOM     12  H   UNL     1       4.452  -0.155  -0.110  0.00  0.00    +0.156 HD
ATOM     13  H   UNL     1       5.654  -2.144   0.139  0.00  0.00    +0.151 HD
BRANCH   8  17
ATOM     14  C   UNL     1      -0.018   1.377  -0.014  0.00  0.00    +0.000 A 
ATOM     15  C   UNL     1       1.092   1.944   0.587  0.00  0.00    +0.002 A 
ATOM     16  C   UNL     1       2.300   1.274   0.581  0.00  0.00    +0.023 A 
ATOM     17  C   UNL     1       2.399   0.030  -0.029  0.00  0.00    +0.035 A 
ATOM     18  C   UNL     1       1.283  -0.536  -0.631  0.00  0.00    +0.023 A 
ATOM     19  C   UNL     1       0.078   0.139  -0.622  0.00  0.00    +0.002 A 
ENDBRANCH   8  17
ENDBRANCH   1  11
BRANCH   4  20
ATOM     20  C   UNL     1       6.235  -7.933   1.506  0.00  0.00    +0.019 C 
BRANCH  20  21
ATOM     21  C   UNL     1       7.623  -8.367   1.111  0.00  0.00    +0.196 C 
ATOM     22  O   UNL     1       8.427  -7.548   0.720  0.00  0.00    -0.278 OA
ATOM     23  N   UNL     1       7.971  -9.667   1.194  0.00  0.00    -0.317 N 
ATOM     24  H   UNL     1       7.329 -10.322   1.507  0.00  0.00    +0.149 HD
BRANCH  23  25
ATOM     25  C   UNL     1       9.321 -10.089   0.811  0.00  0.00    +0.109 C 
BRANCH  25  26
ATOM     26  C   UNL     1       9.454 -11.602   0.997  0.00  0.00    +0.054 C 
BRANCH  26  27
ATOM     27  C   UNL     1      10.842 -12.036   0.603  0.00  0.00    -0.046 A 
ATOM     28  C   UNL     1      11.107 -12.402  -0.704  0.00  0.00    +0.006 A 
ATOM     29  C   UNL     1      12.379 -12.800  -1.067  0.00  0.00    +0.038 A 
ATOM     30  C   UNL     1      13.390 -12.833  -0.121  0.00  0.00    +0.123 A 
ATOM     31  C   UNL     1      13.124 -12.467   1.188  0.00  0.00    +0.038 A 
ATOM     32  C   UNL     1      11.851 -12.064   1.547  0.00  0.00    +0.006 A 
ATOM     33  F   UNL     1      14.634 -13.222  -0.474  0.00  0.00    -0.205 F 
ENDBRANCH  26  27
ENDBRANCH  25  26
ENDBRANCH  23  25
ENDBRANCH  20  21
ENDBRANCH   4  20
TORSDOF 7
