REMARK  Name = ZINC02361299
REMARK  11 active torsions:
REMARK  status: ('A' for Active; 'I' for Inactive)
REMARK    1  A    between atoms: C_1  and  C_2
REMARK    2  A    between atoms: C_5  and  C_8
REMARK    3  A    between atoms: C_8  and  C_9
REMARK    4  A    between atoms: C_8  and  C_16
REMARK    5  A    between atoms: C_8  and  O_30
REMARK    6  A    between atoms: C_12  and  C_15
REMARK    7  A    between atoms: N_18  and  N_19
REMARK    8  A    between atoms: C_20  and  C_21
REMARK    9  A    between atoms: C_25  and  O_28
REMARK   10  A    between atoms: C_26  and  O_27
REMARK   11  A    between atoms: O_28  and  C_29
REMARK                            x       y       z     vdW  Elec       q    Type
REMARK                         _______ _______ _______ _____ _____    ______ ____
ROOT
ATOM      1  C   UNL     1      -5.099   7.928   0.088  0.00  0.00    +0.194 C 
ENDROOT
BRANCH   1   6
ATOM      2  C   UNL     1      -8.534   9.053   4.597  0.00  0.00    +0.044 C 
ATOM      3  C   UNL     1      -7.638   8.759   3.421  0.00  0.00    -0.050 A 
ATOM      4  C   UNL     1      -8.188   8.525   2.175  0.00  0.00    +0.004 A 
ATOM      5  C   UNL     1      -7.367   8.256   1.096  0.00  0.00    +0.007 A 
ATOM      6  C   UNL     1      -5.995   8.222   1.264  0.00  0.00    -0.003 A 
ATOM      7  C   UNL     1      -5.445   8.451   2.512  0.00  0.00    +0.007 A 
ATOM      8  C   UNL     1      -6.267   8.725   3.589  0.00  0.00    +0.004 A 
ENDBRANCH   1   6
BRANCH   1   9
ATOM      9  C   UNL     1      -4.529   9.218  -0.443  0.00  0.00    -0.003 A 
ATOM     10  C   UNL     1      -3.842  10.070   0.401  0.00  0.00    +0.007 A 
ATOM     11  C   UNL     1      -3.316  11.251  -0.088  0.00  0.00    +0.004 A 
ATOM     12  C   UNL     1      -3.485  11.585  -1.419  0.00  0.00    -0.050 A 
ATOM     13  C   UNL     1      -4.176  10.735  -2.262  0.00  0.00    +0.004 A 
ATOM     14  C   UNL     1      -4.699   9.552  -1.774  0.00  0.00    +0.007 A 
ATOM     15  C   UNL     1      -2.915  12.875  -1.950  0.00  0.00    +0.044 C 
ENDBRANCH   1   9
BRANCH   1  16
ATOM     16  C   UNL     1      -3.975   7.026   0.526  0.00  0.00    +0.273 C 
ATOM     17  O   UNL     1      -2.907   7.500   0.852  0.00  0.00    -0.270 OA
ATOM     18  N   UNL     1      -4.156   5.690   0.557  0.00  0.00    -0.204 N 
ATOM     19  H   UNL     1      -5.009   5.310   0.297  0.00  0.00    +0.177 HD
BRANCH  18  20
ATOM     20  N   UNL     1      -3.110   4.851   0.964  0.00  0.00    -0.188 NA
ATOM     21  C   UNL     1      -3.285   3.565   0.994  0.00  0.00    +0.142 C 
BRANCH  21  22
ATOM     22  C   UNL     1      -2.185   2.682   1.422  0.00  0.00    +0.040 A 
ATOM     23  C   UNL     1      -2.367   1.296   1.450  0.00  0.00    +0.013 A 
ATOM     24  C   UNL     1      -1.338   0.474   1.856  0.00  0.00    +0.004 A 
ATOM     25  C   UNL     1      -0.118   1.013   2.227  0.00  0.00    +0.049 A 
ATOM     26  C   UNL     1       0.079   2.385   2.200  0.00  0.00    +0.162 A 
ATOM     27  C   UNL     1      -0.952   3.227   1.798  0.00  0.00    +0.167 A 
BRANCH  27  28
ATOM     28  O   UNL     1      -0.762   4.572   1.771  0.00  0.00    -0.503 OA
ATOM     29  H   UNL     1      -0.427   4.905   0.927  0.00  0.00    +0.292 HD
ENDBRANCH  27  28
BRANCH  26  30
ATOM     30  O   UNL     1       1.280   2.907   2.566  0.00  0.00    -0.491 OA
ATOM     31  C   UNL     1       2.294   1.983   2.968  0.00  0.00    +0.277 C 
ENDBRANCH  26  30
ENDBRANCH  21  22
ENDBRANCH  18  20
ENDBRANCH   1  16
BRANCH   1  32
ATOM     32  O   UNL     1      -5.856   7.283  -0.938  0.00  0.00    -0.371 OA
ATOM     33  H   UNL     1      -5.342   7.064  -1.727  0.00  0.00    +0.212 HD
ENDBRANCH   1  32
TORSDOF 8
