REMARK  Name = ZINC01111489
REMARK  8 active torsions:
REMARK  status: ('A' for Active; 'I' for Inactive)
REMARK    1  A    between atoms: C_1  and  C_2
REMARK    2  A    between atoms: C_5  and  N_8
REMARK    3  A    between atoms: C_9  and  C_11
REMARK    4  A    between atoms: C_11  and  C_13
REMARK    5  A    between atoms: C_11  and  S_14
REMARK    6  A    between atoms: S_14  and  C_15
REMARK    7  A    between atoms: C_20  and  N_28
REMARK    8  A    between atoms: N_21  and  C_22
REMARK                            x       y       z     vdW  Elec       q    Type
REMARK                         _______ _______ _______ _____ _____    ______ ____
ROOT
ATOM      1  C   UNL     1       0.120  -8.811   2.561  0.00  0.00    +0.179 A 
ATOM      2  N   UNL     1       0.525  -9.330   1.421  0.00  0.00    -0.185 NA
ATOM      3  C   UNL     1       0.288 -10.617   1.125  0.00  0.00    +0.276 A 
ATOM      4  O   UNL     1       0.671 -11.083   0.062  0.00  0.00    -0.266 OA
ATOM      5  C   UNL     1      -0.404 -11.431   2.045  0.00  0.00    +0.114 A 
ATOM      6  C   UNL     1      -0.820 -10.885   3.225  0.00  0.00    +0.108 A 
ATOM      7  N   UNL     1      -0.548  -9.565   3.482  0.00  0.00    -0.277 N 
ENDROOT
BRANCH   7   8
ATOM      8  C   UNL     1      -0.962  -8.988   4.689  0.00  0.00    +0.050 A 
ATOM      9  C   UNL     1      -1.991  -8.056   4.699  0.00  0.00    +0.026 A 
ATOM     10  C   UNL     1      -2.396  -7.489   5.891  0.00  0.00    +0.002 A 
ATOM     11  C   UNL     1      -1.779  -7.849   7.075  0.00  0.00    +0.000 A 
ATOM     12  C   UNL     1      -0.753  -8.777   7.069  0.00  0.00    +0.002 A 
ATOM     13  C   UNL     1      -0.348  -9.352   5.880  0.00  0.00    +0.026 A 
ENDBRANCH   7   8
BRANCH   6  14
ATOM     14  N   UNL     1      -1.498 -11.650   4.146  0.00  0.00    -0.344 N 
ATOM     15  H   UNL     1      -1.604 -12.603   4.001  0.00  0.00    +0.144 HD
ATOM     16  H   UNL     1      -1.871 -11.236   4.940  0.00  0.00    +0.144 HD
ENDBRANCH   6  14
BRANCH   1  17
ATOM     17  S   UNL     1       0.452  -7.116   2.907  0.00  0.00    -0.075 S 
BRANCH  17  18
ATOM     18  C   UNL     1       1.337  -6.532   1.435  0.00  0.00    +0.137 C 
ATOM     19  C   UNL     1       2.679  -7.260   1.324  0.00  0.00    +0.029 C 
BRANCH  18  21
ATOM     20  N   UNL     1       1.742  -4.306   0.436  0.00  0.00    -0.285 N 
ATOM     21  C   UNL     1       1.577  -5.049   1.548  0.00  0.00    +0.230 C 
ATOM     22  O   UNL     1       1.623  -4.524   2.640  0.00  0.00    -0.274 OA
ATOM     23  H   UNL     1       1.637  -4.712  -0.439  0.00  0.00    +0.155 HD
BRANCH  20  28
ATOM     24  C   UNL     1       3.047   1.198   0.867  0.00  0.00    +0.044 C 
ATOM     25  C   UNL     1       2.700  -0.264   0.752  0.00  0.00    -0.050 A 
ATOM     26  C   UNL     1       3.170  -1.160   1.695  0.00  0.00    +0.005 A 
ATOM     27  C   UNL     1       2.854  -2.501   1.593  0.00  0.00    +0.023 A 
ATOM     28  C   UNL     1       2.063  -2.948   0.542  0.00  0.00    +0.033 A 
ATOM     29  C   UNL     1       1.592  -2.046  -0.402  0.00  0.00    +0.023 A 
ATOM     30  C   UNL     1       1.908  -0.705  -0.291  0.00  0.00    +0.005 A 
ENDBRANCH  20  28
ENDBRANCH  18  21
ENDBRANCH  17  18
ENDBRANCH   1  17
TORSDOF 6
