REMARK  Name = ZINC03049873
REMARK  11 active torsions:
REMARK  status: ('A' for Active; 'I' for Inactive)
REMARK    1  A    between atoms: C_1  and  C_2
REMARK    2  A    between atoms: C_5  and  C_25
REMARK    3  A    between atoms: C_6  and  O_8
REMARK    4  A    between atoms: O_8  and  C_9
REMARK    5  A    between atoms: C_9  and  C_10
REMARK    6  A    between atoms: N_12  and  N_13
REMARK    7  A    between atoms: C_14  and  C_15
REMARK    8  A    between atoms: C_18  and  O_23
REMARK    9  A    between atoms: C_20  and  O_21
REMARK   10  A    between atoms: C_25  and  C_26
REMARK   11  A    between atoms: C_25  and  C_27
REMARK                            x       y       z     vdW  Elec       q    Type
REMARK                         _______ _______ _______ _____ _____    ______ ____
ROOT
ATOM      1  C   UNL     1      -2.552   5.448   0.044  0.00  0.00    +0.270 C 
ATOM      2  O   UNL     1      -1.508   6.066   0.042  0.00  0.00    -0.270 OA
ATOM      3  N   UNL     1      -2.537   4.100   0.036  0.00  0.00    -0.204 N 
ATOM      4  H   UNL     1      -3.371   3.606   0.038  0.00  0.00    +0.177 HD
ENDROOT
BRANCH   3   5
ATOM      5  N   UNL     1      -1.316   3.413   0.027  0.00  0.00    -0.188 NA
ATOM      6  C   UNL     1      -1.301   2.115   0.020  0.00  0.00    +0.142 C 
BRANCH   6   7
ATOM      7  C   UNL     1      -0.017   1.393   0.010  0.00  0.00    +0.038 A 
ATOM      8  C   UNL     1       0.002  -0.004   0.002  0.00  0.00    +0.032 A 
ATOM      9  C   UNL     1       1.206  -0.676  -0.013  0.00  0.00    +0.061 A 
ATOM     10  C   UNL     1       2.402   0.032  -0.021  0.00  0.00    +0.148 A 
ATOM     11  C   UNL     1       2.393   1.420  -0.014  0.00  0.00    +0.102 A 
ATOM     12  C   UNL     1       1.191   2.105   0.002  0.00  0.00    +0.143 A 
ATOM     13 BR   UNL     1       4.026   2.375  -0.026  0.00  0.00    -0.043 Br
ATOM     14 BR   UNL     1       1.229  -2.567  -0.024  0.00  0.00    -0.046 Br
BRANCH  12  15
ATOM     15  O   UNL     1       1.181   3.464   0.009  0.00  0.00    -0.505 OA
ATOM     16  H   UNL     1       1.186   3.853   0.894  0.00  0.00    +0.292 HD
ENDBRANCH  12  15
BRANCH  10  17
ATOM     17  O   UNL     1       3.584  -0.637  -0.036  0.00  0.00    -0.504 OA
ATOM     18  H   UNL     1       3.918  -0.826  -0.924  0.00  0.00    +0.292 HD
ENDBRANCH  10  17
ENDBRANCH   6   7
ENDBRANCH   3   5
BRANCH   1  19
ATOM     19  C   UNL     1      -3.866   6.186   0.054  0.00  0.00    +0.326 C 
BRANCH  19  20
ATOM     20  O   UNL     1      -3.620   7.594   0.060  0.00  0.00    -0.482 OA
BRANCH  20  26
ATOM     21  C   UNL     1      -8.474   8.107   0.085  0.00  0.00    +0.044 C 
ATOM     22  C   UNL     1      -7.087   8.697   0.083  0.00  0.00    -0.047 A 
ATOM     23  C   UNL     1      -6.920  10.070   0.090  0.00  0.00    +0.004 A 
ATOM     24  C   UNL     1      -5.650  10.614   0.086  0.00  0.00    +0.008 A 
ATOM     25  C   UNL     1      -4.543   9.787   0.077  0.00  0.00    -0.003 A 
ATOM     26  C   UNL     1      -4.707   8.410   0.070  0.00  0.00    +0.125 A 
ATOM     27  C   UNL     1      -5.984   7.866   0.067  0.00  0.00    +0.049 A 
BRANCH  25  28
ATOM     28  C   UNL     1      -3.158  10.381   0.074  0.00  0.00    +0.016 C 
ATOM     29  C   UNL     1      -2.979  11.251  -1.171  0.00  0.00    +0.012 C 
ATOM     30  C   UNL     1      -2.968  11.238   1.327  0.00  0.00    +0.012 C 
ENDBRANCH  25  28
ENDBRANCH  20  26
ENDBRANCH  19  20
ENDBRANCH   1  19
TORSDOF 8
