REMARK  Name = ZINC39353245
REMARK  7 active torsions:
REMARK  status: ('A' for Active; 'I' for Inactive)
REMARK    1  A    between atoms: C_1  and  C_2
REMARK    2  A    between atoms: C_5  and  C_20
REMARK    3  A    between atoms: C_6  and  C_19
REMARK    4  A    between atoms: N_8  and  C_9
REMARK    5  A    between atoms: C_13  and  C_15
REMARK    6  A    between atoms: C_21  and  C_22
REMARK    7  A    between atoms: C_21  and  C_24
REMARK                            x       y       z     vdW  Elec       q    Type
REMARK                         _______ _______ _______ _____ _____    ______ ____
ROOT
ATOM      1  C   UNL     1      -0.238   1.642   0.156  0.00  0.00    +0.032 C 
ATOM      2  C   UNL     1      -0.166   0.119   0.032  0.00  0.00    +0.094 C 
ATOM      3  C   UNL     1      -1.554  -0.464   0.075  0.00  0.00    +0.000 C 
ATOM      4  C   UNL     1      -1.663  -1.287   1.112  0.00  0.00    -0.028 C 
ATOM      5  C   UNL     1      -0.359  -1.334   1.863  0.00  0.00    +0.101 C 
ATOM      6  N   UNL     1       0.581  -0.440   1.167  0.00  0.00    -0.317 N 
ATOM      7  C   UNL     1      -0.569  -0.856   3.301  0.00  0.00    +0.033 C 
ENDROOT
BRANCH   6   8
ATOM      8  C   UNL     1       1.909  -0.175   1.513  0.00  0.00    +0.031 A 
ATOM      9  C   UNL     1       2.475  -0.795   2.622  0.00  0.00    +0.024 A 
ATOM     10  C   UNL     1       3.787  -0.538   2.969  0.00  0.00    +0.022 A 
ATOM     11  C   UNL     1       4.548   0.336   2.217  0.00  0.00    +0.055 A 
ATOM     12  C   UNL     1       3.988   0.964   1.099  0.00  0.00    +0.083 A 
ATOM     13  C   UNL     1       2.663   0.699   0.747  0.00  0.00    +0.039 A 
ATOM     14 CL   UNL     1       6.196   0.656   2.659  0.00  0.00    -0.083 Cl
BRANCH  12  15
ATOM     15  C   UNL     1       4.796   1.898   0.293  0.00  0.00    +0.388 C 
ATOM     16  O   UNL     1       4.304   2.446  -0.683  0.00  0.00    -0.241 OA
ATOM     17  O   UNL     1       5.957   2.126   0.602  0.00  0.00    -0.241 OA
ENDBRANCH  12  15
ENDBRANCH   6   8
BRANCH   4  18
ATOM     18  C   UNL     1      -2.869  -2.035   1.471  0.00  0.00    +0.023 C 
ATOM     19  C   UNL     1      -3.543  -2.725   0.524  0.00  0.00    +0.072 C 
BRANCH  19  20
ATOM     20  C   UNL     1      -4.863  -3.372   0.859  0.00  0.00    +0.216 C 
ATOM     21  N   UNL     1      -4.804  -4.811   0.577  0.00  0.00    -0.359 N 
ATOM     22  C   UNL     1      -5.709  -5.070  -0.322  0.00  0.00    +0.060 A 
ATOM     23  C   UNL     1      -6.123  -6.309  -0.995  0.00  0.00    +0.027 A 
ATOM     24  C   UNL     1      -7.115  -6.272  -1.906  0.00  0.00    +0.002 A 
ATOM     25  C   UNL     1      -7.785  -5.083  -2.249  0.00  0.00    +0.002 A 
ATOM     26  C   UNL     1      -7.484  -3.893  -1.693  0.00  0.00    +0.027 A 
ATOM     27  C   UNL     1      -6.418  -3.813  -0.685  0.00  0.00    +0.060 A 
ATOM     28  N   UNL     1      -5.924  -2.825   0.004  0.00  0.00    -0.359 N 
ATOM     29  H   UNL     1      -4.201  -5.452   0.985  0.00  0.00    +0.162 HD
ATOM     30  H   UNL     1      -6.205  -1.898  -0.040  0.00  0.00    +0.162 HD
ENDBRANCH  19  20
BRANCH  19  31
ATOM     31  C   UNL     1      -3.004  -2.841  -0.797  0.00  0.00    +0.099 C 
ATOM     32  N   UNL     1      -2.576  -2.933  -1.846  0.00  0.00    -0.191 NA
ENDBRANCH  19  31
ENDBRANCH   4  18
TORSDOF 5
