REMARK  Name = ZINC41584788
REMARK  5 active torsions:
REMARK  status: ('A' for Active; 'I' for Inactive)
REMARK    1  A    between atoms: C_5  and  C_7
REMARK    2  A    between atoms: C_7  and  C_8
REMARK    3  A    between atoms: C_12  and  O_34
REMARK    4  A    between atoms: C_13  and  C_17
REMARK    5  A    between atoms: C_17  and  N_18
REMARK                            x       y       z     vdW  Elec       q    Type
REMARK                         _______ _______ _______ _____ _____    ______ ____
ROOT
ATOM      1  C   UNL     1       1.372  -2.695   1.389  0.00  0.00    +0.096 A 
ATOM      2  C   UNL     1       2.631  -2.966   2.089  0.00  0.00    +0.045 A 
ATOM      3  C   UNL     1       3.977  -2.859   1.729  0.00  0.00    +0.017 A 
ATOM      4  C   UNL     1       4.949  -3.196   2.625  0.00  0.00    +0.046 A 
ATOM      5  C   UNL     1       4.609  -3.647   3.899  0.00  0.00    +0.122 A 
ATOM      6  C   UNL     1       3.282  -3.760   4.272  0.00  0.00    +0.023 A 
ATOM      7  C   UNL     1       2.282  -3.420   3.372  0.00  0.00    +0.172 A 
ATOM      8  O   UNL     1       0.935  -3.422   3.439  0.00  0.00    -0.354 OA
ATOM      9  N   UNL     1       0.405  -2.968   2.210  0.00  0.00    -0.082 NA
ENDROOT
BRANCH   5  10
ATOM     10  O   UNL     1       5.588  -3.979   4.780  0.00  0.00    -0.506 OA
ATOM     11  H   UNL     1       5.886  -3.244   5.333  0.00  0.00    +0.292 HD
ENDBRANCH   5  10
BRANCH   1  12
ATOM     12  C   UNL     1       1.228  -2.186  -0.022  0.00  0.00    +0.097 C 
BRANCH  12  17
ATOM     13  C   UNL     1      -0.017   1.378   0.010  0.00  0.00    +0.000 A 
ATOM     14  C   UNL     1       1.171   2.087   0.002  0.00  0.00    +0.003 A 
ATOM     15  C   UNL     1       2.377   1.414  -0.013  0.00  0.00    +0.038 A 
ATOM     16  C   UNL     1       2.397   0.029  -0.021  0.00  0.00    +0.127 A 
ATOM     17  C   UNL     1       1.208  -0.679  -0.013  0.00  0.00    -0.006 A 
ATOM     18  C   UNL     1       0.002  -0.004   0.002  0.00  0.00    +0.007 A 
ATOM     19  F   UNL     1       3.577  -0.630  -0.036  0.00  0.00    -0.205 F 
ENDBRANCH  12  17
ENDBRANCH   1  12
BRANCH   6  20
ATOM     20  C   UNL     1       2.924  -4.249   5.652  0.00  0.00    -0.035 C 
BRANCH  20  21
ATOM     21  N   UNL     1       2.828  -3.105   6.568  0.00  0.00    +0.383 N 
ATOM     22  C   UNL     1       2.356  -3.567   7.876  0.00  0.00    -0.073 C 
ATOM     23  C   UNL     1       2.244  -2.411   8.860  0.00  0.00    -0.007 C 
ATOM     24  C   UNL     1       3.584  -1.680   8.990  0.00  0.00    +0.011 C 
ATOM     25  C   UNL     1       3.997  -1.226   7.585  0.00  0.00    +0.020 C 
ATOM     26  C   UNL     1       4.152  -2.480   6.708  0.00  0.00    -0.069 C 
ATOM     27  C   UNL     1       2.893  -0.378   6.995  0.00  0.00    +0.023 A 
ATOM     28  C   UNL     1       3.248   0.575   6.093  0.00  0.00    +0.022 A 
ATOM     29  C   UNL     1       2.271   1.353   5.460  0.00  0.00    +0.007 A 
ATOM     30  C   UNL     1       0.958   1.121   5.746  0.00  0.00    +0.070 A 
ATOM     31  C   UNL     1       0.626   0.129   6.679  0.00  0.00    +0.251 A 
ATOM     32  O   UNL     1      -0.547  -0.130   6.896  0.00  0.00    -0.268 OA
ATOM     33  N   UNL     1       1.596  -0.548   7.342  0.00  0.00    -0.312 N 
ATOM     34  C   UNL     1       1.177  -1.414   8.441  0.00  0.00    +0.126 C 
ATOM     35  H   UNL     1       2.177  -2.431   6.196  0.00  0.00    -0.081 HD
ENDBRANCH  20  21
ENDBRANCH   6  20
TORSDOF 5
