REMARK  Name = ZINC55168748
REMARK  2 active torsions:
REMARK  status: ('A' for Active; 'I' for Inactive)
REMARK    1  A    between atoms: C_10  and  C_22
REMARK    2  A    between atoms: C_13  and  C_15
REMARK                            x       y       z     vdW  Elec       q    Type
REMARK                         _______ _______ _______ _____ _____    ______ ____
ROOT
ATOM      1  C   UNL     1      -0.019   1.522   0.010  0.00  0.00    +0.000 C 
ATOM      2  C   UNL     1       1.426   2.033  -0.001  0.00  0.00    +0.002 C 
ATOM      3  C   UNL     1       2.112   1.570   1.285  0.00  0.00    +0.023 C 
ATOM      4  C   UNL     1       2.103   0.063   1.398  0.00  0.00    +0.080 C 
ATOM      5  C   UNL     1       0.694  -0.542   1.256  0.00  0.00    +0.012 C 
ATOM      6  C   UNL     1       0.002  -0.004   0.002  0.00  0.00    +0.005 C 
ATOM      7  C   UNL     1       1.052  -2.031   0.962  0.00  0.00    +0.039 C 
ATOM      8  C   UNL     1       2.320  -1.908   0.087  0.00  0.00    +0.190 C 
ATOM      9  N   UNL     1       2.908  -0.594   0.364  0.00  0.00    -0.278 N 
ATOM     10  C   UNL     1       4.007  -0.085  -0.227  0.00  0.00    +0.287 C 
ATOM     11  O   UNL     1       4.412   1.016   0.089  0.00  0.00    -0.266 OA
ENDROOT
BRANCH  10  12
ATOM     12  C   UNL     1       4.719  -0.867  -1.260  0.00  0.00    +0.238 A 
ATOM     13  N   UNL     1       5.824  -0.473  -1.915  0.00  0.00    -0.190 NA
ATOM     14  C   UNL     1       6.193  -1.407  -2.760  0.00  0.00    +0.209 A 
ATOM     15  N   UNL     1       5.317  -2.433  -2.662  0.00  0.00    -0.246 N 
ATOM     16  H   UNL     1       5.336  -3.262  -3.164  0.00  0.00    +0.192 HD
ATOM     17  N   UNL     1       4.379  -2.065  -1.684  0.00  0.00    -0.146 NA
ATOM     18  N   UNL     1       7.286  -1.351  -3.606  0.00  0.00    -0.328 N 
ATOM     19  H   UNL     1       7.859  -0.568  -3.606  0.00  0.00    +0.145 HD
ATOM     20  H   UNL     1       7.479  -2.094  -4.199  0.00  0.00    +0.145 HD
ENDBRANCH  10  12
BRANCH   8  21
ATOM     21  C   UNL     1       3.291  -3.007   0.433  0.00  0.00    +0.376 C 
ATOM     22  O   UNL     1       3.241  -4.073  -0.155  0.00  0.00    -0.244 OA
ATOM     23  O   UNL     1       4.127  -2.829   1.303  0.00  0.00    -0.244 OA
ENDBRANCH   8  21
TORSDOF 2
