REMARK  Name = ZINC36643755
REMARK  12 active torsions:
REMARK  status: ('A' for Active; 'I' for Inactive)
REMARK    1  A    between atoms: C_1  and  C_2
REMARK    2  A    between atoms: C_5  and  O_35
REMARK    3  A    between atoms: N_11  and  C_12
REMARK    4  A    between atoms: C_12  and  C_13
REMARK    5  A    between atoms: C_13  and  C_14
REMARK    6  A    between atoms: C_14  and  N_15
REMARK    7  A    between atoms: N_15  and  C_16
REMARK    8  A    between atoms: N_15  and  C_17
REMARK    9  A    between atoms: C_18  and  C_20
REMARK   10  A    between atoms: C_23  and  S_26
REMARK   11  A    between atoms: S_26  and  N_29
REMARK   12  A    between atoms: O_35  and  C_36
REMARK                            x       y       z     vdW  Elec       q    Type
REMARK                         _______ _______ _______ _____ _____    ______ ____
ROOT
ATOM      1  C   UNL     1       0.939   2.193   0.804  0.00  0.00    +0.045 C 
ATOM      2  C   UNL     1       0.729   0.717   0.581  0.00  0.00    -0.034 A 
ATOM      3  C   UNL     1       0.770   0.195  -0.699  0.00  0.00    +0.008 A 
ATOM      4  C   UNL     1       0.575  -1.166  -0.884  0.00  0.00    +0.048 A 
ATOM      5  C   UNL     1       0.341  -2.009   0.177  0.00  0.00    +0.147 A 
ATOM      6  C   UNL     1       0.293  -1.506   1.502  0.00  0.00    +0.122 A 
ATOM      7  C   UNL     1       0.502  -0.117   1.649  0.00  0.00    +0.047 A 
ATOM      8  S   UNL     1       0.377   0.100   3.408  0.00  0.00    -0.051 S 
ATOM      9  C   UNL     1       0.072  -1.611   3.824  0.00  0.00    +0.168 A 
ATOM     10  N   UNL     1       0.075  -2.190   2.646  0.00  0.00    -0.221 NA
ATOM     11  N   UNL     1      -0.129  -2.180   5.071  0.00  0.00    -0.246 N 
ATOM     12  C   UNL     1      -0.108  -1.407   6.175  0.00  0.00    +0.252 C 
ATOM     13  O   UNL     1       0.013  -0.202   6.071  0.00  0.00    -0.270 OA
ENDROOT
BRANCH  12  14
ATOM     14  C   UNL     1      -0.232  -2.025   7.512  0.00  0.00    +0.037 A 
ATOM     15  C   UNL     1       0.414  -3.230   7.790  0.00  0.00    +0.015 A 
ATOM     16  C   UNL     1       0.294  -3.802   9.040  0.00  0.00    +0.029 A 
ATOM     17  C   UNL     1      -0.466  -3.183  10.017  0.00  0.00    +0.106 A 
ATOM     18  C   UNL     1      -1.109  -1.988   9.748  0.00  0.00    +0.029 A 
ATOM     19  C   UNL     1      -0.992  -1.403   8.504  0.00  0.00    +0.015 A 
BRANCH  17  20
ATOM     20  S   UNL     1      -0.615  -3.920  11.610  0.00  0.00    +0.061 S 
ATOM     21  O   UNL     1      -1.821  -3.426  12.175  0.00  0.00    -0.153 OA
ATOM     22  O   UNL     1      -0.365  -5.309  11.440  0.00  0.00    -0.153 OA
BRANCH  20  23
ATOM     23  N   UNL     1       0.621  -3.328  12.541  0.00  0.00    -0.177 NA
ATOM     24  C   UNL     1       1.920  -4.013  12.584  0.00  0.00    +0.109 C 
ATOM     25  C   UNL     1       3.021  -3.003  12.245  0.00  0.00    +0.017 C 
ATOM     26  C   UNL     1       2.912  -1.801  13.186  0.00  0.00    +0.003 C 
ATOM     27  C   UNL     1       1.555  -1.120  12.992  0.00  0.00    +0.017 C 
ATOM     28  C   UNL     1       0.440  -2.105  13.335  0.00  0.00    +0.109 C 
ENDBRANCH  20  23
ENDBRANCH  17  20
ENDBRANCH  12  14
BRANCH   5  29
ATOM     29  O   UNL     1       0.154  -3.336  -0.047  0.00  0.00    -0.493 OA
ATOM     30  C   UNL     1       0.214  -3.781  -1.403  0.00  0.00    +0.277 C 
ENDBRANCH   5  29
BRANCH  11  31
ATOM     31  C   UNL     1      -0.364  -3.621   5.190  0.00  0.00    +0.114 C 
BRANCH  31  32
ATOM     32  C   UNL     1       0.948  -4.373   4.957  0.00  0.00    +0.001 C 
BRANCH  32  33
ATOM     33  C   UNL     1       0.736  -5.863   5.229  0.00  0.00    -0.078 C 
BRANCH  33  34
ATOM     34  N   UNL     1       1.996  -6.585   5.005  0.00  0.00    +0.376 N 
ATOM     35  C   UNL     1       2.993  -6.148   5.991  0.00  0.00    -0.097 C 
ATOM     36  C   UNL     1       1.765  -8.029   5.150  0.00  0.00    -0.097 C 
ATOM     37  H   UNL     1       2.334  -6.390   4.075  0.00  0.00    -0.083 HD
ENDBRANCH  33  34
ENDBRANCH  32  33
ENDBRANCH  31  32
ENDBRANCH  11  31
TORSDOF 8
