REMARK  Name = ZINC40295995
REMARK  3 active torsions:
REMARK  status: ('A' for Active; 'I' for Inactive)
REMARK    1  A    between atoms: C_6  and  N_7
REMARK    2  A    between atoms: C_9  and  C_11
REMARK    3  A    between atoms: N_13  and  C_14
REMARK                            x       y       z     vdW  Elec       q    Type
REMARK                         _______ _______ _______ _____ _____    ______ ____
ROOT
ATOM      1  C   UNL     1      -0.017   1.391   0.010  0.00  0.00    +0.024 A 
ATOM      2  C   UNL     1       1.175   2.086   0.002  0.00  0.00    +0.017 A 
ATOM      3  C   UNL     1       2.369   1.397  -0.013  0.00  0.00    +0.020 A 
ATOM      4  C   UNL     1       2.428  -0.017  -0.021  0.00  0.00    -0.008 A 
ATOM      5  C   UNL     1       1.185  -0.702  -0.013  0.00  0.00    +0.031 A 
ATOM      6  C   UNL     1       0.002  -0.004   0.002  0.00  0.00    +0.025 A 
ATOM      7  C   UNL     1       3.723  -0.566  -0.037  0.00  0.00    +0.029 A 
ATOM      8  C   UNL     1       4.807   0.254  -0.043  0.00  0.00    +0.075 A 
ATOM      9  S   UNL     1       4.077   1.882  -0.027  0.00  0.00    -0.084 S 
ENDROOT
BRANCH   8  10
ATOM     10  C   UNL     1       6.231  -0.111  -0.059  0.00  0.00    +0.251 C 
ATOM     11  O   UNL     1       6.559  -1.282  -0.069  0.00  0.00    -0.270 OA
ATOM     12  N   UNL     1       7.174   0.853  -0.064  0.00  0.00    -0.306 N 
ATOM     13  H   UNL     1       6.912   1.787  -0.056  0.00  0.00    +0.149 HD
BRANCH  12  14
ATOM     14  C   UNL     1       8.593   0.489  -0.080  0.00  0.00    +0.096 C 
ATOM     15  C   UNL     1       9.087   0.264   1.359  0.00  0.00    +0.046 C 
ATOM     16  C   UNL     1      10.633   0.197   1.381  0.00  0.00    +0.168 C 
ATOM     17  S   UNL     1      11.103   1.238  -0.061  0.00  0.00    -0.029 S 
ATOM     18  O   UNL     1      11.778   0.430  -1.014  0.00  0.00    -0.174 OA
ATOM     19  O   UNL     1      11.721   2.428   0.410  0.00  0.00    -0.174 OA
ATOM     20  C   UNL     1       9.425   1.647  -0.701  0.00  0.00    +0.188 C 
ENDBRANCH  12  14
ENDBRANCH   8  10
BRANCH   6  21
ATOM     21  N   UNL     1      -1.208  -0.707   0.010  0.00  0.00    -0.358 N 
ATOM     22  H   UNL     1      -2.049  -0.223   0.020  0.00  0.00    +0.142 HD
ATOM     23  H   UNL     1      -1.206  -1.677   0.005  0.00  0.00    +0.142 HD
ENDBRANCH   6  21
TORSDOF 3
