REMARK  Name = ZINC15866605
REMARK  7 active torsions:
REMARK  status: ('A' for Active; 'I' for Inactive)
REMARK    1  A    between atoms: C_1  and  C_2
REMARK    2  A    between atoms: C_7  and  N_8
REMARK    3  A    between atoms: N_8  and  S_9
REMARK    4  A    between atoms: S_9  and  C_12
REMARK    5  A    between atoms: C_14  and  C_20
REMARK    6  A    between atoms: C_16  and  C_19
REMARK    7  A    between atoms: C_17  and  C_18
REMARK                            x       y       z     vdW  Elec       q    Type
REMARK                         _______ _______ _______ _____ _____    ______ ____
ROOT
ATOM      1  C   UNL     1      -2.442   0.045   2.425  0.00  0.00    +0.112 A 
ATOM      2  C   UNL     1      -3.445  -0.257   3.325  0.00  0.00    +0.039 A 
ATOM      3  C   UNL     1      -3.321   0.130   4.657  0.00  0.00    +0.004 A 
ATOM      4  C   UNL     1      -2.185   0.821   5.074  0.00  0.00    +0.013 A 
ATOM      5  C   UNL     1      -1.189   1.118   4.166  0.00  0.00    -0.045 A 
ATOM      6  C   UNL     1      -1.315   0.727   2.845  0.00  0.00    -0.021 A 
ATOM      7  C   UNL     1      -0.221   1.049   1.860  0.00  0.00    +0.046 C 
ATOM      8  C   UNL     1       0.040   1.865   4.616  0.00  0.00    +0.044 C 
ENDROOT
BRANCH   3   9
ATOM      9  C   UNL     1      -4.395  -0.192   5.629  0.00  0.00    +0.091 A 
ATOM     10  C   UNL     1      -4.261   0.199   6.982  0.00  0.00    +0.035 A 
ATOM     11  C   UNL     1      -5.270  -0.110   7.846  0.00  0.00    +0.073 A 
ATOM     12  C   UNL     1      -6.385  -0.813   7.336  0.00  0.00    +0.265 A 
ATOM     13  O   UNL     1      -7.310  -1.116   8.072  0.00  0.00    -0.266 OA
ATOM     14  N   UNL     1      -6.419  -1.146   6.032  0.00  0.00    -0.243 N 
ATOM     15  H   UNL     1      -7.187  -1.629   5.688  0.00  0.00    +0.192 HD
ATOM     16  N   UNL     1      -5.462  -0.843   5.231  0.00  0.00    -0.171 NA
ENDBRANCH   3   9
BRANCH   1  17
ATOM     17  S   UNL     1      -2.597  -0.444   0.740  0.00  0.00    +0.073 S 
ATOM     18  O   UNL     1      -2.301   0.703  -0.045  0.00  0.00    -0.150 OA
ATOM     19  O   UNL     1      -3.829  -1.144   0.631  0.00  0.00    -0.150 OA
BRANCH  17  20
ATOM     20  N   UNL     1      -1.398  -1.546   0.438  0.00  0.00    -0.216 N 
ATOM     21  H   UNL     1      -0.733  -1.365  -0.245  0.00  0.00    +0.174 HD
BRANCH  20  28
ATOM     22  C   UNL     1       1.160  -2.602   1.097  0.00  0.00    +0.046 C 
ATOM     23  C   UNL     1      -0.117  -3.288   1.510  0.00  0.00    -0.027 A 
ATOM     24  C   UNL     1      -0.067  -4.468   2.225  0.00  0.00    +0.020 A 
ATOM     25  C   UNL     1      -1.238  -5.099   2.604  0.00  0.00    +0.018 A 
ATOM     26  C   UNL     1      -2.463  -4.550   2.269  0.00  0.00    +0.017 A 
ATOM     27  C   UNL     1      -2.519  -3.370   1.554  0.00  0.00    +0.026 A 
ATOM     28  C   UNL     1      -1.345  -2.737   1.167  0.00  0.00    +0.051 A 
ATOM     29 BR   UNL     1      -1.165  -6.715   3.583  0.00  0.00    -0.050 Br
ENDBRANCH  20  28
ENDBRANCH  17  20
ENDBRANCH   1  17
TORSDOF 4
