REMARK  Name = ZINC12767081
REMARK  8 active torsions:
REMARK  status: ('A' for Active; 'I' for Inactive)
REMARK    1  A    between atoms: C_4  and  N_11
REMARK    2  A    between atoms: C_6  and  C_7
REMARK    3  A    between atoms: N_11  and  C_12
REMARK    4  A    between atoms: C_12  and  N_14
REMARK    5  A    between atoms: N_14  and  N_15
REMARK    6  A    between atoms: C_16  and  C_17
REMARK    7  A    between atoms: C_20  and  O_24
REMARK    8  A    between atoms: C_22  and  O_23
REMARK                            x       y       z     vdW  Elec       q    Type
REMARK                         _______ _______ _______ _____ _____    ______ ____
ROOT
ATOM      1  C   UNL     1       5.936   3.333   0.354  0.00  0.00    +0.154 C 
ATOM      2  S   UNL     1       7.385   4.101   0.844  0.00  0.00    -0.017 S 
ENDROOT
BRANCH   1   3
ATOM      3  N   UNL     1       5.956   2.045  -0.041  0.00  0.00    -0.294 N 
ATOM      4  H   UNL     1       5.126   1.586  -0.242  0.00  0.00    +0.154 HD
BRANCH   3   8
ATOM      5  C   UNL     1       9.588   0.033  -0.398  0.00  0.00    +0.014 A 
ATOM      6  C   UNL     1       8.512  -0.590   0.207  0.00  0.00    +0.022 A 
ATOM      7  C   UNL     1       7.306   0.074   0.328  0.00  0.00    +0.062 A 
ATOM      8  C   UNL     1       7.176   1.369  -0.161  0.00  0.00    +0.052 A 
ATOM      9  C   UNL     1       8.257   1.988  -0.773  0.00  0.00    +0.037 A 
ATOM     10  C   UNL     1       9.461   1.320  -0.886  0.00  0.00    +0.057 A 
ATOM     11 CL   UNL     1       5.955  -0.708   1.088  0.00  0.00    -0.082 Cl
BRANCH  10  12
ATOM     12  C   UNL     1      10.636   1.994  -1.546  0.00  0.00    +0.417 C 
ATOM     13  F   UNL     1      11.732   1.125  -1.546  0.00  0.00    -0.166 F 
ATOM     14  F   UNL     1      10.304   2.326  -2.863  0.00  0.00    -0.166 F 
ATOM     15  F   UNL     1      10.964   3.157  -0.840  0.00  0.00    -0.166 F 
ENDBRANCH  10  12
ENDBRANCH   3   8
ENDBRANCH   1   3
BRANCH   1  16
ATOM     16  N   UNL     1       4.774   4.016   0.364  0.00  0.00    -0.218 N 
ATOM     17  H   UNL     1       4.759   4.943   0.648  0.00  0.00    +0.176 HD
BRANCH  16  18
ATOM     18  N   UNL     1       3.588   3.387  -0.037  0.00  0.00    -0.188 NA
ATOM     19  C   UNL     1       2.469   4.046  -0.027  0.00  0.00    +0.141 C 
BRANCH  19  20
ATOM     20  C   UNL     1       1.222   3.384  -0.449  0.00  0.00    +0.036 A 
ATOM     21  C   UNL     1       0.016   4.090  -0.439  0.00  0.00    +0.016 A 
ATOM     22  C   UNL     1      -1.148   3.468  -0.833  0.00  0.00    +0.046 A 
ATOM     23  C   UNL     1      -1.127   2.141  -1.246  0.00  0.00    +0.120 A 
ATOM     24  C   UNL     1       0.064   1.430  -1.254  0.00  0.00    +0.091 A 
ATOM     25  C   UNL     1       1.240   2.044  -0.860  0.00  0.00    +0.129 A 
BRANCH  25  26
ATOM     26  O   UNL     1       2.408   1.351  -0.872  0.00  0.00    -0.506 OA
ATOM     27  H   UNL     1       2.890   1.408  -1.708  0.00  0.00    +0.292 HD
ENDBRANCH  25  26
BRANCH  23  28
ATOM     28  O   UNL     1      -2.279   1.536  -1.639  0.00  0.00    -0.507 OA
ATOM     29  H   UNL     1      -2.760   1.103  -0.921  0.00  0.00    +0.292 HD
ENDBRANCH  23  28
ENDBRANCH  19  20
ENDBRANCH  16  18
ENDBRANCH   1  16
TORSDOF 8
