REMARK  Name = ZINC21873130
REMARK  8 active torsions:
REMARK  status: ('A' for Active; 'I' for Inactive)
REMARK    1  A    between atoms: C_1  and  C_2
REMARK    2  A    between atoms: C_3  and  C_33
REMARK    3  A    between atoms: C_11  and  C_13
REMARK    4  A    between atoms: C_13  and  S_14
REMARK    5  A    between atoms: S_14  and  C_15
REMARK    6  A    between atoms: C_15  and  C_17
REMARK    7  A    between atoms: C_15  and  C_18
REMARK    8  A    between atoms: N_20  and  N_21
REMARK                            x       y       z     vdW  Elec       q    Type
REMARK                         _______ _______ _______ _____ _____    ______ ____
ROOT
ATOM      1  C   UNL     1       0.135  -6.147   5.443  0.00  0.00    +0.131 C 
ATOM      2  C   UNL     1       1.446  -5.905   6.194  0.00  0.00    +0.029 C 
ENDROOT
BRANCH   1   3
ATOM      3  C   UNL     1       0.027  -7.604   5.076  0.00  0.00    +0.242 C 
ATOM      4  O   UNL     1       0.388  -7.982   3.981  0.00  0.00    -0.273 OA
ATOM      5  N   UNL     1      -0.469  -8.488   5.964  0.00  0.00    -0.223 N 
ATOM      6  H   UNL     1      -0.757  -8.186   6.840  0.00  0.00    +0.174 HD
BRANCH   5   7
ATOM      7  N   UNL     1      -0.569  -9.843   5.622  0.00  0.00    -0.137 N 
ATOM      8  C   UNL     1      -1.725 -10.463   5.308  0.00  0.00    +0.263 C 
ATOM      9  O   UNL     1      -2.833  -9.973   5.268  0.00  0.00    -0.271 OA
ATOM     10  C   UNL     1      -1.348 -11.897   5.015  0.00  0.00    +0.114 C 
ATOM     11  C   UNL     1      -1.699 -12.255   3.575  0.00  0.00    +0.035 C 
ATOM     12  C   UNL     1      -1.282 -13.701   3.290  0.00  0.00    +0.003 C 
ATOM     13  C   UNL     1      -2.005 -14.639   4.258  0.00  0.00    +0.000 C 
ATOM     14  C   UNL     1      -1.625 -14.282   5.697  0.00  0.00    +0.003 C 
ATOM     15  C   UNL     1      -2.043 -12.839   5.991  0.00  0.00    +0.035 C 
ATOM     16  N   UNL     1       0.106 -11.931   5.214  0.00  0.00    -0.284 N 
ATOM     17  C   UNL     1       0.472 -10.683   5.562  0.00  0.00    +0.326 C 
ATOM     18  O   UNL     1       1.619 -10.356   5.799  0.00  0.00    -0.251 OA
ATOM     19  H   UNL     1       0.689 -12.700   5.111  0.00  0.00    +0.151 HD
ENDBRANCH   5   7
ENDBRANCH   1   3
BRANCH   1  20
ATOM     20  S   UNL     1       0.108  -5.139   3.935  0.00  0.00    -0.141 S 
BRANCH  20  21
ATOM     21  C   UNL     1       0.090  -3.432   4.547  0.00  0.00    +0.144 C 
BRANCH  21  32
ATOM     22  C   UNL     1      -0.018   1.503   0.010  0.00  0.00    +0.045 C 
ATOM     23  C   UNL     1       0.002  -0.004   0.002  0.00  0.00    -0.026 A 
ATOM     24  C   UNL     1       0.006  -0.677  -1.160  0.00  0.00    -0.008 A 
ATOM     25  S   UNL     1       0.032  -2.385  -0.648  0.00  0.00    -0.073 S 
ATOM     26  C   UNL     1       0.037  -2.144   1.110  0.00  0.00    +0.116 A 
ATOM     27  C   UNL     1       0.024  -0.745   1.250  0.00  0.00    +0.075 A 
ATOM     28  C   UNL     1       0.029  -0.257   2.597  0.00  0.00    +0.260 A 
ATOM     29  O   UNL     1       0.014   0.942   2.821  0.00  0.00    -0.267 OA
ATOM     30  N   UNL     1       0.051  -1.142   3.611  0.00  0.00    -0.310 N 
ATOM     31  H   UNL     1       0.054  -0.817   4.525  0.00  0.00    +0.170 HD
ATOM     32  C   UNL     1       0.067  -2.480   3.380  0.00  0.00    +0.121 A 
ATOM     33  N   UNL     1       0.053  -2.956   2.163  0.00  0.00    -0.226 NA
ATOM     34  C   UNL     1      -0.009  -0.122  -2.561  0.00  0.00    +0.052 C 
ENDBRANCH  21  32
ENDBRANCH  20  21
ENDBRANCH   1  20
TORSDOF 5
