REMARK  Name = ZINC32687725
REMARK  7 active torsions:
REMARK  status: ('A' for Active; 'I' for Inactive)
REMARK    1  A    between atoms: C_1  and  C_2
REMARK    2  A    between atoms: C_7  and  N_8
REMARK    3  A    between atoms: C_9  and  C_11
REMARK    4  A    between atoms: C_11  and  N_12
REMARK    5  A    between atoms: C_13  and  C_15
REMARK    6  A    between atoms: C_18  and  N_21
REMARK    7  A    between atoms: N_24  and  C_25
REMARK                            x       y       z     vdW  Elec       q    Type
REMARK                         _______ _______ _______ _____ _____    ______ ____
ROOT
ATOM      1  N   UNL     1      -7.109   5.210   0.533  0.00  0.00    -0.303 N 
ATOM      2  C   UNL     1      -7.132   3.863   0.549  0.00  0.00    +0.244 C 
ATOM      3  O   UNL     1      -8.194   3.274   0.610  0.00  0.00    -0.270 OA
ATOM      4  H   UNL     1      -6.148   5.743   0.478  0.00  0.00    +0.150 HD
ENDROOT
BRANCH   2   5
ATOM      5  C   UNL     1      -5.869   3.102   0.494  0.00  0.00    +0.037 A 
ATOM      6  C   UNL     1      -5.891   1.705   0.511  0.00  0.00    +0.015 A 
ATOM      7  C   UNL     1      -4.711   0.998   0.459  0.00  0.00    +0.024 A 
ATOM      8  C   UNL     1      -3.497   1.673   0.388  0.00  0.00    +0.035 A 
ATOM      9  C   UNL     1      -3.470   3.064   0.377  0.00  0.00    +0.024 A 
ATOM     10  C   UNL     1      -4.647   3.777   0.424  0.00  0.00    +0.015 A 
BRANCH   8  11
ATOM     11  N   UNL     1      -2.303   0.955   0.335  0.00  0.00    -0.269 N 
ATOM     12  C   UNL     1      -1.261   1.431  -0.375  0.00  0.00    +0.304 C 
ATOM     13  O   UNL     1      -1.390   2.438  -1.044  0.00  0.00    -0.253 OA
ATOM     14  N   UNL     1      -0.075   0.790  -0.343  0.00  0.00    -0.296 N 
ATOM     15  H   UNL     1      -2.212  -0.001   0.872  0.00  0.00    +0.156 HD
ATOM     16  H   UNL     1       0.043  -0.118   0.266  0.00  0.00    +0.151 HD
BRANCH  14  17
ATOM     17  C   UNL     1       1.056   1.304  -1.119  0.00  0.00    +0.075 C 
ATOM     18  C   UNL     1       1.894   0.291  -1.902  0.00  0.00    +0.024 C 
ATOM     19  C   UNL     1       2.463   0.944  -0.640  0.00  0.00    +0.024 C 
ENDBRANCH  14  17
ENDBRANCH   8  11
ENDBRANCH   2   5
BRANCH   1  20
ATOM     20  C   UNL     1      -8.363   5.966   0.588  0.00  0.00    +0.200 C 
BRANCH  20  22
ATOM     21  N   UNL     1      -9.069   8.336   0.597  0.00  0.00    -0.284 N 
ATOM     22  C   UNL     1      -8.062   7.442   0.556  0.00  0.00    +0.234 C 
ATOM     23  O   UNL     1      -6.913   7.825   0.493  0.00  0.00    -0.274 OA
ATOM     24  H   UNL     1     -10.105   7.991   0.730  0.00  0.00    +0.155 HD
BRANCH  21  31
ATOM     25  C   UNL     1     -11.000   9.976  -0.699  0.00  0.00    +0.046 C 
ATOM     26  C   UNL     1      -9.713  10.539  -0.156  0.00  0.00    -0.028 A 
ATOM     27  C   UNL     1      -9.444  11.889  -0.275  0.00  0.00    +0.020 A 
ATOM     28  C   UNL     1      -8.259  12.406   0.218  0.00  0.00    +0.018 A 
ATOM     29  C   UNL     1      -7.343  11.574   0.837  0.00  0.00    +0.017 A 
ATOM     30  C   UNL     1      -7.609  10.225   0.964  0.00  0.00    +0.024 A 
ATOM     31  C   UNL     1      -8.797   9.703   0.470  0.00  0.00    +0.036 A 
ATOM     32 BR   UNL     1      -7.892  14.253   0.046  0.00  0.00    -0.050 Br
ENDBRANCH  21  31
ENDBRANCH  20  22
ENDBRANCH   1  20
TORSDOF 6
