REMARK  Name = ZINC52537161
REMARK  5 active torsions:
REMARK  status: ('A' for Active; 'I' for Inactive)
REMARK    1  A    between atoms: C_1  and  N_2
REMARK    2  A    between atoms: C_3  and  C_5
REMARK    3  A    between atoms: C_10  and  N_11
REMARK    4  A    between atoms: N_11  and  S_12
REMARK    5  A    between atoms: S_12  and  C_15
REMARK                            x       y       z     vdW  Elec       q    Type
REMARK                         _______ _______ _______ _____ _____    ______ ____
ROOT
ATOM      1  S   UNL     1       1.836  -2.792  -4.651  0.00  0.00    +0.072 S 
ATOM      2  O   UNL     1       2.567  -1.889  -5.468  0.00  0.00    -0.150 OA
ATOM      3  O   UNL     1       2.214  -4.153  -4.491  0.00  0.00    -0.150 OA
ENDROOT
BRANCH   1   4
ATOM      4  C   UNL     1       0.183  -2.798  -5.261  0.00  0.00    +0.111 A 
ATOM      5  C   UNL     1      -0.636  -3.889  -5.024  0.00  0.00    +0.031 A 
ATOM      6  C   UNL     1      -1.933  -3.903  -5.498  0.00  0.00    +0.030 A 
ATOM      7  C   UNL     1      -2.417  -2.819  -6.215  0.00  0.00    +0.067 A 
ATOM      8  C   UNL     1      -1.592  -1.719  -6.454  0.00  0.00    +0.069 A 
ATOM      9  C   UNL     1      -0.292  -1.712  -5.969  0.00  0.00    +0.056 A 
ATOM     10  N   UNL     1      -2.344  -0.803  -7.186  0.00  0.00    -0.306 N 
ATOM     11  H   UNL     1      -2.036   0.061  -7.501  0.00  0.00    +0.170 HD
ATOM     12  C   UNL     1      -3.570  -1.322  -7.383  0.00  0.00    +0.325 A 
ATOM     13  O   UNL     1      -4.473  -0.776  -7.988  0.00  0.00    -0.247 OA
ATOM     14  N   UNL     1      -3.645  -2.538  -6.809  0.00  0.00    -0.306 N 
ATOM     15  H   UNL     1      -4.422  -3.118  -6.809  0.00  0.00    +0.170 HD
ENDBRANCH   1   4
BRANCH   1  16
ATOM     16  N   UNL     1       1.795  -2.131  -3.134  0.00  0.00    -0.216 N 
ATOM     17  H   UNL     1       2.296  -1.322  -2.943  0.00  0.00    +0.174 HD
BRANCH  16  23
ATOM     18  C   UNL     1       0.387  -1.948  -1.174  0.00  0.00    +0.059 A 
ATOM     19  C   UNL     1      -0.370  -2.567  -0.176  0.00  0.00    +0.015 A 
ATOM     20  C   UNL     1      -0.463  -3.941  -0.136  0.00  0.00    +0.001 A 
ATOM     21  C   UNL     1       0.193  -4.714  -1.081  0.00  0.00    +0.002 A 
ATOM     22  C   UNL     1       0.944  -4.118  -2.072  0.00  0.00    +0.025 A 
ATOM     23  C   UNL     1       1.044  -2.733  -2.133  0.00  0.00    +0.060 A 
BRANCH  18  26
ATOM     24  C   UNL     1      -0.040   1.734  -0.347  0.00  0.00    +0.128 C 
ATOM     25  N   UNL     1      -0.142   0.273  -0.298  0.00  0.00    -0.314 N 
ATOM     26  C   UNL     1       0.490  -0.478  -1.222  0.00  0.00    +0.246 C 
ATOM     27  O   UNL     1       1.146   0.057  -2.095  0.00  0.00    -0.270 OA
ATOM     28  H   UNL     1      -0.665  -0.154   0.398  0.00  0.00    +0.149 HD
ENDBRANCH  18  26
ENDBRANCH  16  23
ENDBRANCH   1  16
TORSDOF 4
