REMARK  Name = ZINC49527052
REMARK  7 active torsions:
REMARK  status: ('A' for Active; 'I' for Inactive)
REMARK    1  A    between atoms: C_1  and  C_2
REMARK    2  A    between atoms: C_2  and  C_4
REMARK    3  A    between atoms: C_2  and  N_11
REMARK    4  A    between atoms: N_11  and  S_12
REMARK    5  A    between atoms: S_12  and  C_15
REMARK    6  A    between atoms: C_18  and  N_21
REMARK    7  A    between atoms: N_21  and  N_22
REMARK                            x       y       z     vdW  Elec       q    Type
REMARK                         _______ _______ _______ _____ _____    ______ ____
ROOT
ATOM      1  S   UNL     1      -0.139  -0.902   2.549  0.00  0.00    +0.059 S 
ATOM      2  O   UNL     1       0.814  -1.354   3.502  0.00  0.00    -0.153 OA
ATOM      3  O   UNL     1      -1.030   0.173   2.814  0.00  0.00    -0.153 OA
ENDROOT
BRANCH   1   4
ATOM      4  C   UNL     1      -1.137  -2.294   2.137  0.00  0.00    +0.105 A 
ATOM      5  C   UNL     1      -2.414  -2.105   1.640  0.00  0.00    +0.030 A 
ATOM      6  C   UNL     1      -3.199  -3.193   1.316  0.00  0.00    +0.026 A 
ATOM      7  C   UNL     1      -2.706  -4.480   1.490  0.00  0.00    +0.041 A 
ATOM      8  C   UNL     1      -1.423  -4.667   1.991  0.00  0.00    +0.026 A 
ATOM      9  C   UNL     1      -0.641  -3.574   2.307  0.00  0.00    +0.030 A 
BRANCH   7  10
ATOM     10  N   UNL     1      -3.498  -5.584   1.164  0.00  0.00    -0.283 N 
ATOM     11  H   UNL     1      -4.393  -5.452   0.816  0.00  0.00    +0.166 HD
BRANCH  10  12
ATOM     12  N   UNL     1      -3.011  -6.848   1.337  0.00  0.00    -0.257 NA
ATOM     13  H   UNL     1      -2.714  -6.995   2.290  0.00  0.00    +0.140 HD
ATOM     14  H   UNL     1      -3.692  -7.539   1.060  0.00  0.00    +0.140 HD
ENDBRANCH  10  12
ENDBRANCH   7  10
ENDBRANCH   1   4
BRANCH   1  15
ATOM     15  N   UNL     1       0.711  -0.489   1.189  0.00  0.00    -0.183 NA
ATOM     16  H   UNL     1       1.677  -0.569   1.178  0.00  0.00    +0.149 HD
BRANCH  15  18
ATOM     17  C   UNL     1      -0.019   1.526   0.010  0.00  0.00    +0.031 C 
ATOM     18  C   UNL     1       0.002  -0.004   0.002  0.00  0.00    +0.103 C 
BRANCH  18  19
ATOM     19  C   UNL     1       0.707  -0.490  -1.238  0.00  0.00    -0.029 A 
ATOM     20  C   UNL     1       2.089  -0.511  -1.284  0.00  0.00    +0.006 A 
ATOM     21  C   UNL     1       2.736  -0.957  -2.421  0.00  0.00    +0.015 A 
ATOM     22  C   UNL     1       2.002  -1.383  -3.512  0.00  0.00    +0.018 A 
ATOM     23  C   UNL     1       0.619  -1.362  -3.466  0.00  0.00    +0.015 A 
ATOM     24  C   UNL     1      -0.027  -0.920  -2.327  0.00  0.00    +0.006 A 
ATOM     25 BR   UNL     1       2.887  -1.992  -5.068  0.00  0.00    -0.050 Br
ENDBRANCH  18  19
ENDBRANCH  15  18
ENDBRANCH   1  15
TORSDOF 6
