REMARK  Name = ZINC28527658
REMARK  5 active torsions:
REMARK  status: ('A' for Active; 'I' for Inactive)
REMARK    1  A    between atoms: C_6  and  N_7
REMARK    2  A    between atoms: N_7  and  N_8
REMARK    3  A    between atoms: N_11  and  C_14
REMARK    4  A    between atoms: C_14  and  C_15
REMARK    5  A    between atoms: C_15  and  C_17
REMARK                            x       y       z     vdW  Elec       q    Type
REMARK                         _______ _______ _______ _____ _____    ______ ____
ROOT
ATOM      1  N   UNL     1       1.049   2.448  -0.204  0.00  0.00    -0.206 N 
ATOM      2  C   UNL     1       0.213   2.994   0.741  0.00  0.00    +0.231 A 
ATOM      3  N   UNL     1      -0.956   3.188   0.202  0.00  0.00    -0.133 NA
ATOM      4  N   UNL     1      -0.893   2.766  -1.133  0.00  0.00    -0.230 N 
ATOM      5  C   UNL     1       0.357   2.309  -1.353  0.00  0.00    +0.197 A 
ATOM      6  S   UNL     1       0.959   1.674  -2.825  0.00  0.00    -0.010 S 
ATOM      7  N   UNL     1       0.557   3.289   2.052  0.00  0.00    -0.326 N 
ATOM      8  H   UNL     1      -0.189   3.726   2.732  0.00  0.00    +0.145 HD
ATOM      9  H   UNL     1       1.577   3.085   2.412  0.00  0.00    +0.145 HD
ENDROOT
BRANCH   1  10
ATOM     10  N   UNL     1       2.391   2.096  -0.007  0.00  0.00    -0.249 N 
ATOM     11  H   UNL     1       3.184   2.841  -0.172  0.00  0.00    +0.173 HD
BRANCH  10  17
ATOM     12  C   UNL     1       1.719  -0.104   0.722  0.00  0.00    +0.026 A 
ATOM     13  C   UNL     1       2.049  -1.386   1.117  0.00  0.00    +0.022 A 
ATOM     14  C   UNL     1       3.377  -1.765   1.202  0.00  0.00    +0.041 A 
ATOM     15  C   UNL     1       4.378  -0.864   0.886  0.00  0.00    +0.022 A 
ATOM     16  C   UNL     1       4.054   0.417   0.485  0.00  0.00    +0.026 A 
ATOM     17  C   UNL     1       2.722   0.801   0.398  0.00  0.00    +0.047 A 
ATOM     18 CL   UNL     1       3.788  -3.375   1.706  0.00  0.00    -0.084 Cl
ENDBRANCH  10  17
ENDBRANCH   1  10
BRANCH   4  19
ATOM     19  C   UNL     1      -1.984   2.810  -2.109  0.00  0.00    +0.226 C 
BRANCH  19  20
ATOM     20  C   UNL     1      -2.765   1.522  -2.048  0.00  0.00    +0.187 C 
ATOM     21  O   UNL     1      -2.442   0.653  -1.266  0.00  0.00    -0.290 OA
BRANCH  20  22
ATOM     22  C   UNL     1      -3.918   1.319  -2.936  0.00  0.00    +0.056 A 
ATOM     23  C   UNL     1      -4.298   2.323  -3.836  0.00  0.00    +0.054 A 
ATOM     24  C   UNL     1      -5.379   2.122  -4.670  0.00  0.00    +0.040 A 
ATOM     25  C   UNL     1      -6.094   0.937  -4.611  0.00  0.00    +0.044 A 
ATOM     26  C   UNL     1      -5.728  -0.058  -3.719  0.00  0.00    +0.040 A 
ATOM     27  C   UNL     1      -4.647   0.124  -2.882  0.00  0.00    +0.054 A 
ATOM     28 CL   UNL     1      -4.190  -1.124  -1.766  0.00  0.00    -0.083 Cl
ATOM     29 CL   UNL     1      -7.457   0.698  -5.660  0.00  0.00    -0.083 Cl
ATOM     30 CL   UNL     1      -3.408   3.812  -3.908  0.00  0.00    -0.083 Cl
ENDBRANCH  20  22
ENDBRANCH  19  20
ENDBRANCH   4  19
TORSDOF 5
