REMARK  Name = ZINC27496285
REMARK  10 active torsions:
REMARK  status: ('A' for Active; 'I' for Inactive)
REMARK    1  A    between atoms: C_1  and  C_2
REMARK    2  A    between atoms: N_4  and  C_5
REMARK    3  A    between atoms: C_8  and  N_11
REMARK    4  A    between atoms: N_11  and  C_12
REMARK    5  A    between atoms: C_12  and  N_14
REMARK    6  A    between atoms: N_14  and  C_15
REMARK    7  A    between atoms: C_15  and  C_17
REMARK    8  A    between atoms: C_15  and  N_21
REMARK    9  A    between atoms: C_22  and  C_24
REMARK   10  A    between atoms: C_25  and  C_26
REMARK                            x       y       z     vdW  Elec       q    Type
REMARK                         _______ _______ _______ _____ _____    ______ ____
ROOT
ATOM      1  N   UNL     1      -1.519   8.925  -2.378  0.00  0.00    -0.305 N 
ATOM      2  H   UNL     1      -2.290   9.710  -2.388  0.00  0.00    +0.150 HD
ENDROOT
BRANCH   1   3
ATOM      3  C   UNL     1      -1.820   7.680  -2.796  0.00  0.00    +0.136 C 
ATOM      4  S   UNL     1      -0.619   6.459  -2.781  0.00  0.00    -0.019 S 
BRANCH   3   5
ATOM      5  N   UNL     1      -3.065   7.395  -3.226  0.00  0.00    -0.297 N 
ATOM      6  H   UNL     1      -3.853   8.161  -3.174  0.00  0.00    +0.154 HD
BRANCH   5  10
ATOM      7  C   UNL     1      -3.931   3.614  -4.754  0.00  0.00    +0.033 A 
ATOM      8  C   UNL     1      -4.357   4.750  -5.430  0.00  0.00    +0.025 A 
ATOM      9  C   UNL     1      -4.075   6.002  -4.921  0.00  0.00    +0.025 A 
ATOM     10  C   UNL     1      -3.355   6.125  -3.740  0.00  0.00    +0.033 A 
ATOM     11  C   UNL     1      -2.924   4.989  -3.067  0.00  0.00    +0.025 A 
ATOM     12  C   UNL     1      -3.211   3.737  -3.573  0.00  0.00    +0.025 A 
BRANCH   7  16
ATOM     13  C   UNL     1      -5.647   0.801  -6.575  0.00  0.00    +0.109 C 
ATOM     14  C   UNL     1      -5.393   2.123  -5.897  0.00  0.00    +0.214 C 
ATOM     15  O   UNL     1      -6.245   2.987  -5.913  0.00  0.00    -0.276 OA
ATOM     16  N   UNL     1      -4.222   2.343  -5.267  0.00  0.00    -0.286 N 
ATOM     17  H   UNL     1      -3.495   1.525  -5.156  0.00  0.00    +0.155 HD
ENDBRANCH   7  16
ENDBRANCH   5  10
ENDBRANCH   3   5
ENDBRANCH   1   3
BRANCH   1  18
ATOM     18  C   UNL     1      -0.166   9.235  -1.911  0.00  0.00    +0.211 C 
BRANCH  18  19
ATOM     19  C   UNL     1      -0.246  10.053  -0.621  0.00  0.00    +0.225 C 
ATOM     20 CL   UNL     1      -1.114   9.101   0.641  0.00  0.00    -0.080 Cl
ATOM     21 CL   UNL     1       1.420  10.433  -0.045  0.00  0.00    -0.080 Cl
ATOM     22 CL   UNL     1      -1.138  11.587  -0.936  0.00  0.00    -0.080 Cl
ENDBRANCH  18  19
BRANCH  18  23
ATOM     23  N   UNL     1       0.540  10.008  -2.936  0.00  0.00    -0.290 N 
ATOM     24  C   UNL     1       1.487   9.418  -3.692  0.00  0.00    +0.238 C 
ATOM     25  O   UNL     1       1.756   8.243  -3.523  0.00  0.00    -0.271 OA
ATOM     26  H   UNL     1       0.297  11.070  -3.089  0.00  0.00    +0.151 HD
BRANCH  24  27
ATOM     27  C   UNL     1       2.193  10.191  -4.716  0.00  0.00    +0.068 C 
ATOM     28  C   UNL     1       3.249   9.652  -5.359  0.00  0.00    +0.013 C 
BRANCH  28  29
ATOM     29  C   UNL     1       3.848   8.400  -4.869  0.00  0.00    -0.025 A 
ATOM     30  C   UNL     1       4.112   8.233  -3.506  0.00  0.00    +0.008 A 
ATOM     31  C   UNL     1       4.669   7.055  -3.055  0.00  0.00    +0.001 A 
ATOM     32  C   UNL     1       4.976   6.044  -3.948  0.00  0.00    +0.000 A 
ATOM     33  C   UNL     1       4.722   6.203  -5.299  0.00  0.00    +0.001 A 
ATOM     34  C   UNL     1       4.161   7.373  -5.765  0.00  0.00    +0.008 A 
ENDBRANCH  28  29
ENDBRANCH  24  27
ENDBRANCH  18  23
ENDBRANCH   1  18
TORSDOF 9
