REMARK  Name = ZINC58551187
REMARK  11 active torsions:
REMARK  status: ('A' for Active; 'I' for Inactive)
REMARK    1  A    between atoms: C_1  and  C_2
REMARK    2  A    between atoms: C_3  and  C_31
REMARK    3  A    between atoms: C_7  and  N_30
REMARK    4  A    between atoms: C_9  and  C_11
REMARK    5  A    between atoms: C_11  and  C_13
REMARK    6  A    between atoms: C_11  and  S_14
REMARK    7  A    between atoms: S_14  and  C_15
REMARK    8  A    between atoms: C_18  and  C_21
REMARK    9  A    between atoms: N_19  and  N_20
REMARK   10  A    between atoms: C_21  and  O_22
REMARK   11  A    between atoms: O_22  and  C_23
REMARK                            x       y       z     vdW  Elec       q    Type
REMARK                         _______ _______ _______ _____ _____    ______ ____
ROOT
ATOM      1  S   UNL     1       1.664  -2.797   5.696  0.00  0.00    -0.074 S 
ENDROOT
BRANCH   1   2
ATOM      2  C   UNL     1       2.605  -3.994   6.582  0.00  0.00    +0.209 A 
ATOM      3  N   UNL     1       3.293  -4.985   6.065  0.00  0.00    -0.121 NA
ATOM      4  N   UNL     1       3.857  -5.662   7.002  0.00  0.00    -0.128 NA
ATOM      5  C   UNL     1       3.564  -5.147   8.162  0.00  0.00    +0.189 A 
ATOM      6  N   UNL     1       2.762  -4.063   7.937  0.00  0.00    -0.225 N 
BRANCH   6   7
ATOM      7  N   UNL     1       2.225  -3.225   8.873  0.00  0.00    -0.295 N 
ATOM      8  H   UNL     1       1.323  -3.557   9.181  0.00  0.00    +0.163 HD
ATOM      9  H   UNL     1       2.853  -3.106   9.654  0.00  0.00    +0.163 HD
ENDBRANCH   6   7
BRANCH   5  10
ATOM     10  C   UNL     1       4.030  -5.649   9.505  0.00  0.00    +0.306 C 
BRANCH  10  11
ATOM     11  O   UNL     1       5.263  -5.013   9.850  0.00  0.00    -0.484 OA
BRANCH  11  12
ATOM     12  C   UNL     1       5.823  -5.357  11.040  0.00  0.00    +0.121 A 
ATOM     13  C   UNL     1       5.202  -6.292  11.855  0.00  0.00    +0.048 A 
ATOM     14  C   UNL     1       5.772  -6.641  13.064  0.00  0.00    +0.042 A 
ATOM     15  C   UNL     1       6.963  -6.058  13.462  0.00  0.00    +0.124 A 
ATOM     16  C   UNL     1       7.583  -5.124  12.650  0.00  0.00    +0.042 A 
ATOM     17  C   UNL     1       7.019  -4.778  11.438  0.00  0.00    +0.048 A 
ATOM     18  F   UNL     1       7.519  -6.399  14.645  0.00  0.00    -0.205 F 
ENDBRANCH  11  12
ENDBRANCH  10  11
ENDBRANCH   5  10
ENDBRANCH   1   2
BRANCH   1  19
ATOM     19  C   UNL     1       1.873  -3.273   3.958  0.00  0.00    +0.119 C 
ATOM     20  C   UNL     1       3.340  -3.106   3.557  0.00  0.00    +0.028 C 
BRANCH  19  29
ATOM     21  C   UNL     1      -1.596   1.384   0.669  0.00  0.00    +0.045 C 
ATOM     22  C   UNL     1      -1.424  -0.111   0.597  0.00  0.00    -0.028 A 
ATOM     23  C   UNL     1      -2.079  -0.826  -0.330  0.00  0.00    -0.008 A 
ATOM     24  S   UNL     1      -1.557  -2.500  -0.011  0.00  0.00    -0.074 S 
ATOM     25  C   UNL     1      -0.472  -2.195   1.358  0.00  0.00    +0.114 A 
ATOM     26  C   UNL     1      -0.541  -0.794   1.526  0.00  0.00    +0.050 A 
ATOM     27  C   UNL     1       0.255  -0.267   2.579  0.00  0.00    +0.128 A 
ATOM     28  N   UNL     1       0.991  -1.091   3.307  0.00  0.00    -0.216 NA
ATOM     29  C   UNL     1       1.012  -2.394   3.089  0.00  0.00    +0.145 A 
ATOM     30  N   UNL     1       0.286  -2.944   2.134  0.00  0.00    -0.224 NA
ATOM     31  C   UNL     1      -3.032  -0.331  -1.388  0.00  0.00    +0.052 C 
BRANCH  27  32
ATOM     32  N   UNL     1       0.262   1.092   2.839  0.00  0.00    -0.343 N 
ATOM     33  H   UNL     1       0.110   1.724   2.119  0.00  0.00    +0.144 HD
ATOM     34  H   UNL     1       0.418   1.412   3.741  0.00  0.00    +0.144 HD
ENDBRANCH  27  32
ENDBRANCH  19  29
ENDBRANCH   1  19
TORSDOF 8
