REMARK  Name = ZINC00267941
REMARK  6 active torsions:
REMARK  status: ('A' for Active; 'I' for Inactive)
REMARK    1  A    between atoms: C_4  and  N_7
REMARK    2  A    between atoms: N_7  and  C_8
REMARK    3  A    between atoms: C_8  and  N_10
REMARK    4  A    between atoms: N_10  and  C_11
REMARK    5  A    between atoms: C_11  and  C_17
REMARK    6  A    between atoms: C_23  and  O_25
REMARK                            x       y       z     vdW  Elec       q    Type
REMARK                         _______ _______ _______ _____ _____    ______ ____
ROOT
ATOM      1  C   UNL     1       4.657  -4.110  -0.157  0.00  0.00    +0.039 C 
ATOM      2  C   UNL     1       3.896  -4.795   0.981  0.00  0.00    +0.026 C 
ATOM      3  C   UNL     1       2.448  -4.301   0.995  0.00  0.00    +0.002 C 
ATOM      4  C   UNL     1       1.781  -4.638  -0.340  0.00  0.00    +0.000 C 
ATOM      5  C   UNL     1       2.542  -3.954  -1.477  0.00  0.00    +0.002 C 
ATOM      6  C   UNL     1       3.990  -4.447  -1.492  0.00  0.00    +0.026 C 
ENDROOT
BRANCH   1   7
ATOM      7  C   UNL     1       6.105  -4.603  -0.171  0.00  0.00    +0.041 C 
ATOM      8  C   UNL     1       6.127  -6.113  -0.421  0.00  0.00    +0.008 C 
ATOM      9  C   UNL     1       7.575  -6.606  -0.436  0.00  0.00    +0.001 C 
ATOM     10  C   UNL     1       8.231  -6.303   0.913  0.00  0.00    +0.003 C 
ATOM     11  C   UNL     1       8.209  -4.794   1.163  0.00  0.00    +0.032 C 
ATOM     12  C   UNL     1       6.761  -4.300   1.178  0.00  0.00    +0.120 C 
BRANCH  12  13
ATOM     13  O   UNL     1       6.740  -2.891   1.412  0.00  0.00    -0.391 OA
ATOM     14  H   UNL     1       7.140  -2.625   2.251  0.00  0.00    +0.210 HD
ENDBRANCH  12  13
ENDBRANCH   1   7
BRANCH   1  15
ATOM     15  N   UNL     1       4.637  -2.659   0.047  0.00  0.00    -0.320 N 
ATOM     16  H   UNL     1       4.163  -2.282   0.804  0.00  0.00    +0.148 HD
BRANCH  15  17
ATOM     17  C   UNL     1       5.279  -1.849  -0.819  0.00  0.00    +0.135 C 
ATOM     18  S   UNL     1       6.046  -2.507  -2.200  0.00  0.00    -0.019 S 
BRANCH  17  19
ATOM     19  N   UNL     1       5.315  -0.520  -0.596  0.00  0.00    -0.297 N 
ATOM     20  H   UNL     1       4.931  -0.153   0.215  0.00  0.00    +0.154 HD
BRANCH  19  24
ATOM     21  C   UNL     1       7.077   2.012  -3.396  0.00  0.00    +0.000 A 
ATOM     22  C   UNL     1       5.853   2.340  -2.844  0.00  0.00    +0.002 A 
ATOM     23  C   UNL     1       5.266   1.502  -1.916  0.00  0.00    +0.023 A 
ATOM     24  C   UNL     1       5.907   0.330  -1.536  0.00  0.00    +0.033 A 
ATOM     25  C   UNL     1       7.137   0.004  -2.092  0.00  0.00    +0.023 A 
ATOM     26  C   UNL     1       7.719   0.846  -3.020  0.00  0.00    +0.002 A 
ENDBRANCH  19  24
ENDBRANCH  17  19
ENDBRANCH  15  17
ENDBRANCH   1  15
TORSDOF 6
