REMARK  Name = ZINC02050098
REMARK  10 active torsions:
REMARK  status: ('A' for Active; 'I' for Inactive)
REMARK    1  A    between atoms: C_1  and  C_2
REMARK    2  A    between atoms: C_2  and  O_3
REMARK    3  A    between atoms: O_3  and  C_4
REMARK    4  A    between atoms: C_9  and  C_10
REMARK    5  A    between atoms: N_12  and  C_13
REMARK    6  A    between atoms: C_13  and  C_14
REMARK    7  A    between atoms: C_13  and  C_18
REMARK    8  A    between atoms: C_13  and  N_22
REMARK    9  A    between atoms: N_22  and  C_23
REMARK   10  A    between atoms: C_24  and  C_32
REMARK                            x       y       z     vdW  Elec       q    Type
REMARK                         _______ _______ _______ _____ _____    ______ ____
ROOT
ATOM      1  C   UNL     1      -2.382   7.294  -3.030  0.00  0.00    +0.293 C 
ENDROOT
BRANCH   1   4
ATOM      2  C   UNL     1      -3.549   9.249  -2.162  0.00  0.00    +0.250 C 
ATOM      3  O   UNL     1      -3.774   8.628  -1.141  0.00  0.00    -0.270 OA
ATOM      4  N   UNL     1      -2.814   8.689  -3.144  0.00  0.00    -0.276 N 
ATOM      5  H   UNL     1      -2.572   9.210  -3.925  0.00  0.00    +0.152 HD
BRANCH   2  11
ATOM      6  C   UNL     1      -4.845  11.202  -1.308  0.00  0.00    +0.133 A 
ATOM      7  C   UNL     1      -5.339  12.487  -1.473  0.00  0.00    +0.046 A 
ATOM      8  C   UNL     1      -5.077  13.185  -2.635  0.00  0.00    +0.004 A 
ATOM      9  C   UNL     1      -4.322  12.610  -3.644  0.00  0.00    +0.001 A 
ATOM     10  C   UNL     1      -3.819  11.335  -3.495  0.00  0.00    +0.017 A 
ATOM     11  C   UNL     1      -4.080  10.616  -2.326  0.00  0.00    +0.078 A 
BRANCH   6  12
ATOM     12  O   UNL     1      -5.099  10.515  -0.167  0.00  0.00    -0.491 OA
BRANCH  12  14
ATOM     13  C   UNL     1      -6.066  10.253   2.033  0.00  0.00    +0.048 C 
ATOM     14  C   UNL     1      -5.886  11.177   0.827  0.00  0.00    +0.226 C 
ENDBRANCH  12  14
ENDBRANCH   6  12
ENDBRANCH   2  11
ENDBRANCH   1   4
BRANCH   1  15
ATOM     15  C   UNL     1      -1.283   7.016  -4.058  0.00  0.00    +0.436 C 
ATOM     16  F   UNL     1      -0.790   5.719  -3.874  0.00  0.00    -0.166 F 
ATOM     17  F   UNL     1      -1.811   7.135  -5.348  0.00  0.00    -0.166 F 
ATOM     18  F   UNL     1      -0.244   7.938  -3.892  0.00  0.00    -0.166 F 
ENDBRANCH   1  15
BRANCH   1  19
ATOM     19  C   UNL     1      -3.572   6.369  -3.292  0.00  0.00    +0.436 C 
ATOM     20  F   UNL     1      -4.615   6.693  -2.418  0.00  0.00    -0.166 F 
ATOM     21  F   UNL     1      -4.003   6.526  -4.613  0.00  0.00    -0.166 F 
ATOM     22  F   UNL     1      -3.184   5.041  -3.083  0.00  0.00    -0.166 F 
ENDBRANCH   1  19
BRANCH   1  23
ATOM     23  N   UNL     1      -1.862   7.052  -1.682  0.00  0.00    -0.303 N 
ATOM     24  H   UNL     1      -2.111   6.246  -1.204  0.00  0.00    +0.149 HD
BRANCH  23  25
ATOM     25  C   UNL     1      -1.016   7.973  -1.092  0.00  0.00    +0.080 A 
ATOM     26  C   UNL     1      -0.493   7.964   0.195  0.00  0.00    +0.068 A 
ATOM     27  C   UNL     1       0.382   9.062   0.571  0.00  0.00    -0.023 A 
ATOM     28  C   UNL     1       0.591   9.986  -0.391  0.00  0.00    -0.005 A 
ATOM     29  S   UNL     1      -0.351   9.418  -1.778  0.00  0.00    -0.078 S 
ATOM     30  C   UNL     1       1.438  11.217  -0.292  0.00  0.00    +0.043 C 
ATOM     31  C   UNL     1       1.740  11.479   1.191  0.00  0.00    +0.005 C 
ATOM     32  C   UNL     1       2.205  10.172   1.841  0.00  0.00    +0.005 C 
ATOM     33  C   UNL     1       1.033   9.195   1.942  0.00  0.00    +0.037 C 
BRANCH  26  34
ATOM     34  C   UNL     1      -0.811   6.888   1.137  0.00  0.00    +0.244 C 
ATOM     35  O   UNL     1      -1.777   6.988   1.871  0.00  0.00    -0.270 OA
ATOM     36  N   UNL     1      -0.034   5.788   1.190  0.00  0.00    -0.325 N 
ATOM     37  H   UNL     1       0.736   5.709   0.605  0.00  0.00    +0.145 HD
ATOM     38  H   UNL     1      -0.244   5.076   1.814  0.00  0.00    +0.145 HD
ENDBRANCH  26  34
ENDBRANCH  23  25
ENDBRANCH   1  23
TORSDOF 9
