REMARK  Name = ZINC39487329
REMARK  14 active torsions:
REMARK  status: ('A' for Active; 'I' for Inactive)
REMARK    1  A    between atoms: C_1  and  C_2
REMARK    2  A    between atoms: C_2  and  C_3
REMARK    3  A    between atoms: C_3  and  C_34
REMARK    4  A    between atoms: N_5  and  S_28
REMARK    5  A    between atoms: N_8  and  C_9
REMARK    6  A    between atoms: C_9  and  C_10
REMARK    7  A    between atoms: C_10  and  C_22
REMARK    8  A    between atoms: N_13  and  S_16
REMARK    9  A    between atoms: S_16  and  C_19
REMARK   10  A    between atoms: C_19  and  C_20
REMARK   11  A    between atoms: C_19  and  C_21
REMARK   12  A    between atoms: S_28  and  C_31
REMARK   13  A    between atoms: C_31  and  C_32
REMARK   14  A    between atoms: C_31  and  C_33
REMARK                            x       y       z     vdW  Elec       q    Type
REMARK                         _______ _______ _______ _____ _____    ______ ____
ROOT
ATOM      1  C   UNL     1       0.179  -3.624  -0.594  0.00  0.00    -0.008 C 
ATOM      2  C   UNL     1       0.897  -2.311  -0.275  0.00  0.00    +0.026 C 
ATOM      3  C   UNL     1       0.136  -1.573   0.830  0.00  0.00    +0.109 C 
ATOM      4  N   UNL     1      -0.016  -2.472   1.982  0.00  0.00    -0.181 NA
ATOM      5  C   UNL     1      -0.612  -3.798   1.769  0.00  0.00    +0.109 C 
ATOM      6  C   UNL     1       0.158  -4.511   0.654  0.00  0.00    +0.026 C 
ENDROOT
BRANCH   1   7
ATOM      7  C   UNL     1       0.918  -4.348  -1.721  0.00  0.00    -0.003 C 
ATOM      8  C   UNL     1       0.362  -5.766  -1.867  0.00  0.00    +0.004 C 
ATOM      9  C   UNL     1       1.101  -6.490  -2.994  0.00  0.00    +0.000 C 
ATOM     10  C   UNL     1       2.594  -6.559  -2.664  0.00  0.00    +0.000 C 
ATOM     11  C   UNL     1       3.149  -5.141  -2.519  0.00  0.00    +0.000 C 
ATOM     12  C   UNL     1       2.411  -4.417  -1.391  0.00  0.00    +0.004 C 
ENDBRANCH   1   7
BRANCH   4  13
ATOM     13  S   UNL     1       0.476  -2.001   3.491  0.00  0.00    +0.034 S 
ATOM     14  O   UNL     1       0.883  -3.202   4.132  0.00  0.00    -0.158 OA
ATOM     15  O   UNL     1       1.408  -0.953   3.258  0.00  0.00    -0.158 OA
BRANCH  13  16
ATOM     16  C   UNL     1      -1.017  -1.344   4.285  0.00  0.00    +0.142 C 
ATOM     17  C   UNL     1      -0.653  -0.756   5.650  0.00  0.00    +0.033 C 
ATOM     18  C   UNL     1      -1.623  -0.250   3.404  0.00  0.00    +0.033 C 
ENDBRANCH  13  16
ENDBRANCH   4  13
BRANCH   1  19
ATOM     19  C   UNL     1      -1.256  -3.327  -1.033  0.00  0.00    +0.117 C 
BRANCH  19  25
ATOM     20  C   UNL     1      -1.585  -2.878  -3.581  0.00  0.00    +0.053 C 
ATOM     21  C   UNL     1      -1.395  -1.598  -4.417  0.00  0.00    +0.161 C 
ATOM     22  N   UNL     1      -0.957  -0.596  -3.433  0.00  0.00    -0.158 N 
ATOM     23  C   UNL     1      -0.895  -1.167  -2.223  0.00  0.00    +0.324 C 
ATOM     24  O   UNL     1      -0.559  -0.563  -1.222  0.00  0.00    -0.251 OA
ATOM     25  N   UNL     1      -1.235  -2.462  -2.215  0.00  0.00    -0.277 N 
ATOM     26  C   UNL     1      -3.039  -3.351  -3.643  0.00  0.00    +0.033 C 
BRANCH  22  27
ATOM     27  S   UNL     1      -0.598   0.985  -3.768  0.00  0.00    +0.051 S 
ATOM     28  O   UNL     1       0.316   1.373  -2.752  0.00  0.00    -0.155 OA
ATOM     29  O   UNL     1      -0.206   0.987  -5.134  0.00  0.00    -0.155 OA
BRANCH  27  30
ATOM     30  C   UNL     1      -2.168   1.872  -3.568  0.00  0.00    +0.145 C 
ATOM     31  C   UNL     1      -1.984   3.335  -3.977  0.00  0.00    +0.033 C 
ATOM     32  C   UNL     1      -3.235   1.226  -4.455  0.00  0.00    +0.033 C 
ENDBRANCH  27  30
ENDBRANCH  22  27
BRANCH  20  34
ATOM     33  C   UNL     1      -1.088  -4.463  -5.447  0.00  0.00    +0.006 C 
ATOM     34  C   UNL     1      -0.642  -3.981  -4.065  0.00  0.00    +0.024 C 
ENDBRANCH  20  34
ENDBRANCH  19  25
ENDBRANCH   1  19
TORSDOF 8
