REMARK  Name = ZINC02576498
REMARK  6 active torsions:
REMARK  status: ('A' for Active; 'I' for Inactive)
REMARK    1  A    between atoms: C_3  and  C_17
REMARK    2  A    between atoms: C_6  and  C_7
REMARK    3  A    between atoms: C_7  and  S_8
REMARK    4  A    between atoms: S_8  and  C_9
REMARK    5  A    between atoms: C_17  and  S_18
REMARK    6  A    between atoms: S_18  and  C_19
REMARK                            x       y       z     vdW  Elec       q    Type
REMARK                         _______ _______ _______ _____ _____    ______ ____
ROOT
ATOM      1  C   UNL     1       4.717   5.520   1.183  0.00  0.00    +0.005 A 
ATOM      2  C   UNL     1       5.745   6.443   1.177  0.00  0.00    +0.005 A 
ATOM      3  C   UNL     1       6.247   6.912  -0.022  0.00  0.00    -0.037 A 
ATOM      4  C   UNL     1       5.723   6.455  -1.217  0.00  0.00    +0.005 A 
ATOM      5  C   UNL     1       4.697   5.528  -1.212  0.00  0.00    +0.005 A 
ATOM      6  C   UNL     1       4.196   5.059  -0.012  0.00  0.00    -0.037 A 
ENDROOT
BRANCH   6   7
ATOM      7  C   UNL     1       3.077   4.049  -0.006  0.00  0.00    +0.111 C 
BRANCH   7   8
ATOM      8  S   UNL     1       3.772   2.378  -0.022  0.00  0.00    -0.101 S 
BRANCH   8   9
ATOM      9  C   UNL     1       2.288   1.429  -0.012  0.00  0.00    +0.104 A 
ATOM     10  C   UNL     1       2.339   0.033  -0.020  0.00  0.00    +0.075 A 
ATOM     11  C   UNL     1       1.149  -0.670  -0.013  0.00  0.00    +0.135 A 
ATOM     12  N   UNL     1       0.002  -0.004   0.002  0.00  0.00    -0.203 NA
ATOM     13  C   UNL     1      -0.016   1.321   0.009  0.00  0.00    +0.215 A 
ATOM     14  N   UNL     1       1.102   2.031   0.002  0.00  0.00    -0.208 NA
ATOM     15  N   UNL     1      -1.233   1.978   0.019  0.00  0.00    -0.327 N 
ATOM     16 CL   UNL     1       1.156  -2.406  -0.022  0.00  0.00    -0.062 Cl
ATOM     17  H   UNL     1      -2.059   1.470   0.020  0.00  0.00    +0.145 HD
ATOM     18  H   UNL     1      -1.261   2.948   0.024  0.00  0.00    +0.145 HD
ENDBRANCH   8   9
ENDBRANCH   7   8
ENDBRANCH   6   7
BRANCH   3  19
ATOM     19  C   UNL     1       7.367   7.921  -0.028  0.00  0.00    +0.111 C 
BRANCH  19  20
ATOM     20  S   UNL     1       6.672   9.592  -0.013  0.00  0.00    -0.101 S 
BRANCH  20  21
ATOM     21  C   UNL     1       8.156  10.541  -0.023  0.00  0.00    +0.104 A 
ATOM     22  C   UNL     1       8.105  11.937  -0.021  0.00  0.00    +0.075 A 
ATOM     23  C   UNL     1       9.296  12.640  -0.023  0.00  0.00    +0.135 A 
ATOM     24  N   UNL     1      10.443  11.973  -0.037  0.00  0.00    -0.203 NA
ATOM     25  C   UNL     1      10.460  10.648  -0.044  0.00  0.00    +0.215 A 
ATOM     26  N   UNL     1       9.342   9.938  -0.037  0.00  0.00    -0.208 NA
ATOM     27  N   UNL     1      11.677   9.990  -0.059  0.00  0.00    -0.327 N 
ATOM     28 CL   UNL     1       9.290  14.376  -0.014  0.00  0.00    -0.062 Cl
ATOM     29  H   UNL     1      11.704   9.020  -0.064  0.00  0.00    +0.145 HD
ATOM     30  H   UNL     1      12.504  10.498  -0.064  0.00  0.00    +0.145 HD
ENDBRANCH  20  21
ENDBRANCH  19  20
ENDBRANCH   3  19
TORSDOF 6
