REMARK  Name = ZINC33018314
REMARK  8 active torsions:
REMARK  status: ('A' for Active; 'I' for Inactive)
REMARK    1  A    between atoms: C_1  and  C_2
REMARK    2  A    between atoms: C_5  and  N_8
REMARK    3  A    between atoms: C_9  and  C_11
REMARK    4  A    between atoms: C_11  and  S_12
REMARK    5  A    between atoms: S_12  and  C_13
REMARK    6  A    between atoms: C_18  and  N_22
REMARK    7  A    between atoms: N_25  and  C_26
REMARK    8  A    between atoms: C_29  and  C_32
REMARK                            x       y       z     vdW  Elec       q    Type
REMARK                         _______ _______ _______ _____ _____    ______ ____
ROOT
ATOM      1  C   UNL     1      -1.161   1.865  -1.707  0.00  0.00    +0.136 A 
ATOM      2  N   UNL     1      -0.174   1.023  -1.912  0.00  0.00    -0.233 NA
ATOM      3  C   UNL     1       0.213   0.646  -3.151  0.00  0.00    +0.080 A 
ATOM      4  C   UNL     1       1.251  -0.246  -3.506  0.00  0.00    +0.031 A 
ATOM      5  C   UNL     1       1.518  -0.526  -4.820  0.00  0.00    +0.025 A 
ATOM      6  C   UNL     1       0.782   0.055  -5.850  0.00  0.00    +0.036 A 
ATOM      7  C   UNL     1      -0.244   0.936  -5.535  0.00  0.00    +0.040 A 
ATOM      8  C   UNL     1      -0.514   1.218  -4.220  0.00  0.00    +0.042 A 
ATOM      9  S   UNL     1      -1.694   2.240  -3.371  0.00  0.00    -0.061 S 
ENDROOT
BRANCH   6  10
ATOM     10  N   UNL     1       1.073  -0.246  -7.188  0.00  0.00    -0.269 N 
ATOM     11  C   UNL     1       0.078  -0.319  -8.094  0.00  0.00    +0.308 C 
ATOM     12  O   UNL     1      -1.060  -0.040  -7.771  0.00  0.00    -0.252 OA
ATOM     13  N   UNL     1       0.345  -0.700  -9.359  0.00  0.00    -0.269 N 
ATOM     14  H   UNL     1       2.114  -0.422  -7.498  0.00  0.00    +0.156 HD
ATOM     15  H   UNL     1       1.360  -1.025  -9.633  0.00  0.00    +0.156 HD
BRANCH  13  16
ATOM     16  C   UNL     1      -0.668  -0.682 -10.324  0.00  0.00    +0.035 A 
ATOM     17  C   UNL     1      -1.972  -1.001  -9.969  0.00  0.00    +0.023 A 
ATOM     18  C   UNL     1      -2.971  -0.978 -10.923  0.00  0.00    +0.005 A 
ATOM     19  C   UNL     1      -2.671  -0.648 -12.232  0.00  0.00    -0.050 A 
ATOM     20  C   UNL     1      -1.372  -0.335 -12.589  0.00  0.00    +0.005 A 
ATOM     21  C   UNL     1      -0.370  -0.351 -11.639  0.00  0.00    +0.023 A 
ATOM     22  C   UNL     1      -3.762  -0.630 -13.271  0.00  0.00    +0.044 C 
ENDBRANCH  13  16
ENDBRANCH   6  10
BRANCH   1  23
ATOM     23  S   UNL     1      -1.802   2.467  -0.180  0.00  0.00    -0.089 S 
BRANCH  23  24
ATOM     24  C   UNL     1      -0.718   1.597   0.980  0.00  0.00    +0.172 C 
BRANCH  24  26
ATOM     25  N   UNL     1      -0.416   1.438   3.430  0.00  0.00    -0.285 N 
ATOM     26  C   UNL     1      -1.092   1.969   2.392  0.00  0.00    +0.227 C 
ATOM     27  O   UNL     1      -2.002   2.745   2.594  0.00  0.00    -0.275 OA
ATOM     28  H   UNL     1       0.464   0.804   3.247  0.00  0.00    +0.155 HD
BRANCH  25  33
ATOM     29  C   UNL     1      -2.106   2.476   8.745  0.00  0.00    +0.044 C 
ATOM     30  C   UNL     1      -1.657   2.200   7.333  0.00  0.00    -0.050 A 
ATOM     31  C   UNL     1      -2.594   2.073   6.323  0.00  0.00    +0.005 A 
ATOM     32  C   UNL     1      -2.185   1.821   5.029  0.00  0.00    +0.023 A 
ATOM     33  C   UNL     1      -0.833   1.694   4.741  0.00  0.00    +0.033 A 
ATOM     34  C   UNL     1       0.105   1.816   5.758  0.00  0.00    +0.023 A 
ATOM     35  C   UNL     1      -0.310   2.075   7.050  0.00  0.00    +0.005 A 
ENDBRANCH  25  33
ENDBRANCH  24  26
ENDBRANCH  23  24
ENDBRANCH   1  23
TORSDOF 6
