REMARK  Name = ZINC59644761
REMARK  7 active torsions:
REMARK  status: ('A' for Active; 'I' for Inactive)
REMARK    1  A    between atoms: C_2  and  C_3
REMARK    2  A    between atoms: C_3  and  O_4
REMARK    3  A    between atoms: O_4  and  C_5
REMARK    4  A    between atoms: C_8  and  C_12
REMARK    5  A    between atoms: N_13  and  N_14
REMARK    6  A    between atoms: C_15  and  C_17
REMARK    7  A    between atoms: C_17  and  C_18
REMARK                            x       y       z     vdW  Elec       q    Type
REMARK                         _______ _______ _______ _____ _____    ______ ____
ROOT
ATOM      1  C   UNL     1       1.981   7.529   0.024  0.00  0.00    +0.138 C 
ATOM      2  N   UNL     1       2.073   8.167   1.150  0.00  0.00    -0.188 NA
ENDROOT
BRANCH   1   6
ATOM      3  C   UNL     1       1.482   3.312   0.006  0.00  0.00    +0.158 A 
ATOM      4  C   UNL     1       1.547   4.007  -1.196  0.00  0.00    +0.085 A 
ATOM      5  C   UNL     1       1.708   5.377  -1.194  0.00  0.00    +0.033 A 
ATOM      6  C   UNL     1       1.808   6.065   0.017  0.00  0.00    -0.002 A 
ATOM      7  C   UNL     1       1.742   5.362   1.223  0.00  0.00    +0.033 A 
ATOM      8  C   UNL     1       1.575   3.993   1.213  0.00  0.00    +0.085 A 
ATOM      9 CL   UNL     1       1.488   3.120   2.711  0.00  0.00    -0.080 Cl
ATOM     10 CL   UNL     1       1.424   3.150  -2.701  0.00  0.00    -0.080 Cl
BRANCH   3  11
ATOM     11  O   UNL     1       1.323   1.962   0.000  0.00  0.00    -0.477 OA
BRANCH  11  12
ATOM     12  C   UNL     1      -0.018   1.468   0.010  0.00  0.00    +0.317 C 
BRANCH  12  14
ATOM     13  C   UNL     1       0.018  -1.178  -0.004  0.00  0.00    +0.007 C 
ATOM     14  C   UNL     1       0.002  -0.004   0.002  0.00  0.00    -0.065 C 
ENDBRANCH  12  14
ENDBRANCH  11  12
ENDBRANCH   3  11
ENDBRANCH   1   6
BRANCH   2  15
ATOM     15  N   UNL     1       2.237   9.559   1.156  0.00  0.00    -0.207 N 
ATOM     16  C   UNL     1       2.333  10.221   2.326  0.00  0.00    +0.238 C 
ATOM     17  O   UNL     1       2.276   9.612   3.374  0.00  0.00    -0.274 OA
ATOM     18  H   UNL     1       2.283  10.045   0.318  0.00  0.00    +0.177 HD
BRANCH  16  19
ATOM     19  C   UNL     1       2.510  11.717   2.332  0.00  0.00    +0.153 C 
BRANCH  19  20
ATOM     20  C   UNL     1       2.589  12.208   3.755  0.00  0.00    +0.059 A 
ATOM     21  C   UNL     1       3.634  12.953   4.189  0.00  0.00    +0.072 A 
ATOM     22  S   UNL     1       3.170  13.216   5.893  0.00  0.00    -0.061 S 
ATOM     23  C   UNL     1       1.719  12.363   5.874  0.00  0.00    +0.156 A 
ATOM     24  N   UNL     1       1.640  11.935   4.633  0.00  0.00    -0.230 NA
ATOM     25  N   UNL     1       0.823  12.165   6.913  0.00  0.00    -0.338 N 
ATOM     26  H   UNL     1       1.002  12.544   7.788  0.00  0.00    +0.144 HD
ATOM     27  H   UNL     1       0.015  11.648   6.765  0.00  0.00    +0.144 HD
ENDBRANCH  19  20
ENDBRANCH  16  19
ENDBRANCH   2  15
TORSDOF 7
