REMARK  Name = ZINC10768441
REMARK  7 active torsions:
REMARK  status: ('A' for Active; 'I' for Inactive)
REMARK    1  A    between atoms: C_1  and  C_2
REMARK    2  A    between atoms: C_2  and  C_4
REMARK    3  A    between atoms: C_2  and  N_15
REMARK    4  A    between atoms: N_6  and  C_7
REMARK    5  A    between atoms: N_15  and  C_16
REMARK    6  A    between atoms: C_19  and  N_22
REMARK    7  A    between atoms: C_23  and  C_25
REMARK                            x       y       z     vdW  Elec       q    Type
REMARK                         _______ _______ _______ _____ _____    ______ ____
ROOT
ATOM      1  N   UNL     1       2.248   1.455   0.690  0.00  0.00    -0.333 N 
ATOM      2  H   UNL     1       2.008   0.575   0.360  0.00  0.00    +0.147 HD
ENDROOT
BRANCH   1   3
ATOM      3  C   UNL     1       3.580   1.744   1.008  0.00  0.00    +0.028 A 
ATOM      4  C   UNL     1       3.924   3.005   1.475  0.00  0.00    +0.025 A 
ATOM      5  C   UNL     1       5.238   3.288   1.794  0.00  0.00    +0.025 A 
ATOM      6  C   UNL     1       6.216   2.316   1.635  0.00  0.00    +0.034 A 
ATOM      7  C   UNL     1       5.872   1.056   1.163  0.00  0.00    +0.025 A 
ATOM      8  C   UNL     1       4.558   0.771   0.849  0.00  0.00    +0.025 A 
BRANCH   6   9
ATOM      9  N   UNL     1       7.550   2.605   1.953  0.00  0.00    -0.285 N 
ATOM     10  C   UNL     1       8.548   2.059   1.230  0.00  0.00    +0.220 C 
ATOM     11  O   UNL     1       8.293   1.399   0.246  0.00  0.00    -0.275 OA
ATOM     12  H   UNL     1       7.755   3.199   2.692  0.00  0.00    +0.155 HD
BRANCH  10  13
ATOM     13  C   UNL     1       9.981   2.270   1.646  0.00  0.00    +0.075 C 
ATOM     14  C   UNL     1      10.858   3.140   0.742  0.00  0.00    +0.013 C 
ATOM     15  C   UNL     1      11.069   1.625   0.784  0.00  0.00    +0.013 C 
ENDBRANCH  10  13
ENDBRANCH   6   9
ENDBRANCH   1   3
BRANCH   1  17
ATOM     16  C   UNL     1       1.169   3.364  -0.391  0.00  0.00    +0.038 C 
ATOM     17  C   UNL     1       1.216   2.481   0.857  0.00  0.00    +0.154 C 
BRANCH  17  18
ATOM     18  C   UNL     1      -0.123   1.819   1.056  0.00  0.00    +0.237 C 
ATOM     19  O   UNL     1      -0.207   0.609   1.058  0.00  0.00    -0.273 OA
ATOM     20  N   UNL     1      -1.228   2.572   1.226  0.00  0.00    -0.283 N 
ATOM     21  H   UNL     1      -1.151   3.535   1.304  0.00  0.00    +0.155 HD
BRANCH  20  22
ATOM     22  C   UNL     1      -2.487   1.962   1.289  0.00  0.00    +0.052 A 
ATOM     23  C   UNL     1      -2.751   0.830   0.531  0.00  0.00    +0.026 A 
ATOM     24  C   UNL     1      -3.993   0.230   0.595  0.00  0.00    +0.022 A 
ATOM     25  C   UNL     1      -4.976   0.758   1.415  0.00  0.00    +0.042 A 
ATOM     26  C   UNL     1      -4.717   1.887   2.171  0.00  0.00    +0.041 A 
ATOM     27  C   UNL     1      -3.473   2.487   2.116  0.00  0.00    +0.064 A 
ATOM     28 CL   UNL     1      -3.146   3.899   3.071  0.00  0.00    -0.082 Cl
ATOM     29 CL   UNL     1      -6.537   0.002   1.493  0.00  0.00    -0.083 Cl
ENDBRANCH  20  22
ENDBRANCH  17  18
ENDBRANCH   1  17
TORSDOF 6
