REMARK  Name = ZINC22067225
REMARK  6 active torsions:
REMARK  status: ('A' for Active; 'I' for Inactive)
REMARK    1  A    between atoms: C_3  and  O_9
REMARK    2  A    between atoms: O_9  and  C_10
REMARK    3  A    between atoms: C_12  and  O_26
REMARK    4  A    between atoms: C_14  and  O_25
REMARK    5  A    between atoms: C_16  and  O_24
REMARK    6  A    between atoms: C_18  and  C_21
REMARK                            x       y       z     vdW  Elec       q    Type
REMARK                         _______ _______ _______ _____ _____    ______ ____
ROOT
ATOM      1  C   UNL     1      -2.851   1.953   0.137  0.00  0.00    +0.341 C 
ATOM      2  C   UNL     1      -2.217   1.459  -1.166  0.00  0.00    +0.214 C 
ATOM      3  C   UNL     1      -0.761   1.933  -1.229  0.00  0.00    +0.180 C 
ATOM      4  C   UNL     1      -0.017   1.425   0.010  0.00  0.00    +0.186 C 
ATOM      5  C   UNL     1      -0.736   1.920   1.268  0.00  0.00    +0.266 C 
ATOM      6  O   UNL     1      -2.093   1.470   1.248  0.00  0.00    -0.322 OA
ENDROOT
BRANCH   5   7
ATOM      7  C   UNL     1      -0.044   1.375   2.490  0.00  0.00    +0.387 C 
ATOM      8  O   UNL     1      -0.621   0.601   3.217  0.00  0.00    -0.243 OA
ATOM      9  O   UNL     1       1.214   1.748   2.771  0.00  0.00    -0.243 OA
ENDBRANCH   5   7
BRANCH   4  10
ATOM     10  O   UNL     1       0.002  -0.004   0.002  0.00  0.00    -0.386 OA
ATOM     11  H   UNL     1       0.495  -0.552   0.818  0.00  0.00    +0.210 HD
ENDBRANCH   4  10
BRANCH   3  12
ATOM     12  O   UNL     1      -0.724   3.362  -1.256  0.00  0.00    -0.386 OA
ATOM     13  H   UNL     1       0.242   3.886  -1.301  0.00  0.00    +0.210 HD
ENDBRANCH   3  12
BRANCH   2  14
ATOM     14  O   UNL     1      -2.941   1.987  -2.279  0.00  0.00    -0.383 OA
ATOM     15  H   UNL     1      -2.630   1.740  -3.305  0.00  0.00    +0.210 HD
ENDBRANCH   2  14
BRANCH   1  16
ATOM     16  O   UNL     1      -2.860   3.382   0.151  0.00  0.00    -0.443 OA
BRANCH  16  19
ATOM     17  C   UNL     1      -4.166   5.973   2.335  0.00  0.00    +0.048 A 
ATOM     18  C   UNL     1      -3.526   5.371   1.265  0.00  0.00    +0.104 A 
ATOM     19  C   UNL     1      -3.484   3.984   1.195  0.00  0.00    +0.237 A 
ATOM     20  N   UNL     1      -4.051   3.244   2.134  0.00  0.00    -0.198 NA
ATOM     21  C   UNL     1      -4.665   3.788   3.169  0.00  0.00    +0.151 A 
ATOM     22  C   UNL     1      -4.745   5.163   3.302  0.00  0.00    +0.079 A 
ATOM     23 CL   UNL     1      -5.560   5.866   4.664  0.00  0.00    -0.080 Cl
ATOM     24 CL   UNL     1      -5.385   2.766   4.373  0.00  0.00    -0.060 Cl
ATOM     25 CL   UNL     1      -2.785   6.336   0.026  0.00  0.00    -0.078 Cl
ENDBRANCH  16  19
ENDBRANCH   1  16
TORSDOF 6
