REMARK  Name = ZINC04721249
REMARK  6 active torsions:
REMARK  status: ('A' for Active; 'I' for Inactive)
REMARK    1  A    between atoms: C_1  and  O_2
REMARK    2  A    between atoms: O_2  and  C_3
REMARK    3  A    between atoms: C_5  and  O_18
REMARK    4  A    between atoms: C_7  and  O_17
REMARK    5  A    between atoms: C_9  and  O_16
REMARK    6  A    between atoms: C_11  and  C_14
REMARK                            x       y       z     vdW  Elec       q    Type
REMARK                         _______ _______ _______ _____ _____    ______ ____
ROOT
ATOM      1  C   UNL     1       0.652  -0.570  -1.138  0.00  0.00    +0.282 C 
ATOM      2  C   UNL     1       0.723  -2.092  -0.982  0.00  0.00    +0.201 C 
ATOM      3  C   UNL     1      -0.700  -2.658  -0.928  0.00  0.00    +0.179 C 
ATOM      4  C   UNL     1      -1.453  -2.238  -2.194  0.00  0.00    +0.185 C 
ATOM      5  C   UNL     1      -1.440  -0.711  -2.303  0.00  0.00    +0.265 C 
ATOM      6  O   UNL     1      -0.088  -0.247  -2.317  0.00  0.00    -0.331 OA
ENDROOT
BRANCH   5   7
ATOM      7  C   UNL     1      -2.128  -0.292  -3.577  0.00  0.00    +0.387 C 
ATOM      8  O   UNL     1      -1.500   0.260  -4.449  0.00  0.00    -0.243 OA
ATOM      9  O   UNL     1      -3.438  -0.531  -3.742  0.00  0.00    -0.243 OA
ENDBRANCH   5   7
BRANCH   1  11
ATOM     10  C   UNL     1      -0.017   1.425   0.010  0.00  0.00    +0.197 C 
ATOM     11  O   UNL     1       0.002  -0.004   0.002  0.00  0.00    -0.352 OA
ENDBRANCH   1  11
BRANCH   4  12
ATOM     12  O   UNL     1      -0.814  -2.804  -3.340  0.00  0.00    -0.386 OA
ATOM     13  H   UNL     1      -1.236  -2.575  -4.179  0.00  0.00    +0.210 HD
ENDBRANCH   4  12
BRANCH   3  14
ATOM     14  O   UNL     1      -0.644  -4.084  -0.857  0.00  0.00    -0.386 OA
ATOM     15  H   UNL     1      -0.180  -4.421  -0.078  0.00  0.00    +0.210 HD
ENDBRANCH   3  14
BRANCH   2  16
ATOM     16  O   UNL     1       1.412  -2.416   0.227  0.00  0.00    -0.384 OA
ATOM     17  H   UNL     1       2.319  -2.084   0.264  0.00  0.00    +0.210 HD
ENDBRANCH   2  16
TORSDOF 5
