REMARK  Name = ZINC40287682
REMARK  4 active torsions:
REMARK  status: ('A' for Active; 'I' for Inactive)
REMARK    1  A    between atoms: C_1  and  C_2
REMARK    2  A    between atoms: C_2  and  C_21
REMARK    3  A    between atoms: N_13  and  C_14
REMARK    4  A    between atoms: C_14  and  C_15
REMARK                            x       y       z     vdW  Elec       q    Type
REMARK                         _______ _______ _______ _____ _____    ______ ____
ROOT
ATOM      1  C   UNL     1      -1.317   1.248  -0.432  0.00  0.00    +0.041 C 
ATOM      2  C   UNL     1      -1.158  -0.274  -0.461  0.00  0.00    +0.068 C 
ATOM      3  C   UNL     1      -0.095  -0.653  -1.496  0.00  0.00    +0.071 C 
ATOM      4  C   UNL     1       0.207  -2.142  -1.343  0.00  0.00    -0.020 A 
ATOM      5  C   UNL     1      -0.150  -2.778  -0.201  0.00  0.00    +0.021 A 
ATOM      6  S   UNL     1       0.371  -4.458  -0.426  0.00  0.00    -0.073 S 
ATOM      7  C   UNL     1       1.062  -4.301  -2.042  0.00  0.00    +0.096 A 
ATOM      8  C   UNL     1       0.866  -2.944  -2.358  0.00  0.00    +0.049 A 
ATOM      9  C   UNL     1       1.334  -2.501  -3.640  0.00  0.00    +0.132 A 
ATOM     10  N   UNL     1       1.911  -3.413  -4.415  0.00  0.00    -0.178 NA
ATOM     11  C   UNL     1       2.077  -4.687  -4.078  0.00  0.00    +0.351 A 
ATOM     12  O   UNL     1       2.621  -5.438  -4.870  0.00  0.00    -0.244 OA
ATOM     13  N   UNL     1       1.661  -5.184  -2.883  0.00  0.00    -0.277 N 
ATOM     14  N   UNL     1       1.193  -1.196  -4.046  0.00  0.00    -0.342 N 
ATOM     15  C   UNL     1      -0.835  -2.163   0.978  0.00  0.00    +0.203 C 
ATOM     16  O   UNL     1      -0.768  -0.735   0.835  0.00  0.00    -0.368 OA
ATOM     17  C   UNL     1      -2.491  -0.916  -0.849  0.00  0.00    +0.041 C 
ATOM     18  H   UNL     1       0.928  -0.515  -3.408  0.00  0.00    +0.144 HD
ATOM     19  H   UNL     1       1.358  -0.956  -4.972  0.00  0.00    +0.144 HD
ENDROOT
BRANCH  13  20
ATOM     20  C   UNL     1       1.850  -6.592  -2.523  0.00  0.00    +0.222 C 
BRANCH  20  21
ATOM     21  C   UNL     1       0.651  -7.389  -2.968  0.00  0.00    +0.230 C 
ATOM     22  O   UNL     1      -0.269  -6.837  -3.532  0.00  0.00    -0.274 OA
ATOM     23  N   UNL     1       0.603  -8.717  -2.741  0.00  0.00    -0.328 N 
ATOM     24  H   UNL     1       1.340  -9.159  -2.290  0.00  0.00    +0.145 HD
ATOM     25  H   UNL     1      -0.168  -9.230  -3.028  0.00  0.00    +0.145 HD
ENDBRANCH  20  21
ENDBRANCH  13  20
TORSDOF 2
