REMARK  Name = ZINC03421444
REMARK  8 active torsions:
REMARK  status: ('A' for Active; 'I' for Inactive)
REMARK    1  A    between atoms: C_3  and  O_28
REMARK    2  A    between atoms: C_6  and  C_7
REMARK    3  A    between atoms: C_8  and  C_9
REMARK    4  A    between atoms: C_9  and  O_11
REMARK    5  A    between atoms: O_11  and  C_12
REMARK    6  A    between atoms: C_12  and  C_13
REMARK    7  A    between atoms: N_15  and  C_16
REMARK    8  A    between atoms: O_28  and  C_29
REMARK                            x       y       z     vdW  Elec       q    Type
REMARK                         _______ _______ _______ _____ _____    ______ ____
ROOT
ATOM      1  C   UNL     1      -1.330   1.945   0.012  0.00  0.00    +0.328 C 
ENDROOT
BRANCH   1   2
ATOM      2  C   UNL     1      -0.014   1.209   0.011  0.00  0.00    +0.255 C 
ATOM      3  O   UNL     1       0.002  -0.004   0.013  0.00  0.00    -0.272 OA
ATOM      4  N   UNL     1       1.143   1.898   0.001  0.00  0.00    -0.283 N 
ATOM      5  H   UNL     1       1.131   2.866  -0.068  0.00  0.00    +0.155 HD
BRANCH   4   6
ATOM      6  C   UNL     1       2.365   1.218   0.092  0.00  0.00    +0.036 A 
ATOM      7  C   UNL     1       3.429   1.792   0.778  0.00  0.00    +0.025 A 
ATOM      8  C   UNL     1       4.633   1.124   0.875  0.00  0.00    +0.029 A 
ATOM      9  C   UNL     1       4.786  -0.118   0.278  0.00  0.00    +0.067 A 
ATOM     10  C   UNL     1       3.720  -0.695  -0.417  0.00  0.00    +0.069 A 
ATOM     11  C   UNL     1       2.511  -0.024  -0.508  0.00  0.00    +0.051 A 
ATOM     12  N   UNL     1       4.170  -1.923  -0.897  0.00  0.00    -0.306 N 
ATOM     13  H   UNL     1       3.649  -2.553  -1.419  0.00  0.00    +0.170 HD
ATOM     14  C   UNL     1       5.449  -2.087  -0.513  0.00  0.00    +0.325 A 
ATOM     15  O   UNL     1       6.139  -3.056  -0.768  0.00  0.00    -0.247 OA
ATOM     16  N   UNL     1       5.851  -1.016   0.198  0.00  0.00    -0.306 N 
ATOM     17  H   UNL     1       6.730  -0.890   0.587  0.00  0.00    +0.170 HD
ENDBRANCH   4   6
ENDBRANCH   1   2
BRANCH   1  18
ATOM     18  O   UNL     1      -2.403   1.002   0.016  0.00  0.00    -0.452 OA
BRANCH  18  19
ATOM     19  C   UNL     1      -3.657   1.500   0.018  0.00  0.00    +0.332 C 
ATOM     20  O   UNL     1      -3.833   2.704   0.016  0.00  0.00    -0.246 OA
BRANCH  19  22
ATOM     21  C   UNL     1      -6.025   1.121   0.024  0.00  0.00    +0.015 C 
ATOM     22  C   UNL     1      -4.769   0.622   0.022  0.00  0.00    +0.092 C 
BRANCH  21  28
ATOM     23  C   UNL     1      -6.979  -1.175   0.025  0.00  0.00    +0.011 A 
ATOM     24  C   UNL     1      -8.062  -2.024   0.034  0.00  0.00    +0.046 A 
ATOM     25  C   UNL     1      -9.353  -1.508   0.035  0.00  0.00    +0.127 A 
ATOM     26  C   UNL     1      -9.556  -0.132   0.034  0.00  0.00    +0.046 A 
ATOM     27  C   UNL     1      -8.480   0.725   0.030  0.00  0.00    +0.011 A 
ATOM     28  C   UNL     1      -7.178   0.210   0.028  0.00  0.00    -0.025 A 
BRANCH  25  29
ATOM     29  O   UNL     1     -10.418  -2.349   0.038  0.00  0.00    -0.434 OA
BRANCH  29  30
ATOM     30  C   UNL     1     -10.138  -3.750   0.040  0.00  0.00    +0.541 C 
ATOM     31  F   UNL     1      -9.402  -4.080  -1.103  0.00  0.00    -0.166 F 
ATOM     32  F   UNL     1      -9.398  -4.077   1.182  0.00  0.00    -0.166 F 
ENDBRANCH  29  30
ENDBRANCH  25  29
ENDBRANCH  21  28
ENDBRANCH  19  22
ENDBRANCH  18  19
ENDBRANCH   1  18
TORSDOF 8
