REMARK  Name = ZINC62827587
REMARK  5 active torsions:
REMARK  status: ('A' for Active; 'I' for Inactive)
REMARK    1  A    between atoms: C_1  and  C_2
REMARK    2  A    between atoms: C_3  and  C_20
REMARK    3  A    between atoms: C_5  and  N_10
REMARK    4  A    between atoms: C_6  and  C_7
REMARK    5  A    between atoms: C_16  and  O_19
REMARK                            x       y       z     vdW  Elec       q    Type
REMARK                         _______ _______ _______ _____ _____    ______ ____
ROOT
ATOM      1  N   UNL     1       0.055  -3.122   2.078  0.00  0.00    -0.263 N 
ATOM      2  C   UNL     1       0.071  -4.430   1.754  0.00  0.00    +0.307 C 
ATOM      3  O   UNL     1      -0.022  -4.769   0.590  0.00  0.00    -0.252 OA
ATOM      4  N   UNL     1       0.189  -5.362   2.720  0.00  0.00    -0.285 N 
ATOM      5  C   UNL     1       0.325  -6.784   2.377  0.00  0.00    +0.112 C 
ATOM      6  C   UNL     1       1.573  -7.341   3.069  0.00  0.00    +0.050 C 
ATOM      7  C   UNL     1       1.485  -7.064   4.571  0.00  0.00    +0.118 C 
ATOM      8  C   UNL     1       1.435  -5.553   4.810  0.00  0.00    +0.050 C 
ATOM      9  C   UNL     1       0.192  -4.974   4.138  0.00  0.00    +0.112 C 
ATOM     10  H   UNL     1       0.054  -2.852   3.009  0.00  0.00    +0.157 HD
ENDROOT
BRANCH   1  15
ATOM     11  C   UNL     1      -0.009   1.503   0.010  0.00  0.00    +0.045 C 
ATOM     12  C   UNL     1       0.010  -0.004   0.002  0.00  0.00    -0.025 A 
ATOM     13  C   UNL     1       0.016  -0.712  -1.141  0.00  0.00    -0.008 A 
ATOM     14  S   UNL     1       0.039  -2.400  -0.581  0.00  0.00    -0.078 S 
ATOM     15  C   UNL     1       0.041  -2.162   1.080  0.00  0.00    +0.088 A 
ATOM     16  C   UNL     1       0.029  -0.779   1.224  0.00  0.00    +0.095 A 
ATOM     17  C   UNL     1       0.005  -0.198  -2.558  0.00  0.00    +0.052 C 
BRANCH  16  18
ATOM     18  C   UNL     1       0.031  -0.161   2.499  0.00  0.00    +0.389 C 
ATOM     19  O   UNL     1       0.016   1.061   2.588  0.00  0.00    -0.240 OA
ATOM     20  O   UNL     1       0.047  -0.848   3.513  0.00  0.00    -0.240 OA
ENDBRANCH  16  18
ENDBRANCH   1  15
BRANCH   7  21
ATOM     21  O   UNL     1       2.632  -7.611   5.224  0.00  0.00    -0.392 OA
ATOM     22  H   UNL     1       2.643  -7.472   6.181  0.00  0.00    +0.210 HD
ENDBRANCH   7  21
TORSDOF 3
