REMARK  Name = ZINC44816685
REMARK  10 active torsions:
REMARK  status: ('A' for Active; 'I' for Inactive)
REMARK    1  A    between atoms: C_1  and  C_2
REMARK    2  A    between atoms: C_5  and  O_8
REMARK    3  A    between atoms: O_8  and  C_9
REMARK    4  A    between atoms: C_12  and  N_15
REMARK    5  A    between atoms: C_16  and  C_18
REMARK    6  A    between atoms: C_18  and  C_20
REMARK    7  A    between atoms: C_18  and  N_24
REMARK    8  A    between atoms: C_20  and  C_21
REMARK    9  A    between atoms: C_21  and  S_22
REMARK   10  A    between atoms: S_22  and  C_23
REMARK                            x       y       z     vdW  Elec       q    Type
REMARK                         _______ _______ _______ _____ _____    ______ ____
ROOT
ATOM      1  N   UNL     1      -0.310  -6.741   4.839  0.00  0.00    -0.284 N 
ATOM      2  C   UNL     1      -1.078  -6.231   5.822  0.00  0.00    +0.238 C 
ATOM      3  O   UNL     1      -1.617  -5.154   5.674  0.00  0.00    -0.273 OA
ATOM      4  H   UNL     1       0.168  -7.573   4.979  0.00  0.00    +0.155 HD
ENDROOT
BRANCH   1   8
ATOM      5  C   UNL     1       0.012  -4.741   1.194  0.00  0.00    +0.129 A 
ATOM      6  C   UNL     1      -0.100  -4.019   2.374  0.00  0.00    +0.048 A 
ATOM      7  C   UNL     1      -0.207  -4.681   3.581  0.00  0.00    +0.027 A 
ATOM      8  C   UNL     1      -0.202  -6.069   3.614  0.00  0.00    +0.034 A 
ATOM      9  C   UNL     1      -0.091  -6.791   2.433  0.00  0.00    +0.027 A 
ATOM     10  C   UNL     1       0.011  -6.128   1.226  0.00  0.00    +0.048 A 
BRANCH   5  11
ATOM     11  O   UNL     1       0.117  -4.089   0.006  0.00  0.00    -0.456 OA
BRANCH  11  16
ATOM     12  C   UNL     1       0.038  -7.164  -4.712  0.00  0.00    +0.044 C 
ATOM     13  C   UNL     1       0.059  -6.341  -3.450  0.00  0.00    -0.050 A 
ATOM     14  C   UNL     1       1.210  -5.666  -3.085  0.00  0.00    +0.007 A 
ATOM     15  C   UNL     1       1.232  -4.911  -1.929  0.00  0.00    +0.046 A 
ATOM     16  C   UNL     1       0.098  -4.830  -1.132  0.00  0.00    +0.128 A 
ATOM     17  C   UNL     1      -1.055  -5.509  -1.501  0.00  0.00    +0.046 A 
ATOM     18  C   UNL     1      -1.073  -6.258  -2.661  0.00  0.00    +0.007 A 
ENDBRANCH  11  16
ENDBRANCH   5  11
ENDBRANCH   1   8
BRANCH   2  19
ATOM     19  C   UNL     1      -1.268  -6.999   7.105  0.00  0.00    +0.161 C 
BRANCH  19  20
ATOM     20  N   UNL     1      -1.711  -6.084   8.160  0.00  0.00    -0.288 N 
ATOM     21  C   UNL     1      -2.862  -5.398   8.018  0.00  0.00    +0.298 C 
ATOM     22  O   UNL     1      -3.533  -5.538   7.014  0.00  0.00    -0.253 OA
ATOM     23  N   UNL     1      -3.269  -4.557   8.989  0.00  0.00    -0.313 N 
ATOM     24  H   UNL     1      -1.175  -5.972   8.961  0.00  0.00    +0.151 HD
ATOM     25  H   UNL     1      -2.734  -4.445   9.790  0.00  0.00    +0.146 HD
ATOM     26  H   UNL     1      -4.098  -4.063   8.886  0.00  0.00    +0.146 HD
ENDBRANCH  19  20
BRANCH  19  27
ATOM     27  C   UNL     1      -2.324  -8.087   6.897  0.00  0.00    +0.042 C 
BRANCH  27  28
ATOM     28  C   UNL     1      -2.427  -8.945   8.159  0.00  0.00    +0.071 C 
BRANCH  28  29
ATOM     29  S   UNL     1      -3.678 -10.235   7.913  0.00  0.00    -0.164 S 
ATOM     30  C   UNL     1      -3.678 -11.152   9.478  0.00  0.00    +0.084 C 
ENDBRANCH  28  29
ENDBRANCH  27  28
ENDBRANCH  19  27
ENDBRANCH   2  19
TORSDOF 8
