REMARK  Name = ZINC39127821
REMARK  5 active torsions:
REMARK  status: ('A' for Active; 'I' for Inactive)
REMARK    1  A    between atoms: C_1  and  C_2
REMARK    2  A    between atoms: C_3  and  C_19
REMARK    3  A    between atoms: C_4  and  O_18
REMARK    4  A    between atoms: C_5  and  C_17
REMARK    5  A    between atoms: C_12  and  C_14
REMARK                            x       y       z     vdW  Elec       q    Type
REMARK                         _______ _______ _______ _____ _____    ______ ____
ROOT
ATOM      1  C   UNL     1       0.439   1.472  -0.054  0.00  0.00    +0.046 C 
ATOM      2  C   UNL     1       0.222  -0.019  -0.029  0.00  0.00    -0.018 A 
ATOM      3  C   UNL     1      -0.098  -0.676  -1.188  0.00  0.00    -0.004 A 
ATOM      4  C   UNL     1      -0.307  -2.051  -1.209  0.00  0.00    +0.124 A 
ATOM      5  C   UNL     1      -0.188  -2.772  -0.029  0.00  0.00    +0.007 A 
ATOM      6  C   UNL     1       0.133  -2.119   1.134  0.00  0.00    +0.047 A 
ATOM      7  C   UNL     1       0.357  -0.724   1.189  0.00  0.00    +0.084 A 
ATOM      8  N   UNL     1       0.670  -0.230   2.407  0.00  0.00    -0.224 NA
ATOM      9  C   UNL     1       0.766  -0.990   3.473  0.00  0.00    +0.166 A 
ATOM     10  S   UNL     1       0.384  -2.610   2.823  0.00  0.00    -0.052 S 
ATOM     11  N   UNL     1       1.076  -0.627   4.772  0.00  0.00    -0.255 N 
ATOM     12  C   UNL     1       1.127  -1.564   5.739  0.00  0.00    +0.331 C 
ATOM     13  O   UNL     1       0.901  -2.726   5.471  0.00  0.00    -0.262 OA
ATOM     14  C   UNL     1      -0.410  -4.263  -0.026  0.00  0.00    +0.049 C 
ATOM     15  C   UNL     1      -0.228   0.109  -2.468  0.00  0.00    +0.048 C 
ATOM     16  H   UNL     1       1.256   0.302   4.987  0.00  0.00    +0.157 HD
ENDROOT
BRANCH  12  17
ATOM     17  C   UNL     1       1.461  -1.172   7.143  0.00  0.00    +0.441 C 
ATOM     18  O   UNL     1       1.507  -2.021   8.019  0.00  0.00    -0.235 OA
ATOM     19  O   UNL     1       1.688  -0.004   7.413  0.00  0.00    -0.235 OA
ENDBRANCH  12  17
BRANCH   4  20
ATOM     20  O   UNL     1      -0.625  -2.681  -2.371  0.00  0.00    -0.506 OA
ATOM     21  H   UNL     1       0.141  -2.992  -2.873  0.00  0.00    +0.292 HD
ENDBRANCH   4  20
TORSDOF 2
