REMARK  Name = ZINC28976085
REMARK  2 active torsions:
REMARK  status: ('A' for Active; 'I' for Inactive)
REMARK    1  A    between atoms: C_6  and  N_7
REMARK    2  A    between atoms: N_7  and  C_8
REMARK                            x       y       z     vdW  Elec       q    Type
REMARK                         _______ _______ _______ _____ _____    ______ ____
ROOT
ATOM      1  N   UNL     1       3.824   5.308  -0.040  0.00  0.00    -0.320 N 
ATOM      2  H   UNL     1       3.451   6.337  -0.154  0.00  0.00    +0.152 HD
ENDROOT
BRANCH   1   8
ATOM      3  C   UNL     1       3.410   2.937   0.009  0.00  0.00    +0.024 A 
ATOM      4  C   UNL     1       2.533   1.868   0.025  0.00  0.00    +0.015 A 
ATOM      5  C   UNL     1       1.165   2.098   0.009  0.00  0.00    +0.049 A 
ATOM      6  C   UNL     1       0.673   3.420  -0.024  0.00  0.00    +0.051 A 
ATOM      7  C   UNL     1       1.557   4.484  -0.040  0.00  0.00    +0.037 A 
ATOM      8  C   UNL     1       2.930   4.240  -0.024  0.00  0.00    +0.032 A 
ATOM      9  C   UNL     1      -0.801   3.303  -0.033  0.00  0.00    +0.251 C 
ATOM     10  O   UNL     1      -1.586   4.229  -0.059  0.00  0.00    -0.270 OA
ATOM     11  N   UNL     1      -1.126   1.998  -0.012  0.00  0.00    -0.248 N 
ATOM     12  C   UNL     1      -0.025   1.225   0.019  0.00  0.00    +0.251 C 
ATOM     13  O   UNL     1      -0.013   0.011   0.047  0.00  0.00    -0.270 OA
ATOM     14  H   UNL     1      -2.183   1.694  -0.022  0.00  0.00    +0.158 HD
ENDBRANCH   1   8
BRANCH   1  15
ATOM     15  C   UNL     1       5.150   5.082   0.084  0.00  0.00    +0.090 C 
ATOM     16  C   UNL     1       6.026   6.145   0.186  0.00  0.00    +0.113 C 
ATOM     17  C   UNL     1       5.542   7.533   0.304  0.00  0.00    +0.256 C 
ATOM     18  O   UNL     1       4.351   7.780   0.315  0.00  0.00    -0.270 OA
ATOM     19  N   UNL     1       6.455   8.520   0.405  0.00  0.00    -0.263 N 
ATOM     20  C   UNL     1       7.771   8.262   0.389  0.00  0.00    +0.143 C 
ATOM     21  S   UNL     1       8.857   9.580   0.514  0.00  0.00    -0.018 S 
ATOM     22  N   UNL     1       8.281   7.028   0.278  0.00  0.00    -0.263 N 
ATOM     23  C   UNL     1       7.487   5.943   0.175  0.00  0.00    +0.256 C 
ATOM     24  O   UNL     1       7.962   4.827   0.075  0.00  0.00    -0.270 OA
ATOM     25  H   UNL     1       6.127   9.565   0.504  0.00  0.00    +0.157 HD
ATOM     26  H   UNL     1       9.371   6.882   0.271  0.00  0.00    +0.157 HD
ENDBRANCH   1  15
TORSDOF 2
