REMARK  Name = ZINC26564097
REMARK  7 active torsions:
REMARK  status: ('A' for Active; 'I' for Inactive)
REMARK    1  A    between atoms: C_1  and  C_2
REMARK    2  A    between atoms: C_5  and  S_9
REMARK    3  A    between atoms: C_7  and  C_8
REMARK    4  A    between atoms: S_9  and  N_12
REMARK    5  A    between atoms: N_12  and  C_13
REMARK    6  A    between atoms: C_16  and  C_19
REMARK    7  A    between atoms: N_21  and  C_22
REMARK                            x       y       z     vdW  Elec       q    Type
REMARK                         _______ _______ _______ _____ _____    ______ ____
ROOT
ATOM      1  C   UNL     1       0.838  -0.452   0.729  0.00  0.00    +0.048 A 
ATOM      2  C   UNL     1       2.031   0.155   1.113  0.00  0.00    +0.025 A 
ATOM      3  C   UNL     1       2.824  -0.429   2.074  0.00  0.00    +0.015 A 
ATOM      4  C   UNL     1       2.436  -1.640   2.656  0.00  0.00    +0.037 A 
ATOM      5  C   UNL     1       1.241  -2.250   2.264  0.00  0.00    +0.015 A 
ATOM      6  C   UNL     1       0.450  -1.657   1.307  0.00  0.00    +0.025 A 
ENDROOT
BRANCH   4   7
ATOM      7  C   UNL     1       3.288  -2.273   3.681  0.00  0.00    +0.244 C 
ATOM      8  O   UNL     1       2.950  -3.326   4.186  0.00  0.00    -0.270 OA
ATOM      9  N   UNL     1       4.440  -1.684   4.058  0.00  0.00    -0.308 N 
ATOM     10  H   UNL     1       4.745  -0.731   3.601  0.00  0.00    +0.149 HD
BRANCH   9  11
ATOM     11  C   UNL     1       5.285  -2.313   5.076  0.00  0.00    +0.073 C 
ATOM     12  C   UNL     1       4.845  -1.857   6.483  0.00  0.00    +0.022 C 
ATOM     13  C   UNL     1       6.172  -1.722   7.271  0.00  0.00    +0.002 C 
ATOM     14  C   UNL     1       7.141  -1.142   6.211  0.00  0.00    +0.002 C 
ATOM     15  C   UNL     1       6.745  -1.858   4.904  0.00  0.00    +0.022 C 
ENDBRANCH   9  11
ENDBRANCH   4   7
BRANCH   1  16
ATOM     16  N   UNL     1       0.036   0.145  -0.238  0.00  0.00    -0.216 N 
ATOM     17  H   UNL     1       0.329   0.102  -1.297  0.00  0.00    +0.174 HD
BRANCH  16  18
ATOM     18  S   UNL     1      -1.359   0.918   0.205  0.00  0.00    +0.072 S 
ATOM     19  O   UNL     1      -1.917   1.462  -0.983  0.00  0.00    -0.150 OA
ATOM     20  O   UNL     1      -2.075   0.018   1.040  0.00  0.00    -0.150 OA
BRANCH  18  25
ATOM     21  C   UNL     1       0.220   5.599   3.671  0.00  0.00    +0.044 C 
ATOM     22  C   UNL     1      -0.175   4.430   2.805  0.00  0.00    -0.047 A 
ATOM     23  C   UNL     1      -0.536   3.229   3.388  0.00  0.00    +0.005 A 
ATOM     24  C   UNL     1      -0.902   2.159   2.594  0.00  0.00    +0.029 A 
ATOM     25  C   UNL     1      -0.898   2.285   1.217  0.00  0.00    +0.109 A 
ATOM     26  C   UNL     1      -0.537   3.485   0.635  0.00  0.00    +0.032 A 
ATOM     27  C   UNL     1      -0.176   4.558   1.429  0.00  0.00    -0.046 A 
ATOM     28  C   UNL     1       0.218   5.867   0.794  0.00  0.00    +0.044 C 
ENDBRANCH  18  25
ENDBRANCH  16  18
ENDBRANCH   1  16
TORSDOF 5
