REMARK  Name = ZINC66929119
REMARK  6 active torsions:
REMARK  status: ('A' for Active; 'I' for Inactive)
REMARK    1  A    between atoms: C_4  and  N_7
REMARK    2  A    between atoms: C_8  and  C_28
REMARK    3  A    between atoms: C_11  and  C_13
REMARK    4  A    between atoms: N_15  and  C_16
REMARK    5  A    between atoms: C_16  and  C_17
REMARK    6  A    between atoms: C_17  and  O_27
REMARK                            x       y       z     vdW  Elec       q    Type
REMARK                         _______ _______ _______ _____ _____    ______ ____
ROOT
ATOM      1  C   UNL     1       7.297  -0.513   0.329  0.00  0.00    +0.260 C 
ATOM      2  O   UNL     1       8.147  -1.382   0.400  0.00  0.00    -0.269 OA
ATOM      3  N   UNL     1       7.657   0.765   0.099  0.00  0.00    -0.307 N 
ATOM      4  H   UNL     1       6.980   1.457   0.043  0.00  0.00    +0.149 HD
ENDROOT
BRANCH   1   8
ATOM      5  N   UNL     1       3.649  -0.602   0.628  0.00  0.00    -0.212 N 
ATOM      6  C   UNL     1       3.823  -2.047   0.843  0.00  0.00    +0.189 C 
ATOM      7  C   UNL     1       5.349  -2.247   0.755  0.00  0.00    +0.096 C 
ATOM      8  C   UNL     1       5.885  -0.857   0.494  0.00  0.00    +0.123 C 
ATOM      9  N   UNL     1       4.899  -0.020   0.433  0.00  0.00    -0.178 NA
BRANCH   5  13
ATOM     10  C   UNL     1       0.008   1.417   0.592  0.00  0.00    +0.000 A 
ATOM     11  C   UNL     1       1.185   2.114   0.385  0.00  0.00    +0.002 A 
ATOM     12  C   UNL     1       2.394   1.447   0.397  0.00  0.00    +0.025 A 
ATOM     13  C   UNL     1       2.428   0.075   0.617  0.00  0.00    +0.052 A 
ATOM     14  C   UNL     1       1.243  -0.621   0.824  0.00  0.00    +0.025 A 
ATOM     15  C   UNL     1       0.037   0.052   0.811  0.00  0.00    +0.002 A 
ENDBRANCH   5  13
BRANCH   6  16
ATOM     16  C   UNL     1       3.120  -2.831  -0.235  0.00  0.00    +0.233 C 
ATOM     17  O   UNL     1       2.814  -2.290  -1.277  0.00  0.00    -0.274 OA
ATOM     18  N   UNL     1       2.831  -4.133  -0.042  0.00  0.00    -0.328 N 
ATOM     19  H   UNL     1       3.075  -4.566   0.792  0.00  0.00    +0.145 HD
ATOM     20  H   UNL     1       2.378  -4.638  -0.735  0.00  0.00    +0.145 HD
ENDBRANCH   6  16
ENDBRANCH   1   8
BRANCH   3  21
ATOM     21  C   UNL     1       9.072   1.109  -0.065  0.00  0.00    +0.144 C 
BRANCH  21  22
ATOM     22  C   UNL     1       9.217   2.628  -0.178  0.00  0.00    +0.107 C 
ATOM     23  C   UNL     1       8.617   3.285   1.064  0.00  0.00    +0.041 C 
ATOM     24  C   UNL     1       8.964   4.778   1.037  0.00  0.00    +0.008 C 
ATOM     25  C   UNL     1      10.463   4.928   1.288  0.00  0.00    +0.035 C 
ATOM     26  C   UNL     1      11.247   4.037   0.361  0.00  0.00    -0.041 A 
ATOM     27  C   UNL     1      10.676   2.979  -0.310  0.00  0.00    -0.011 A 
ATOM     28  C   UNL     1      11.457   2.192  -1.146  0.00  0.00    +0.007 A 
ATOM     29  C   UNL     1      12.800   2.465  -1.313  0.00  0.00    +0.000 A 
ATOM     30  C   UNL     1      13.372   3.530  -0.643  0.00  0.00    +0.000 A 
ATOM     31  C   UNL     1      12.598   4.311   0.190  0.00  0.00    +0.004 A 
BRANCH  22  32
ATOM     32  O   UNL     1       8.516   3.084  -1.337  0.00  0.00    -0.382 OA
ATOM     33  H   UNL     1       8.837   2.703  -2.166  0.00  0.00    +0.211 HD
ENDBRANCH  22  32
ENDBRANCH  21  22
ENDBRANCH   3  21
TORSDOF 6
