REMARK  Name = ZINC40050252
REMARK  8 active torsions:
REMARK  status: ('A' for Active; 'I' for Inactive)
REMARK    1  A    between atoms: C_1  and  C_2
REMARK    2  A    between atoms: C_5  and  N_8
REMARK    3  A    between atoms: N_8  and  C_9
REMARK    4  A    between atoms: C_9  and  N_11
REMARK    5  A    between atoms: N_11  and  N_12
REMARK    6  A    between atoms: C_13  and  C_15
REMARK    7  A    between atoms: N_20  and  S_21
REMARK    8  A    between atoms: S_21  and  C_24
REMARK                            x       y       z     vdW  Elec       q    Type
REMARK                         _______ _______ _______ _____ _____    ______ ____
ROOT
ATOM      1  C   UNL     1       0.422  -8.965  -1.423  0.00  0.00    +0.167 C 
ATOM      2  C   UNL     1       1.625  -8.514  -2.278  0.00  0.00    +0.031 C 
ATOM      3  C   UNL     1       2.684  -9.612  -1.995  0.00  0.00    +0.019 C 
ATOM      4  C   UNL     1       1.795 -10.874  -1.863  0.00  0.00    +0.110 C 
ATOM      5  N   UNL     1       0.571 -10.407  -1.181  0.00  0.00    -0.165 NA
ENDROOT
BRANCH   1   7
ATOM      6  N   UNL     1       0.299  -6.880  -0.096  0.00  0.00    -0.234 N 
ATOM      7  C   UNL     1       0.419  -8.223  -0.111  0.00  0.00    +0.248 C 
ATOM      8  O   UNL     1       0.524  -8.834   0.932  0.00  0.00    -0.273 OA
ATOM      9  H   UNL     1       0.215  -6.392  -0.930  0.00  0.00    +0.173 HD
BRANCH   6  10
ATOM     10  N   UNL     1       0.296  -6.191   1.123  0.00  0.00    -0.246 N 
ATOM     11  H   UNL     1       0.380  -6.679   1.957  0.00  0.00    +0.172 HD
BRANCH  10  12
ATOM     12  C   UNL     1       0.176  -4.848   1.138  0.00  0.00    +0.151 C 
ATOM     13  S   UNL     1       0.173  -4.005   2.628  0.00  0.00    -0.017 S 
BRANCH  12  14
ATOM     14  N   UNL     1       0.059  -4.169  -0.021  0.00  0.00    -0.296 N 
ATOM     15  H   UNL     1      -0.019  -4.651  -0.859  0.00  0.00    +0.154 HD
BRANCH  14  20
ATOM     16  C   UNL     1       0.030   1.503   0.005  0.00  0.00    +0.044 C 
ATOM     17  C   UNL     1       0.038  -0.004  -0.002  0.00  0.00    -0.050 A 
ATOM     18  C   UNL     1       0.925  -0.693   0.805  0.00  0.00    +0.005 A 
ATOM     19  C   UNL     1       0.934  -2.074   0.801  0.00  0.00    +0.023 A 
ATOM     20  C   UNL     1       0.052  -2.771  -0.014  0.00  0.00    +0.033 A 
ATOM     21  C   UNL     1      -0.837  -2.075  -0.824  0.00  0.00    +0.023 A 
ATOM     22  C   UNL     1      -0.845  -0.695  -0.811  0.00  0.00    +0.005 A 
ENDBRANCH  14  20
ENDBRANCH  12  14
ENDBRANCH  10  12
ENDBRANCH   6  10
ENDBRANCH   1   7
BRANCH   5  23
ATOM     23  S   UNL     1      -0.461 -11.348  -0.290  0.00  0.00    +0.062 S 
ATOM     24  O   UNL     1       0.292 -12.469   0.153  0.00  0.00    -0.153 OA
ATOM     25  O   UNL     1      -1.131 -10.476   0.610  0.00  0.00    -0.153 OA
BRANCH  23  26
ATOM     26  C   UNL     1      -1.685 -11.969  -1.395  0.00  0.00    +0.109 A 
ATOM     27  C   UNL     1      -2.846 -11.251  -1.612  0.00  0.00    +0.032 A 
ATOM     28  C   UNL     1      -3.809 -11.735  -2.477  0.00  0.00    +0.051 A 
ATOM     29  C   UNL     1      -3.612 -12.943  -3.130  0.00  0.00    +0.162 A 
ATOM     30  C   UNL     1      -2.444 -13.664  -2.914  0.00  0.00    +0.164 A 
ATOM     31  C   UNL     1      -1.480 -13.170  -2.047  0.00  0.00    +0.078 A 
ATOM     32  O   UNL     1      -2.227 -14.847  -3.550  0.00  0.00    -0.485 OA
ATOM     33  C   UNL     1      -3.371 -15.487  -4.126  0.00  0.00    +0.270 C 
ATOM     34  C   UNL     1      -4.175 -14.431  -4.897  0.00  0.00    +0.270 C 
ATOM     35  O   UNL     1      -4.571 -13.409  -3.977  0.00  0.00    -0.485 OA
ENDBRANCH  23  26
ENDBRANCH   5  23
TORSDOF 7
