REMARK  Name = ZINC02520166
REMARK  9 active torsions:
REMARK  status: ('A' for Active; 'I' for Inactive)
REMARK    1  A    between atoms: C_2  and  C_3
REMARK    2  A    between atoms: C_3  and  C_4
REMARK    3  A    between atoms: C_8  and  C_11
REMARK    4  A    between atoms: C_9  and  O_10
REMARK    5  A    between atoms: N_12  and  N_13
REMARK    6  A    between atoms: C_14  and  C_16
REMARK    7  A    between atoms: N_18  and  C_19
REMARK    8  A    between atoms: C_24  and  C_25
REMARK    9  A    between atoms: N_27  and  C_28
REMARK                            x       y       z     vdW  Elec       q    Type
REMARK                         _______ _______ _______ _____ _____    ______ ____
ROOT
ATOM      1  C   UNL     1      -2.014  -8.595  -0.529  0.00  0.00    +0.305 C 
ATOM      2  O   UNL     1      -1.979  -9.362   0.412  0.00  0.00    -0.265 OA
ATOM      3  N   UNL     1      -2.594  -8.972  -1.685  0.00  0.00    -0.277 N 
ATOM      4  H   UNL     1      -2.695  -8.334  -2.408  0.00  0.00    +0.155 HD
ENDROOT
BRANCH   3   5
ATOM      5  C   UNL     1      -3.050 -10.277  -1.841  0.00  0.00    +0.046 A 
ATOM      6  C   UNL     1      -2.486 -11.307  -1.098  0.00  0.00    +0.024 A 
ATOM      7  C   UNL     1      -2.939 -12.601  -1.255  0.00  0.00    +0.002 A 
ATOM      8  C   UNL     1      -3.957 -12.884  -2.151  0.00  0.00    +0.001 A 
ATOM      9  C   UNL     1      -4.529 -11.876  -2.897  0.00  0.00    +0.015 A 
ATOM     10  C   UNL     1      -4.085 -10.560  -2.745  0.00  0.00    +0.058 A 
BRANCH  10  11
ATOM     11  C   UNL     1      -4.696  -9.475  -3.535  0.00  0.00    +0.250 C 
ATOM     12  O   UNL     1      -4.245  -8.348  -3.472  0.00  0.00    -0.270 OA
ATOM     13  N   UNL     1      -5.755  -9.733  -4.328  0.00  0.00    -0.281 N 
ATOM     14  H   UNL     1      -6.072 -10.644  -4.433  0.00  0.00    +0.155 HD
BRANCH  13  15
ATOM     15  C   UNL     1      -6.397  -8.688  -5.000  0.00  0.00    +0.034 A 
ATOM     16  C   UNL     1      -5.661  -7.614  -5.481  0.00  0.00    +0.023 A 
ATOM     17  C   UNL     1      -6.298  -6.583  -6.144  0.00  0.00    +0.002 A 
ATOM     18  C   UNL     1      -7.668  -6.619  -6.328  0.00  0.00    +0.000 A 
ATOM     19  C   UNL     1      -8.405  -7.688  -5.849  0.00  0.00    +0.002 A 
ATOM     20  C   UNL     1      -7.773  -8.724  -5.191  0.00  0.00    +0.023 A 
ENDBRANCH  13  15
ENDBRANCH  10  11
ENDBRANCH   3   5
BRANCH   1  22
ATOM     21  N   UNL     1      -0.835  -6.857   0.752  0.00  0.00    -0.199 N 
ATOM     22  C   UNL     1      -1.415  -7.235  -0.404  0.00  0.00    +0.318 C 
ATOM     23  O   UNL     1      -1.450  -6.468  -1.345  0.00  0.00    -0.263 OA
ATOM     24  H   UNL     1      -0.807  -7.470   1.504  0.00  0.00    +0.178 HD
BRANCH  21  26
ATOM     25  C   UNL     1       0.287  -5.216   1.984  0.00  0.00    +0.142 C 
ATOM     26  N   UNL     1      -0.272  -5.580   0.869  0.00  0.00    -0.187 NA
BRANCH  25  31
ATOM     27  C   UNL     1       1.401  -1.723   1.149  0.00  0.00    -0.002 A 
ATOM     28  C   UNL     1       1.994  -1.344   2.339  0.00  0.00    +0.007 A 
ATOM     29  C   UNL     1       2.034  -2.218   3.412  0.00  0.00    +0.001 A 
ATOM     30  C   UNL     1       1.481  -3.477   3.303  0.00  0.00    +0.013 A 
ATOM     31  C   UNL     1       0.879  -3.873   2.107  0.00  0.00    +0.036 A 
ATOM     32  C   UNL     1       0.836  -2.981   1.025  0.00  0.00    +0.129 A 
BRANCH  32  33
ATOM     33  O   UNL     1       0.249  -3.353  -0.142  0.00  0.00    -0.506 OA
ATOM     34  H   UNL     1       0.851  -3.778  -0.768  0.00  0.00    +0.292 HD
ENDBRANCH  32  33
BRANCH  27  35
ATOM     35  C   UNL     1       1.362  -0.763  -0.012  0.00  0.00    +0.065 C 
BRANCH  35  37
ATOM     36  C   UNL     1       0.043   1.292  -0.001  0.00  0.00    +0.004 C 
ATOM     37  C   UNL     1       0.052  -0.018  -0.005  0.00  0.00    -0.030 C 
ENDBRANCH  35  37
ENDBRANCH  27  35
ENDBRANCH  25  31
ENDBRANCH  21  26
ENDBRANCH   1  22
TORSDOF 9
