REMARK  Name = ZINC21519666
REMARK  6 active torsions:
REMARK  status: ('A' for Active; 'I' for Inactive)
REMARK    1  A    between atoms: C_1  and  C_2
REMARK    2  A    between atoms: C_3  and  N_14
REMARK    3  A    between atoms: C_7  and  S_8
REMARK    4  A    between atoms: S_8  and  N_11
REMARK    5  A    between atoms: N_11  and  C_12
REMARK    6  A    between atoms: N_11  and  C_13
REMARK                            x       y       z     vdW  Elec       q    Type
REMARK                         _______ _______ _______ _____ _____    ______ ____
ROOT
ATOM      1  C   UNL     1       3.352   1.606  -0.385  0.00  0.00    +0.047 C 
ATOM      2  C   UNL     1       1.932   1.105  -0.309  0.00  0.00    -0.004 A 
ATOM      3  C   UNL     1       1.666  -0.252  -0.437  0.00  0.00    +0.029 A 
ATOM      4  C   UNL     1       0.357  -0.710  -0.366  0.00  0.00    +0.023 A 
ATOM      5  C   UNL     1      -0.676   0.186  -0.170  0.00  0.00    +0.004 A 
ATOM      6  C   UNL     1      -0.408   1.536  -0.043  0.00  0.00    +0.029 A 
ATOM      7  C   UNL     1       0.895   1.995  -0.112  0.00  0.00    +0.110 A 
ENDROOT
BRANCH   7   8
ATOM      8  S   UNL     1       1.231   3.717   0.050  0.00  0.00    +0.061 S 
ATOM      9  O   UNL     1      -0.024   4.362   0.216  0.00  0.00    -0.153 OA
ATOM     10  O   UNL     1       2.282   3.838   0.999  0.00  0.00    -0.153 OA
BRANCH   8  11
ATOM     11  N   UNL     1       1.841   4.235  -1.400  0.00  0.00    -0.183 NA
ATOM     12  C   UNL     1       0.932   4.576  -2.497  0.00  0.00    +0.131 C 
ATOM     13  C   UNL     1       3.289   4.353  -1.586  0.00  0.00    +0.131 C 
ENDBRANCH   8  11
ENDBRANCH   7   8
BRANCH   3  14
ATOM     14  N   UNL     1       2.713  -1.155  -0.635  0.00  0.00    -0.358 N 
ATOM     15  H   UNL     1       2.501  -2.230  -0.737  0.00  0.00    +0.142 HD
ATOM     16  H   UNL     1       3.750  -0.791  -0.691  0.00  0.00    +0.142 HD
ENDBRANCH   3  14
TORSDOF 3
