REMARK  Name = ZINC20573530
REMARK  9 active torsions:
REMARK  status: ('A' for Active; 'I' for Inactive)
REMARK    1  A    between atoms: C_4  and  C_7
REMARK    2  A    between atoms: C_7  and  C_8
REMARK    3  A    between atoms: C_8  and  N_9
REMARK    4  A    between atoms: N_9  and  C_10
REMARK    5  A    between atoms: C_12  and  N_27
REMARK    6  A    between atoms: C_13  and  N_26
REMARK    7  A    between atoms: N_30  and  C_33
REMARK    8  A    between atoms: C_33  and  C_34
REMARK    9  A    between atoms: C_34  and  O_35
REMARK                            x       y       z     vdW  Elec       q    Type
REMARK                         _______ _______ _______ _____ _____    ______ ____
ROOT
ATOM      1  C   UNL     1      -1.205   1.614  -3.259  0.00  0.00    +0.041 A 
ATOM      2  C   UNL     1      -0.321   1.070  -2.328  0.00  0.00    +0.048 A 
ATOM      3  C   UNL     1      -0.528   1.250  -0.975  0.00  0.00    +0.053 A 
ATOM      4  C   UNL     1      -1.632   1.996  -0.516  0.00  0.00    +0.058 A 
ATOM      5  C   UNL     1      -2.522   2.550  -1.436  0.00  0.00    +0.057 A 
ATOM      6  C   UNL     1      -2.308   2.358  -2.821  0.00  0.00    +0.056 A 
ATOM      7  C   UNL     1      -3.245   2.942  -3.789  0.00  0.00    +0.196 C 
ATOM      8  O   UNL     1      -3.227   2.589  -4.953  0.00  0.00    -0.287 OA
ATOM      9  C   UNL     1      -4.212   3.965  -3.333  0.00  0.00    +0.033 A 
ATOM     10  C   UNL     1      -4.910   4.739  -4.254  0.00  0.00    +0.012 A 
ATOM     11  C   UNL     1      -5.809   5.692  -3.809  0.00  0.00    +0.001 A 
ATOM     12  C   UNL     1      -6.019   5.881  -2.454  0.00  0.00    +0.001 A 
ATOM     13  C   UNL     1      -5.333   5.120  -1.526  0.00  0.00    +0.012 A 
ATOM     14  C   UNL     1      -4.425   4.157  -1.956  0.00  0.00    +0.033 A 
ATOM     15  C   UNL     1      -3.681   3.334  -0.978  0.00  0.00    +0.196 C 
ATOM     16  O   UNL     1      -4.022   3.304   0.189  0.00  0.00    -0.287 OA
ENDROOT
BRANCH   3  17
ATOM     17  N   UNL     1       0.361   0.697  -0.060  0.00  0.00    -0.326 N 
ATOM     18  C   UNL     1       1.700   1.283  -0.207  0.00  0.00    +0.120 C 
ATOM     19  C   UNL     1       2.627   0.708   0.868  0.00  0.00    +0.103 C 
ATOM     20  N   UNL     1       2.677  -0.755   0.735  0.00  0.00    -0.297 NA
ATOM     21  C   UNL     1       1.337  -1.341   0.882  0.00  0.00    +0.103 C 
ATOM     22  C   UNL     1       0.411  -0.765  -0.193  0.00  0.00    +0.120 C 
BRANCH  20  23
ATOM     23  C   UNL     1       3.616  -1.339   1.702  0.00  0.00    +0.112 C 
BRANCH  23  24
ATOM     24  C   UNL     1       3.358  -0.743   3.087  0.00  0.00    +0.171 C 
BRANCH  24  25
ATOM     25  O   UNL     1       2.071  -1.155   3.550  0.00  0.00    -0.394 OA
ATOM     26  H   UNL     1       1.708  -0.824   4.535  0.00  0.00    +0.209 HD
ENDBRANCH  24  25
ENDBRANCH  23  24
ENDBRANCH  20  23
ENDBRANCH   3  17
BRANCH   4  27
ATOM     27  N   UNL     1      -1.833   2.178   0.843  0.00  0.00    -0.356 N 
ATOM     28  H   UNL     1      -2.695   2.761   1.199  0.00  0.00    +0.142 HD
ATOM     29  H   UNL     1      -1.129   1.740   1.567  0.00  0.00    +0.142 HD
ENDBRANCH   4  27
BRANCH   1  30
ATOM     30  N   UNL     1      -0.991   1.423  -4.615  0.00  0.00    -0.343 N 
ATOM     31  H   UNL     1      -1.733   1.780  -5.345  0.00  0.00    +0.146 HD
BRANCH  30  32
ATOM     32  C   UNL     1       0.224   0.746  -5.076  0.00  0.00    +0.106 C 
BRANCH  32  33
ATOM     33  C   UNL     1       0.214   0.665  -6.604  0.00  0.00    +0.054 C 
BRANCH  33  37
ATOM     34  C   UNL     1       3.755  -1.310  -7.949  0.00  0.00    +0.000 A 
ATOM     35  C   UNL     1       2.617  -2.044  -7.672  0.00  0.00    +0.000 A 
ATOM     36  C   UNL     1       1.471  -1.405  -7.237  0.00  0.00    +0.004 A 
ATOM     37  C   UNL     1       1.463  -0.032  -7.078  0.00  0.00    -0.046 A 
ATOM     38  C   UNL     1       2.599   0.703  -7.361  0.00  0.00    +0.004 A 
ATOM     39  C   UNL     1       3.747   0.064  -7.791  0.00  0.00    +0.000 A 
ENDBRANCH  33  37
ENDBRANCH  32  33
ENDBRANCH  30  32
ENDBRANCH   1  30
TORSDOF 9
