REMARK  Name = ZINC11178106
REMARK  5 active torsions:
REMARK  status: ('A' for Active; 'I' for Inactive)
REMARK    1  A    between atoms: C_3  and  N_15
REMARK    2  A    between atoms: C_5  and  N_7
REMARK    3  A    between atoms: C_8  and  C_10
REMARK    4  A    between atoms: C_16  and  C_18
REMARK    5  A    between atoms: C_19  and  C_20
REMARK                            x       y       z     vdW  Elec       q    Type
REMARK                         _______ _______ _______ _____ _____    ______ ____
ROOT
ATOM      1  C   UNL     1      -7.220   4.282   0.230  0.00  0.00    +0.004 A 
ATOM      2  C   UNL     1      -6.048   3.559   0.115  0.00  0.00    +0.023 A 
ATOM      3  C   UNL     1      -6.084   2.170   0.107  0.00  0.00    +0.035 A 
ATOM      4  C   UNL     1      -7.300   1.509   0.210  0.00  0.00    +0.046 A 
ATOM      5  C   UNL     1      -8.474   2.237   0.332  0.00  0.00    +0.036 A 
ATOM      6  C   UNL     1      -8.431   3.626   0.338  0.00  0.00    +0.023 A 
ENDROOT
BRANCH   5   7
ATOM      7  N   UNL     1      -9.701   1.575   0.441  0.00  0.00    -0.279 N 
ATOM      8  C   UNL     1      -9.781   0.412   1.118  0.00  0.00    +0.284 C 
ATOM      9  O   UNL     1      -8.772  -0.104   1.562  0.00  0.00    -0.266 OA
ATOM     10  H   UNL     1     -10.494   1.952   0.030  0.00  0.00    +0.155 HD
BRANCH   8  11
ATOM     11  C   UNL     1     -11.083  -0.231   1.320  0.00  0.00    +0.189 A 
ATOM     12  C   UNL     1     -11.304  -1.404   1.983  0.00  0.00    +0.054 A 
ATOM     13  C   UNL     1     -12.687  -1.640   1.934  0.00  0.00    +0.042 A 
ATOM     14  C   UNL     1     -13.242  -0.615   1.251  0.00  0.00    +0.196 A 
ATOM     15  O   UNL     1     -12.273   0.236   0.888  0.00  0.00    -0.458 OA
ENDBRANCH   8  11
ENDBRANCH   5   7
BRANCH   3  16
ATOM     16  N   UNL     1      -4.898   1.439  -0.010  0.00  0.00    -0.282 N 
ATOM     17  C   UNL     1      -3.879   1.922  -0.748  0.00  0.00    +0.241 C 
ATOM     18  O   UNL     1      -4.024   2.948  -1.388  0.00  0.00    -0.270 OA
ATOM     19  H   UNL     1      -4.808   0.585   0.441  0.00  0.00    +0.155 HD
BRANCH  17  20
ATOM     20  C   UNL     1      -2.600   1.214  -0.781  0.00  0.00    +0.068 C 
ATOM     21  C   UNL     1      -1.579   1.698  -1.520  0.00  0.00    +0.013 C 
BRANCH  21  22
ATOM     22  C   UNL     1      -0.294   0.986  -1.553  0.00  0.00    -0.021 A 
ATOM     23  C   UNL     1      -0.125  -0.193  -0.818  0.00  0.00    +0.012 A 
ATOM     24  C   UNL     1       1.079  -0.861  -0.855  0.00  0.00    +0.050 A 
ATOM     25  C   UNL     1       2.129  -0.368  -1.620  0.00  0.00    +0.166 A 
ATOM     26  C   UNL     1       1.968   0.807  -2.356  0.00  0.00    +0.167 A 
ATOM     27  C   UNL     1       0.764   1.483  -2.324  0.00  0.00    +0.057 A 
ATOM     28  O   UNL     1       3.135   1.072  -3.013  0.00  0.00    -0.453 OA
ATOM     29  C   UNL     1       3.872  -0.164  -3.000  0.00  0.00    +0.466 C 
ATOM     30  O   UNL     1       3.395  -0.835  -1.819  0.00  0.00    -0.453 OA
ENDBRANCH  21  22
ENDBRANCH  17  20
ENDBRANCH   3  16
TORSDOF 5
