REMARK  Name = ZINC50397270
REMARK  6 active torsions:
REMARK  status: ('A' for Active; 'I' for Inactive)
REMARK    1  A    between atoms: C_1  and  C_2
REMARK    2  A    between atoms: C_5  and  N_21
REMARK    3  A    between atoms: C_6  and  C_20
REMARK    4  A    between atoms: C_7  and  S_8
REMARK    5  A    between atoms: S_8  and  N_11
REMARK    6  A    between atoms: N_11  and  C_12
REMARK                            x       y       z     vdW  Elec       q    Type
REMARK                         _______ _______ _______ _____ _____    ______ ____
ROOT
ATOM      1  S   UNL     1       0.721   0.104   3.131  0.00  0.00    +0.060 S 
ATOM      2  O   UNL     1       1.318  -0.534   4.251  0.00  0.00    -0.153 OA
ATOM      3  O   UNL     1       1.221   1.319   2.590  0.00  0.00    -0.153 OA
ENDROOT
BRANCH   1  10
ATOM      4  C   UNL     1       0.187   0.788   0.235  0.00  0.00    +0.046 C 
ATOM      5  C   UNL     1       0.473  -0.663   0.523  0.00  0.00    -0.024 A 
ATOM      6  C   UNL     1       0.483  -1.582  -0.511  0.00  0.00    +0.007 A 
ATOM      7  C   UNL     1       0.744  -2.913  -0.251  0.00  0.00    +0.023 A 
ATOM      8  C   UNL     1       0.996  -3.328   1.051  0.00  0.00    +0.029 A 
ATOM      9  C   UNL     1       0.985  -2.403   2.086  0.00  0.00    -0.003 A 
ATOM     10  C   UNL     1       0.729  -1.072   1.819  0.00  0.00    +0.113 A 
ATOM     11  C   UNL     1       1.257  -2.849   3.500  0.00  0.00    +0.048 C 
BRANCH   8  12
ATOM     12  N   UNL     1       1.260  -4.674   1.317  0.00  0.00    -0.358 N 
ATOM     13  H   UNL     1       1.268  -5.319   0.593  0.00  0.00    +0.142 HD
ATOM     14  H   UNL     1       1.436  -4.963   2.227  0.00  0.00    +0.142 HD
ENDBRANCH   8  12
ENDBRANCH   1  10
BRANCH   1  15
ATOM     15  N   UNL     1      -0.862   0.380   3.531  0.00  0.00    -0.178 NA
ATOM     16  H   UNL     1      -1.241   1.267   3.427  0.00  0.00    +0.149 HD
BRANCH  15  17
ATOM     17  C   UNL     1      -1.690  -0.715   4.043  0.00  0.00    +0.162 C 
ATOM     18  C   UNL     1      -2.309  -0.303   5.380  0.00  0.00    +0.031 C 
ATOM     19  C   UNL     1      -3.377  -1.336   5.759  0.00  0.00    +0.021 C 
ATOM     20  C   UNL     1      -4.535  -1.230   4.766  0.00  0.00    +0.104 C 
ATOM     21  N   UNL     1      -4.039  -1.274   3.397  0.00  0.00    -0.314 N 
ATOM     22  C   UNL     1      -2.776  -1.024   3.052  0.00  0.00    +0.232 C 
ATOM     23  O   UNL     1      -2.489  -1.049   1.874  0.00  0.00    -0.274 OA
ATOM     24  H   UNL     1      -4.667  -1.497   2.692  0.00  0.00    +0.149 HD
ENDBRANCH  15  17
ENDBRANCH   1  15
TORSDOF 4
