REMARK  Name = ZINC02949301
REMARK  3 active torsions:
REMARK  status: ('A' for Active; 'I' for Inactive)
REMARK    1  A    between atoms: C_4  and  N_22
REMARK    2  A    between atoms: C_5  and  C_7
REMARK    3  A    between atoms: N_9  and  C_14
REMARK                            x       y       z     vdW  Elec       q    Type
REMARK                         _______ _______ _______ _____ _____    ______ ____
ROOT
ATOM      1  C   UNL     1       3.506   2.284   0.234  0.00  0.00    +0.172 C 
ATOM      2  N   UNL     1       4.690   1.502  -0.173  0.00  0.00    -0.254 N 
ATOM      3  C   UNL     1       5.569   2.044  -1.006  0.00  0.00    +0.231 C 
ATOM      4  O   UNL     1       6.557   1.435  -1.360  0.00  0.00    -0.274 OA
ATOM      5  C   UNL     1       5.293   3.455  -1.500  0.00  0.00    +0.167 C 
ATOM      6  S   UNL     1       3.523   3.642  -1.014  0.00  0.00    -0.124 S 
ENDROOT
BRANCH   2   7
ATOM      7  C   UNL     1       4.883   0.204   0.314  0.00  0.00    +0.039 A 
ATOM      8  C   UNL     1       5.073  -0.850  -0.570  0.00  0.00    +0.025 A 
ATOM      9  C   UNL     1       5.263  -2.129  -0.087  0.00  0.00    +0.023 A 
ATOM     10  C   UNL     1       5.264  -2.363   1.277  0.00  0.00    +0.059 A 
ATOM     11  C   UNL     1       5.075  -1.314   2.161  0.00  0.00    +0.061 A 
ATOM     12  C   UNL     1       4.890  -0.030   1.683  0.00  0.00    +0.045 A 
ATOM     13 CL   UNL     1       5.077  -1.611   3.872  0.00  0.00    -0.082 Cl
ATOM     14 CL   UNL     1       5.504  -3.973   1.880  0.00  0.00    -0.082 Cl
ENDBRANCH   2   7
BRANCH   1  19
ATOM     15  C   UNL     1       1.089  -0.445  -0.749  0.00  0.00    +0.000 A 
ATOM     16  C   UNL     1      -0.058  -0.050  -0.086  0.00  0.00    +0.002 A 
ATOM     17  C   UNL     1      -0.051   1.100   0.681  0.00  0.00    +0.033 A 
ATOM     18  C   UNL     1       1.103   1.855   0.785  0.00  0.00    +0.132 A 
ATOM     19  C   UNL     1       2.249   1.460   0.121  0.00  0.00    +0.014 A 
ATOM     20  C   UNL     1       2.242   0.310  -0.646  0.00  0.00    +0.008 A 
BRANCH  18  21
ATOM     21  N   UNL     1       1.110   3.087   1.606  0.00  0.00    +0.057 N 
ATOM     22  O   UNL     1       0.137   3.376   2.279  0.00  0.00    -0.126 OA
ATOM     23  O   UNL     1       2.090   3.811   1.609  0.00  0.00    -0.126 OA
ENDBRANCH  18  21
ENDBRANCH   1  19
TORSDOF 3
