REMARK  Name = ZINC10661557
REMARK  8 active torsions:
REMARK  status: ('A' for Active; 'I' for Inactive)
REMARK    1  A    between atoms: C_1  and  C_2
REMARK    2  A    between atoms: C_2  and  C_3
REMARK    3  A    between atoms: N_11  and  C_15
REMARK    4  A    between atoms: C_15  and  C_16
REMARK    5  A    between atoms: N_21  and  S_24
REMARK    6  A    between atoms: S_24  and  C_27
REMARK    7  A    between atoms: C_28  and  C_33
REMARK    8  A    between atoms: C_31  and  C_32
REMARK                            x       y       z     vdW  Elec       q    Type
REMARK                         _______ _______ _______ _____ _____    ______ ____
ROOT
ATOM      1  C   UNL     1       2.866   6.961   1.494  0.00  0.00    +0.234 C 
ATOM      2  O   UNL     1       2.891   7.825   2.345  0.00  0.00    -0.274 OA
ATOM      3  N   UNL     1       2.287   5.772   1.757  0.00  0.00    -0.298 N 
ATOM      4  C   UNL     1       1.683   5.509   3.071  0.00  0.00    +0.125 C 
ATOM      5  C   UNL     1       2.315   4.239   3.655  0.00  0.00    +0.128 C 
ATOM      6  N   UNL     1       2.278   3.183   2.634  0.00  0.00    -0.173 NA
ATOM      7  C   UNL     1       2.886   3.445   1.322  0.00  0.00    +0.128 C 
ATOM      8  C   UNL     1       2.250   4.716   0.736  0.00  0.00    +0.125 C 
ENDROOT
BRANCH   6   9
ATOM      9  S   UNL     1       1.568   1.723   2.958  0.00  0.00    +0.066 S 
ATOM     10  O   UNL     1       1.598   1.561   4.369  0.00  0.00    -0.153 OA
ATOM     11  O   UNL     1       2.155   0.780   2.070  0.00  0.00    -0.153 OA
BRANCH   9  12
ATOM     12  C   UNL     1      -0.129   1.855   2.501  0.00  0.00    +0.170 A 
ATOM     13  C   UNL     1      -0.718   1.572   1.248  0.00  0.00    +0.107 A 
ATOM     14  N   UNL     1      -1.990   1.819   1.375  0.00  0.00    -0.081 NA
ATOM     15  O   UNL     1      -2.261   2.193   2.493  0.00  0.00    -0.358 OA
ATOM     16  C   UNL     1      -1.171   2.253   3.270  0.00  0.00    +0.161 A 
ATOM     17  C   UNL     1      -1.115   2.679   4.715  0.00  0.00    +0.091 C 
ATOM     18  C   UNL     1      -0.013   1.086   0.008  0.00  0.00    +0.071 C 
ENDBRANCH   9  12
ENDBRANCH   6   9
BRANCH   1  19
ATOM     19  C   UNL     1       3.481   7.217   0.142  0.00  0.00    +0.213 C 
BRANCH  19  28
ATOM     20  C   UNL     1       8.181  10.928   1.051  0.00  0.00    -0.011 C 
ATOM     21  C   UNL     1       7.113  10.586   2.092  0.00  0.00    +0.006 C 
ATOM     22  C   UNL     1       5.745  11.056   1.591  0.00  0.00    +0.035 C 
ATOM     23  C   UNL     1       5.426  10.372   0.266  0.00  0.00    +0.113 C 
ATOM     24  C   UNL     1       6.494  10.688  -0.775  0.00  0.00    +0.035 C 
ATOM     25  C   UNL     1       7.859  10.219  -0.266  0.00  0.00    +0.006 C 
ATOM     26  C   UNL     1       5.304   8.878   0.460  0.00  0.00    +0.247 C 
ATOM     27  O   UNL     1       6.163   8.117   0.850  0.00  0.00    -0.273 OA
ATOM     28  N   UNL     1       4.039   8.571   0.108  0.00  0.00    -0.215 N 
ATOM     29  C   UNL     1       3.358   9.655  -0.282  0.00  0.00    +0.310 C 
ATOM     30  O   UNL     1       2.201   9.630  -0.652  0.00  0.00    -0.252 OA
ATOM     31  N   UNL     1       4.099  10.778  -0.217  0.00  0.00    -0.285 N 
ATOM     32  H   UNL     1       3.815  11.676  -0.447  0.00  0.00    +0.151 HD
BRANCH  20  34
ATOM     33  C   UNL     1      10.634  10.921   0.575  0.00  0.00    +0.004 C 
ATOM     34  C   UNL     1       9.550  10.469   1.556  0.00  0.00    -0.000 C 
ENDBRANCH  20  34
ENDBRANCH  19  28
ENDBRANCH   1  19
TORSDOF 5
