REMARK  Name = ZINC34670385
REMARK  5 active torsions:
REMARK  status: ('A' for Active; 'I' for Inactive)
REMARK    1  A    between atoms: C_1  and  C_2
REMARK    2  A    between atoms: N_7  and  C_8
REMARK    3  A    between atoms: C_8  and  C_9
REMARK    4  A    between atoms: N_11  and  C_12
REMARK    5  A    between atoms: C_13  and  N_20
REMARK                            x       y       z     vdW  Elec       q    Type
REMARK                         _______ _______ _______ _____ _____    ______ ____
ROOT
ATOM      1  C   UNL     1      -1.050   1.485   3.095  0.00  0.00    +0.237 C 
ATOM      2  O   UNL     1      -1.690   2.300   2.464  0.00  0.00    -0.274 OA
ATOM      3  N   UNL     1      -1.636   0.792   4.091  0.00  0.00    -0.281 N 
ATOM      4  H   UNL     1      -1.147   0.090   4.546  0.00  0.00    +0.155 HD
ENDROOT
BRANCH   3   5
ATOM      5  C   UNL     1      -2.954   1.087   4.468  0.00  0.00    +0.073 A 
ATOM      6  C   UNL     1      -3.204   2.065   5.431  0.00  0.00    +0.049 A 
ATOM      7  C   UNL     1      -4.510   2.352   5.800  0.00  0.00    +0.044 A 
ATOM      8  C   UNL     1      -5.561   1.669   5.214  0.00  0.00    +0.044 A 
ATOM      9  C   UNL     1      -5.313   0.699   4.259  0.00  0.00    +0.042 A 
ATOM     10  C   UNL     1      -4.014   0.410   3.881  0.00  0.00    +0.065 A 
ATOM     11 CL   UNL     1      -3.709  -0.802   2.677  0.00  0.00    -0.082 Cl
ATOM     12 CL   UNL     1      -7.194   2.030   5.678  0.00  0.00    -0.083 Cl
BRANCH   6  13
ATOM     13  N   UNL     1      -2.140   2.753   6.023  0.00  0.00    -0.356 N 
ATOM     14  H   UNL     1      -1.227   2.551   5.764  0.00  0.00    +0.142 HD
ATOM     15  H   UNL     1      -2.315   3.433   6.692  0.00  0.00    +0.142 HD
ENDBRANCH   6  13
ENDBRANCH   3   5
BRANCH   1  16
ATOM     16  C   UNL     1       0.401   1.247   2.764  0.00  0.00    +0.221 C 
BRANCH  16  23
ATOM     17  C   UNL     1       1.456   3.888   3.297  0.00  0.00    +0.064 C 
ATOM     18  C   UNL     1       1.296   3.363   1.893  0.00  0.00    +0.027 A 
ATOM     19  C   UNL     1       1.642   4.097   0.832  0.00  0.00    +0.071 A 
ATOM     20  S   UNL     1       1.244   3.000  -0.517  0.00  0.00    -0.035 S 
ATOM     21  C   UNL     1       0.670   1.697   0.377  0.00  0.00    +0.291 A 
ATOM     22  O   UNL     1       0.246   0.629  -0.030  0.00  0.00    -0.259 OA
ATOM     23  N   UNL     1       0.797   2.116   1.653  0.00  0.00    -0.298 N 
ENDBRANCH  16  23
ENDBRANCH   1  16
TORSDOF 4
