REMARK  Name = ZINC39884079
REMARK  5 active torsions:
REMARK  status: ('A' for Active; 'I' for Inactive)
REMARK    1  A    between atoms: C_1  and  C_2
REMARK    2  A    between atoms: C_5  and  N_8
REMARK    3  A    between atoms: C_9  and  C_11
REMARK    4  A    between atoms: C_11  and  N_12
REMARK    5  A    between atoms: C_18  and  C_33
REMARK                            x       y       z     vdW  Elec       q    Type
REMARK                         _______ _______ _______ _____ _____    ______ ____
ROOT
ATOM      1  N   UNL     1       0.513  -6.823   2.425  0.00  0.00    -0.288 N 
ATOM      2  C   UNL     1       1.728  -6.949   3.053  0.00  0.00    +0.091 A 
ATOM      3  C   UNL     1       1.670  -7.420   4.318  0.00  0.00    +0.033 A 
ATOM      4  S   UNL     1      -0.065  -7.679   4.575  0.00  0.00    -0.030 S 
ATOM      5  C   UNL     1      -0.618  -7.159   3.074  0.00  0.00    +0.292 A 
ATOM      6  O   UNL     1      -1.766  -7.103   2.669  0.00  0.00    -0.259 OA
ATOM      7  C   UNL     1       2.784  -7.665   5.298  0.00  0.00    +0.072 C 
ATOM      8  C   UNL     1       3.982  -6.853   4.873  0.00  0.00    +0.110 C 
ATOM      9  C   UNL     1       4.430  -7.331   3.459  0.00  0.00    +0.152 C 
ATOM     10  S   UNL     1       3.292  -6.545   2.289  0.00  0.00    -0.093 S 
ATOM     11  C   UNL     1       5.831  -6.784   3.437  0.00  0.00    +0.244 C 
ATOM     12  O   UNL     1       6.452  -6.417   2.467  0.00  0.00    -0.273 OA
ATOM     13  N   UNL     1       6.259  -6.784   4.726  0.00  0.00    -0.162 N 
ATOM     14  C   UNL     1       5.271  -7.010   5.615  0.00  0.00    +0.235 C 
ATOM     15  O   UNL     1       5.408  -7.277   6.785  0.00  0.00    -0.274 OA
ATOM     16  C   UNL     1       7.546  -6.594   5.077  0.00  0.00    +0.313 C 
ATOM     17  O   UNL     1       7.865  -6.607   6.249  0.00  0.00    -0.252 OA
ATOM     18  N   UNL     1       8.480  -6.391   4.126  0.00  0.00    -0.313 N 
ATOM     19  H   UNL     1       8.226  -6.382   3.190  0.00  0.00    +0.147 HD
ATOM     20  H   UNL     1       9.407  -6.255   4.379  0.00  0.00    +0.147 HD
ENDROOT
BRANCH   7  21
ATOM     21  C   UNL     1       3.137  -9.130   5.308  0.00  0.00    -0.039 A 
ATOM     22  C   UNL     1       3.561  -9.731   6.478  0.00  0.00    +0.004 A 
ATOM     23  C   UNL     1       3.885 -11.075   6.487  0.00  0.00    +0.000 A 
ATOM     24  C   UNL     1       3.785 -11.818   5.325  0.00  0.00    +0.000 A 
ATOM     25  C   UNL     1       3.360 -11.217   4.155  0.00  0.00    +0.000 A 
ATOM     26  C   UNL     1       3.032  -9.874   4.147  0.00  0.00    +0.004 A 
ENDBRANCH   7  21
BRANCH   1  27
ATOM     27  C   UNL     1       0.448  -6.316   1.052  0.00  0.00    +0.222 C 
BRANCH  27  29
ATOM     28  N   UNL     1       0.235  -4.128  -0.080  0.00  0.00    -0.284 N 
ATOM     29  C   UNL     1       0.314  -4.816   1.076  0.00  0.00    +0.237 C 
ATOM     30  O   UNL     1       0.276  -4.227   2.136  0.00  0.00    -0.274 OA
ATOM     31  H   UNL     1       0.190  -4.602  -0.925  0.00  0.00    +0.155 HD
BRANCH  28  36
ATOM     32  C   UNL     1       0.170   1.545  -0.008  0.00  0.00    +0.044 C 
ATOM     33  C   UNL     1       0.187   0.038  -0.027  0.00  0.00    -0.050 A 
ATOM     34  C   UNL     1       0.908  -0.656   0.928  0.00  0.00    +0.005 A 
ATOM     35  C   UNL     1       0.926  -2.037   0.913  0.00  0.00    +0.023 A 
ATOM     36  C   UNL     1       0.219  -2.728  -0.062  0.00  0.00    +0.033 A 
ATOM     37  C   UNL     1      -0.504  -2.029  -1.019  0.00  0.00    +0.023 A 
ATOM     38  C   UNL     1      -0.522  -0.648  -0.996  0.00  0.00    +0.005 A 
ENDBRANCH  28  36
ENDBRANCH  27  29
ENDBRANCH   1  27
TORSDOF 4
