REMARK  Name = ZINC36581977
REMARK  20 active torsions:
REMARK  status: ('A' for Active; 'I' for Inactive)
REMARK    1  A    between atoms: C_1  and  C_2
REMARK    2  A    between atoms: C_2  and  C_3
REMARK    3  A    between atoms: C_3  and  C_4
REMARK    4  A    between atoms: C_4  and  C_5
REMARK    5  A    between atoms: C_5  and  C_6
REMARK    6  A    between atoms: C_7  and  C_8
REMARK    7  A    between atoms: N_10  and  C_11
REMARK    8  A    between atoms: N_10  and  C_29
REMARK    9  A    between atoms: C_11  and  C_13
REMARK   10  A    between atoms: C_11  and  C_22
REMARK   11  A    between atoms: C_14  and  O_21
REMARK   12  A    between atoms: C_16  and  O_20
REMARK   13  A    between atoms: C_18  and  O_19
REMARK   14  A    between atoms: N_24  and  C_25
REMARK   15  A    between atoms: C_25  and  C_26
REMARK   16  A    between atoms: C_25  and  C_27
REMARK   17  A    between atoms: C_25  and  C_28
REMARK   18  A    between atoms: C_29  and  C_30
REMARK   19  A    between atoms: C_29  and  C_31
REMARK   20  A    between atoms: C_29  and  C_32
REMARK                            x       y       z     vdW  Elec       q    Type
REMARK                         _______ _______ _______ _____ _____    ______ ____
ROOT
ATOM      1  C   UNL     1       3.594  -7.902   1.878  0.00  0.00    +0.200 C 
ENDROOT
BRANCH   1   2
ATOM      2  C   UNL     1       2.279  -8.471   1.411  0.00  0.00    +0.065 A 
ATOM      3  C   UNL     1       1.107  -8.141   2.075  0.00  0.00    +0.129 A 
ATOM      4  C   UNL     1      -0.103  -8.665   1.645  0.00  0.00    +0.091 A 
ATOM      5  C   UNL     1      -0.141  -9.517   0.553  0.00  0.00    +0.124 A 
ATOM      6  C   UNL     1       1.031  -9.846  -0.111  0.00  0.00    +0.091 A 
ATOM      7  C   UNL     1       2.240  -9.319   0.316  0.00  0.00    +0.129 A 
BRANCH   7   8
ATOM      8  O   UNL     1       3.389  -9.638  -0.338  0.00  0.00    -0.506 OA
ATOM      9  H   UNL     1       3.832 -10.425   0.007  0.00  0.00    +0.292 HD
ENDBRANCH   7   8
BRANCH   5  10
ATOM     10  O   UNL     1      -1.327 -10.031   0.133  0.00  0.00    -0.507 OA
ATOM     11  H   UNL     1      -1.780  -9.487  -0.526  0.00  0.00    +0.292 HD
ENDBRANCH   5  10
BRANCH   3  12
ATOM     12  O   UNL     1       1.144  -7.305   3.146  0.00  0.00    -0.506 OA
ATOM     13  H   UNL     1       1.189  -6.368   2.912  0.00  0.00    +0.292 HD
ENDBRANCH   3  12
ENDBRANCH   1   2
BRANCH   1  14
ATOM     14  C   UNL     1       3.719  -8.083   3.369  0.00  0.00    +0.239 C 
ATOM     15  O   UNL     1       3.665  -7.119   4.103  0.00  0.00    -0.273 OA
ATOM     16  N   UNL     1       3.892  -9.315   3.886  0.00  0.00    -0.309 N 
ATOM     17  H   UNL     1       3.936 -10.086   3.298  0.00  0.00    +0.149 HD
BRANCH  16  18
ATOM     18  C   UNL     1       4.014  -9.491   5.335  0.00  0.00    +0.026 C 
ATOM     19  C   UNL     1       2.745  -8.978   6.019  0.00  0.00    +0.031 C 
ATOM     20  C   UNL     1       4.201 -10.976   5.655  0.00  0.00    +0.031 C 
ATOM     21  C   UNL     1       5.223  -8.704   5.845  0.00  0.00    +0.031 C 
ENDBRANCH  16  18
ENDBRANCH   1  14
BRANCH   1  24
ATOM     22  C   UNL     1       2.562  -5.851   1.062  0.00  0.00    +0.240 C 
ATOM     23  O   UNL     1       1.498  -6.437   1.009  0.00  0.00    -0.271 OA
ATOM     24  N   UNL     1       3.652  -6.474   1.553  0.00  0.00    -0.277 N 
BRANCH  24  25
ATOM     25  C   UNL     1       4.893  -5.725   1.761  0.00  0.00    +0.030 C 
ATOM     26  C   UNL     1       4.606  -4.489   2.616  0.00  0.00    +0.031 C 
ATOM     27  C   UNL     1       5.912  -6.614   2.477  0.00  0.00    +0.031 C 
ATOM     28  C   UNL     1       5.458  -5.288   0.408  0.00  0.00    +0.031 C 
ENDBRANCH  24  25
BRANCH  22  30
ATOM     29  C   UNL     1       1.606  -3.871   0.034  0.00  0.00    -0.022 C 
ATOM     30  C   UNL     1       2.660  -4.460   0.591  0.00  0.00    +0.063 C 
BRANCH  29  31
ATOM     31  C   UNL     1       1.707  -2.447  -0.449  0.00  0.00    +0.027 C 
BRANCH  31  32
ATOM     32  C   UNL     1       1.299  -2.378  -1.922  0.00  0.00    +0.004 C 
BRANCH  32  33
ATOM     33  C   UNL     1       1.401  -0.932  -2.412  0.00  0.00    +0.000 C 
BRANCH  33  35
ATOM     34  C   UNL     1       1.095   0.583  -4.374  0.00  0.00    +0.004 C 
ATOM     35  C   UNL     1       0.993  -0.862  -3.885  0.00  0.00    -0.003 C 
ENDBRANCH  33  35
ENDBRANCH  32  33
ENDBRANCH  31  32
ENDBRANCH  29  31
ENDBRANCH  22  30
ENDBRANCH   1  24
TORSDOF 13
