REMARK  Name = ZINC19320792
REMARK  5 active torsions:
REMARK  status: ('A' for Active; 'I' for Inactive)
REMARK    1  A    between atoms: C_1  and  C_2
REMARK    2  A    between atoms: C_5  and  O_26
REMARK    3  A    between atoms: C_10  and  N_12
REMARK    4  A    between atoms: N_16  and  C_19
REMARK    5  A    between atoms: O_26  and  C_27
REMARK                            x       y       z     vdW  Elec       q    Type
REMARK                         _______ _______ _______ _____ _____    ______ ____
ROOT
ATOM      1  N   UNL     1       0.052  -2.662   2.415  0.00  0.00    -0.181 NA
ATOM      2  C   UNL     1       0.070  -3.978   2.422  0.00  0.00    +0.185 C 
ATOM      3  N   UNL     1       0.037  -4.720   1.256  0.00  0.00    -0.304 N 
ATOM      4  C   UNL     1      -0.804  -5.927   1.253  0.00  0.00    +0.193 C 
ATOM      5  N   UNL     1      -0.505  -6.714   2.460  0.00  0.00    -0.268 NA
ATOM      6  C   UNL     1      -0.716  -5.912   3.676  0.00  0.00    +0.193 C 
ATOM      7  N   UNL     1       0.128  -4.705   3.597  0.00  0.00    -0.304 N 
ATOM      8  H   UNL     1       0.697  -4.431   4.333  0.00  0.00    +0.150 HD
ATOM      9  H   UNL     1       0.546  -4.455   0.474  0.00  0.00    +0.150 HD
ENDROOT
BRANCH   1  19
ATOM     10  C   UNL     1      -0.097   1.559   0.192  0.00  0.00    +0.066 C 
ATOM     11  C   UNL     1      -0.079   0.053   0.146  0.00  0.00    +0.051 A 
ATOM     12  C   UNL     1      -0.121  -0.631  -1.085  0.00  0.00    +0.025 A 
ATOM     13  C   UNL     1      -0.180   0.050  -2.309  0.00  0.00    +0.057 A 
ATOM     14  C   UNL     1      -0.219  -0.664  -3.474  0.00  0.00    +0.121 A 
ATOM     15  C   UNL     1      -0.200  -2.061  -3.460  0.00  0.00    +0.048 A 
ATOM     16  C   UNL     1      -0.142  -2.750  -2.287  0.00  0.00    +0.032 A 
ATOM     17  C   UNL     1      -0.101  -2.050  -1.071  0.00  0.00    +0.077 A 
ATOM     18  N   UNL     1      -0.044  -2.683   0.107  0.00  0.00    -0.211 NA
ATOM     19  C   UNL     1      -0.006  -1.989   1.234  0.00  0.00    +0.254 A 
ATOM     20  N   UNL     1      -0.018  -0.652   1.255  0.00  0.00    -0.215 NA
BRANCH  14  21
ATOM     21  O   UNL     1      -0.276  -0.005  -4.662  0.00  0.00    -0.495 OA
ATOM     22  C   UNL     1      -0.314  -0.805  -5.846  0.00  0.00    +0.277 C 
ENDBRANCH  14  21
ENDBRANCH   1  19
BRANCH   5  23
ATOM     23  C   UNL     1      -1.303  -7.947   2.497  0.00  0.00    +0.060 C 
ATOM     24  C   UNL     1      -2.756  -7.614   2.291  0.00  0.00    +0.019 C 
ATOM     25  C   UNL     1      -3.693  -8.547   3.083  0.00  0.00    +0.002 C 
ATOM     26  C   UNL     1      -3.246 -10.021   3.037  0.00  0.00    +0.000 C 
ATOM     27  C   UNL     1      -2.780 -10.439   1.668  0.00  0.00    +0.000 C 
ATOM     28  C   UNL     1      -1.248 -10.271   1.600  0.00  0.00    +0.002 C 
ATOM     29  C   UNL     1      -0.852  -8.891   1.364  0.00  0.00    +0.019 C 
ENDBRANCH   5  23
TORSDOF 3
