REMARK  Name = ZINC36926767
REMARK  6 active torsions:
REMARK  status: ('A' for Active; 'I' for Inactive)
REMARK    1  A    between atoms: C_1  and  C_2
REMARK    2  A    between atoms: N_5  and  C_11
REMARK    3  A    between atoms: C_7  and  C_10
REMARK    4  A    between atoms: C_14  and  S_18
REMARK    5  A    between atoms: C_16  and  N_17
REMARK    6  A    between atoms: S_18  and  N_21
REMARK                            x       y       z     vdW  Elec       q    Type
REMARK                         _______ _______ _______ _____ _____    ______ ____
ROOT
ATOM      1  C   UNL     1      -2.096  -2.850  -0.659  0.00  0.00    +0.051 A 
ATOM      2  C   UNL     1      -1.492  -3.339  -1.808  0.00  0.00    +0.027 A 
ATOM      3  C   UNL     1      -2.192  -4.184  -2.650  0.00  0.00    +0.030 A 
ATOM      4  C   UNL     1      -3.493  -4.543  -2.350  0.00  0.00    +0.107 A 
ATOM      5  C   UNL     1      -4.102  -4.061  -1.207  0.00  0.00    +0.053 A 
ATOM      6  C   UNL     1      -3.406  -3.217  -0.354  0.00  0.00    +0.048 A 
ENDROOT
BRANCH   1  10
ATOM      7  C   UNL     1      -0.019   1.526   0.010  0.00  0.00    +0.039 C 
ATOM      8  C   UNL     1       0.002  -0.004   0.002  0.00  0.00    +0.133 C 
ATOM      9  C   UNL     1      -1.436  -0.536   0.015  0.00  0.00    +0.136 C 
ATOM     10  N   UNL     1      -1.389  -1.995   0.196  0.00  0.00    -0.324 N 
ATOM     11  C   UNL     1      -0.578  -2.530   1.302  0.00  0.00    +0.136 C 
ATOM     12  C   UNL     1       0.818  -1.901   1.226  0.00  0.00    +0.133 C 
ATOM     13  O   UNL     1       0.691  -0.479   1.161  0.00  0.00    -0.371 OA
ATOM     14  C   UNL     1       1.539  -2.407  -0.025  0.00  0.00    +0.039 C 
ENDBRANCH   1  10
BRANCH   6  15
ATOM     15  N   UNL     1      -4.019  -2.732   0.808  0.00  0.00    -0.356 N 
ATOM     16  H   UNL     1      -3.533  -2.139   1.401  0.00  0.00    +0.142 HD
ATOM     17  H   UNL     1      -4.931  -2.988   1.018  0.00  0.00    +0.142 HD
ENDBRANCH   6  15
BRANCH   4  18
ATOM     18  S   UNL     1      -4.377  -5.619  -3.429  0.00  0.00    +0.056 S 
ATOM     19  O   UNL     1      -5.759  -5.368  -3.210  0.00  0.00    -0.153 OA
ATOM     20  O   UNL     1      -3.774  -5.496  -4.710  0.00  0.00    -0.153 OA
BRANCH  18  21
ATOM     21  N   UNL     1      -4.091  -7.168  -2.919  0.00  0.00    -0.204 NA
ATOM     22  H   UNL     1      -3.521  -7.328  -2.151  0.00  0.00    +0.144 HD
ATOM     23  H   UNL     1      -4.493  -7.916  -3.388  0.00  0.00    +0.144 HD
ENDBRANCH  18  21
ENDBRANCH   4  18
TORSDOF 4
