REMARK  Name = ZINC01726391
REMARK  10 active torsions:
REMARK  status: ('A' for Active; 'I' for Inactive)
REMARK    1  A    between atoms: C_1  and  C_2
REMARK    2  A    between atoms: C_6  and  O_8
REMARK    3  A    between atoms: O_8  and  C_9
REMARK    4  A    between atoms: C_12  and  S_16
REMARK    5  A    between atoms: C_14  and  N_15
REMARK    6  A    between atoms: S_16  and  C_19
REMARK    7  A    between atoms: C_22  and  O_26
REMARK    8  A    between atoms: C_23  and  N_25
REMARK    9  A    between atoms: O_26  and  C_27
REMARK   10  A    between atoms: C_31  and  C_33
REMARK                            x       y       z     vdW  Elec       q    Type
REMARK                         _______ _______ _______ _____ _____    ______ ____
ROOT
ATOM      1  S   UNL     1       5.088   8.020   0.452  0.00  0.00    +0.025 S 
ATOM      2  O   UNL     1       4.942   9.255   1.138  0.00  0.00    -0.164 OA
ATOM      3  O   UNL     1       5.952   6.990   0.913  0.00  0.00    -0.164 OA
ENDROOT
BRANCH   1   7
ATOM      4  C   UNL     1       0.950   6.194   0.155  0.00  0.00    +0.149 A 
ATOM      5  C   UNL     1       2.074   5.386   0.093  0.00  0.00    +0.050 A 
ATOM      6  C   UNL     1       3.334   5.946   0.183  0.00  0.00    +0.031 A 
ATOM      7  C   UNL     1       3.478   7.313   0.336  0.00  0.00    +0.096 A 
ATOM      8  C   UNL     1       2.363   8.126   0.399  0.00  0.00    +0.053 A 
ATOM      9  C   UNL     1       1.094   7.572   0.303  0.00  0.00    +0.069 A 
BRANCH   9  10
ATOM     10  N   UNL     1      -0.037   8.394   0.361  0.00  0.00    -0.355 N 
ATOM     11  H   UNL     1      -0.923   8.005   0.297  0.00  0.00    +0.142 HD
ATOM     12  H   UNL     1       0.065   9.353   0.464  0.00  0.00    +0.142 HD
ENDBRANCH   9  10
BRANCH   4  13
ATOM     13  O   UNL     1      -0.291   5.645   0.066  0.00  0.00    -0.454 OA
BRANCH  13  19
ATOM     14  C   UNL     1       0.150   1.319   2.283  0.00  0.00    +0.044 C 
ATOM     15  C   UNL     1      -0.179   2.149   1.069  0.00  0.00    -0.047 A 
ATOM     16  C   UNL     1      -0.579   1.533  -0.102  0.00  0.00    +0.003 A 
ATOM     17  C   UNL     1      -0.888   2.292  -1.216  0.00  0.00    +0.004 A 
ATOM     18  C   UNL     1      -0.792   3.669  -1.162  0.00  0.00    +0.046 A 
ATOM     19  C   UNL     1      -0.386   4.290   0.010  0.00  0.00    +0.129 A 
ATOM     20  C   UNL     1      -0.077   3.526   1.126  0.00  0.00    +0.049 A 
ENDBRANCH  13  19
ENDBRANCH   4  13
ENDBRANCH   1   7
BRANCH   1  21
ATOM     21  C   UNL     1       5.604   8.412  -1.187  0.00  0.00    +0.096 A 
ATOM     22  C   UNL     1       6.296   7.477  -1.934  0.00  0.00    +0.031 A 
ATOM     23  C   UNL     1       6.699   7.777  -3.223  0.00  0.00    +0.050 A 
ATOM     24  C   UNL     1       6.418   9.020  -3.765  0.00  0.00    +0.149 A 
ATOM     25  C   UNL     1       5.725   9.965  -3.010  0.00  0.00    +0.069 A 
ATOM     26  C   UNL     1       5.319   9.655  -1.720  0.00  0.00    +0.053 A 
BRANCH  25  27
ATOM     27  N   UNL     1       5.439  11.223  -3.552  0.00  0.00    -0.355 N 
ATOM     28  H   UNL     1       4.956  11.879  -3.026  0.00  0.00    +0.142 HD
ATOM     29  H   UNL     1       5.723  11.438  -4.455  0.00  0.00    +0.142 HD
ENDBRANCH  25  27
BRANCH  24  30
ATOM     30  O   UNL     1       6.818   9.319  -5.030  0.00  0.00    -0.454 OA
BRANCH  30  31
ATOM     31  C   UNL     1       7.997   9.976  -5.188  0.00  0.00    +0.129 A 
ATOM     32  C   UNL     1       8.699  10.421  -4.077  0.00  0.00    +0.046 A 
ATOM     33  C   UNL     1       9.900  11.084  -4.241  0.00  0.00    +0.004 A 
ATOM     34  C   UNL     1      10.396  11.313  -5.511  0.00  0.00    +0.003 A 
ATOM     35  C   UNL     1       9.696  10.876  -6.620  0.00  0.00    -0.047 A 
ATOM     36  C   UNL     1       8.497  10.208  -6.462  0.00  0.00    +0.049 A 
ATOM     37  C   UNL     1      10.240  11.129  -8.002  0.00  0.00    +0.044 C 
ENDBRANCH  30  31
ENDBRANCH  24  30
ENDBRANCH   1  21
TORSDOF 8
