REMARK  Name = ZINC66158430
REMARK  9 active torsions:
REMARK  status: ('A' for Active; 'I' for Inactive)
REMARK    1  A    between atoms: C_1  and  C_2
REMARK    2  A    between atoms: N_4  and  C_5
REMARK    3  A    between atoms: C_8  and  N_11
REMARK    4  A    between atoms: N_14  and  C_15
REMARK    5  A    between atoms: C_15  and  C_16
REMARK    6  A    between atoms: C_16  and  C_17
REMARK    7  A    between atoms: C_16  and  C_18
REMARK    8  A    between atoms: C_16  and  C_19
REMARK    9  A    between atoms: C_23  and  C_25
REMARK                            x       y       z     vdW  Elec       q    Type
REMARK                         _______ _______ _______ _____ _____    ______ ____
ROOT
ATOM      1  N   UNL     1      -0.710  -6.245   0.176  0.00  0.00    -0.269 N 
ATOM      2  C   UNL     1      -1.810  -7.013   0.051  0.00  0.00    +0.304 C 
ATOM      3  O   UNL     1      -2.909  -6.496  -0.008  0.00  0.00    -0.253 OA
ATOM      4  N   UNL     1      -1.691  -8.354  -0.011  0.00  0.00    -0.298 N 
ATOM      5  H   UNL     1       0.160  -6.658   0.291  0.00  0.00    +0.156 HD
ATOM      6  H   UNL     1      -0.815  -8.766   0.036  0.00  0.00    +0.150 HD
ENDROOT
BRANCH   1  10
ATOM      7  C   UNL     1      -1.047  -2.089   0.076  0.00  0.00    +0.033 A 
ATOM      8  C   UNL     1       0.068  -2.709  -0.474  0.00  0.00    +0.025 A 
ATOM      9  C   UNL     1       0.179  -4.084  -0.440  0.00  0.00    +0.025 A 
ATOM     10  C   UNL     1      -0.823  -4.848   0.143  0.00  0.00    +0.035 A 
ATOM     11  C   UNL     1      -1.938  -4.229   0.692  0.00  0.00    +0.025 A 
ATOM     12  C   UNL     1      -2.046  -2.853   0.664  0.00  0.00    +0.025 A 
BRANCH   7  16
ATOM     13  C   UNL     1      -1.766   1.468   1.081  0.00  0.00    +0.109 C 
ATOM     14  C   UNL     1      -1.736  -0.039   1.069  0.00  0.00    +0.214 C 
ATOM     15  O   UNL     1      -2.232  -0.662   1.984  0.00  0.00    -0.276 OA
ATOM     16  N   UNL     1      -1.160  -0.693   0.042  0.00  0.00    -0.286 N 
ATOM     17  H   UNL     1      -0.824  -0.198  -0.722  0.00  0.00    +0.155 HD
ENDBRANCH   7  16
ENDBRANCH   1  10
BRANCH   4  18
ATOM     18  C   UNL     1      -2.887  -9.190  -0.147  0.00  0.00    +0.116 C 
BRANCH  18  19
ATOM     19  C   UNL     1      -2.477 -10.663  -0.193  0.00  0.00    +0.006 C 
ATOM     20  C   UNL     1      -1.551 -10.898  -1.388  0.00  0.00    +0.017 C 
ATOM     21  C   UNL     1      -1.745 -11.029   1.100  0.00  0.00    +0.017 C 
BRANCH  19  22
ATOM     22  C   UNL     1      -3.707 -11.522  -0.334  0.00  0.00    -0.040 A 
ATOM     23  C   UNL     1      -4.957 -10.935  -0.406  0.00  0.00    +0.004 A 
ATOM     24  C   UNL     1      -6.085 -11.723  -0.535  0.00  0.00    +0.001 A 
ATOM     25  C   UNL     1      -5.964 -13.099  -0.593  0.00  0.00    +0.012 A 
ATOM     26  C   UNL     1      -4.715 -13.686  -0.521  0.00  0.00    +0.055 A 
ATOM     27  C   UNL     1      -3.586 -12.898  -0.396  0.00  0.00    +0.016 A 
BRANCH  26  28
ATOM     28  C   UNL     1      -4.583 -15.186  -0.583  0.00  0.00    +0.417 C 
ATOM     29  F   UNL     1      -5.852 -15.761  -0.713  0.00  0.00    -0.166 F 
ATOM     30  F   UNL     1      -3.796 -15.540  -1.685  0.00  0.00    -0.166 F 
ATOM     31  F   UNL     1      -3.978 -15.650   0.590  0.00  0.00    -0.166 F 
ENDBRANCH  26  28
ENDBRANCH  19  22
ENDBRANCH  18  19
ENDBRANCH   4  18
TORSDOF 6
