REMARK  Name = ZINC36540834
REMARK  12 active torsions:
REMARK  status: ('A' for Active; 'I' for Inactive)
REMARK    1  A    between atoms: C_1  and  C_2
REMARK    2  A    between atoms: C_2  and  C_3
REMARK    3  A    between atoms: C_2  and  C_4
REMARK    4  A    between atoms: C_2  and  N_5
REMARK    5  A    between atoms: C_6  and  C_8
REMARK    6  A    between atoms: C_8  and  C_10
REMARK    7  A    between atoms: C_8  and  N_19
REMARK    8  A    between atoms: C_11  and  O_18
REMARK    9  A    between atoms: C_13  and  O_17
REMARK   10  A    between atoms: C_15  and  O_16
REMARK   11  A    between atoms: N_19  and  C_20
REMARK   12  A    between atoms: C_27  and  C_29
REMARK                            x       y       z     vdW  Elec       q    Type
REMARK                         _______ _______ _______ _____ _____    ______ ____
ROOT
ATOM      1  C   UNL     1       3.468  -0.353  -1.982  0.00  0.00    +0.204 C 
ENDROOT
BRANCH   1   2
ATOM      2  C   UNL     1       4.228  -1.421  -1.238  0.00  0.00    +0.065 A 
ATOM      3  C   UNL     1       5.228  -1.066  -0.345  0.00  0.00    +0.129 A 
ATOM      4  C   UNL     1       5.928  -2.049   0.339  0.00  0.00    +0.091 A 
ATOM      5  C   UNL     1       5.628  -3.386   0.130  0.00  0.00    +0.124 A 
ATOM      6  C   UNL     1       4.628  -3.741  -0.763  0.00  0.00    +0.091 A 
ATOM      7  C   UNL     1       3.925  -2.758  -1.444  0.00  0.00    +0.129 A 
BRANCH   7   8
ATOM      8  O   UNL     1       2.942  -3.106  -2.315  0.00  0.00    -0.506 OA
ATOM      9  H   UNL     1       3.249  -3.241  -3.222  0.00  0.00    +0.292 HD
ENDBRANCH   7   8
BRANCH   5  10
ATOM     10  O   UNL     1       6.314  -4.349   0.799  0.00  0.00    -0.507 OA
ATOM     11  H   UNL     1       5.919  -4.597   1.646  0.00  0.00    +0.292 HD
ENDBRANCH   5  10
BRANCH   3  12
ATOM     12  O   UNL     1       5.522   0.245  -0.140  0.00  0.00    -0.506 OA
ATOM     13  H   UNL     1       5.013   0.656   0.572  0.00  0.00    +0.292 HD
ENDBRANCH   3  12
ENDBRANCH   1   2
BRANCH   1  15
ATOM     14  N   UNL     1       1.632   0.169  -0.409  0.00  0.00    -0.309 N 
ATOM     15  C   UNL     1       2.783   0.556  -0.994  0.00  0.00    +0.239 C 
ATOM     16  O   UNL     1       3.268   1.634  -0.725  0.00  0.00    -0.273 OA
ATOM     17  H   UNL     1       1.244  -0.693  -0.624  0.00  0.00    +0.149 HD
BRANCH  14  19
ATOM     18  C   UNL     1       0.608   2.373  -0.133  0.00  0.00    +0.031 C 
ATOM     19  C   UNL     1       0.966   1.053   0.552  0.00  0.00    +0.026 C 
ATOM     20  C   UNL     1       1.904   1.327   1.728  0.00  0.00    +0.031 C 
ATOM     21  C   UNL     1      -0.310   0.381   1.063  0.00  0.00    +0.031 C 
ENDBRANCH  14  19
ENDBRANCH   1  15
BRANCH   1  22
ATOM     22  N   UNL     1       4.398   0.428  -2.800  0.00  0.00    -0.253 N 
ATOM     23  C   UNL     1       3.943   1.462  -3.537  0.00  0.00    +0.224 C 
ATOM     24  O   UNL     1       2.785   1.811  -3.441  0.00  0.00    -0.275 OA
BRANCH  22  25
ATOM     25  C   UNL     1       5.759   0.102  -2.818  0.00  0.00    +0.056 A 
ATOM     26  C   UNL     1       6.666   0.861  -2.091  0.00  0.00    +0.025 A 
ATOM     27  C   UNL     1       8.008   0.537  -2.110  0.00  0.00    +0.002 A 
ATOM     28  C   UNL     1       8.450  -0.543  -2.853  0.00  0.00    +0.002 A 
ATOM     29  C   UNL     1       7.551  -1.301  -3.579  0.00  0.00    +0.022 A 
ATOM     30  C   UNL     1       6.205  -0.985  -3.559  0.00  0.00    +0.062 A 
ATOM     31 CL   UNL     1       5.074  -1.942  -4.465  0.00  0.00    -0.082 Cl
ENDBRANCH  22  25
BRANCH  23  32
ATOM     32  C   UNL     1       4.873   2.183  -4.478  0.00  0.00    +0.076 C 
ATOM     33  C   UNL     1       4.854   1.492  -5.843  0.00  0.00    +0.013 C 
ATOM     34  C   UNL     1       5.797   2.224  -6.799  0.00  0.00    +0.001 C 
ATOM     35  C   UNL     1       5.339   3.676  -6.956  0.00  0.00    +0.000 C 
ATOM     36  C   UNL     1       5.358   4.367  -5.591  0.00  0.00    +0.001 C 
ATOM     37  C   UNL     1       4.414   3.634  -4.635  0.00  0.00    +0.013 C 
ENDBRANCH  23  32
ENDBRANCH   1  22
TORSDOF 9
