REMARK  Name = ZINC35843153
REMARK  2 active torsions:
REMARK  status: ('A' for Active; 'I' for Inactive)
REMARK    1  A    between atoms: C_1  and  C_2
REMARK    2  A    between atoms: N_21  and  C_24
REMARK                            x       y       z     vdW  Elec       q    Type
REMARK                         _______ _______ _______ _____ _____    ______ ____
ROOT
ATOM      1  C   UNL     1      -0.705   0.990  -0.310  0.00  0.00    +0.044 C 
ATOM      2  C   UNL     1      -0.670  -0.506  -0.132  0.00  0.00    -0.050 A 
ATOM      3  C   UNL     1      -0.863  -1.338  -1.219  0.00  0.00    +0.005 A 
ATOM      4  C   UNL     1      -0.834  -2.708  -1.062  0.00  0.00    +0.024 A 
ATOM      5  C   UNL     1      -0.611  -3.264   0.196  0.00  0.00    +0.039 A 
ATOM      6  C   UNL     1      -0.416  -2.417   1.282  0.00  0.00    +0.004 A 
ATOM      7  C   UNL     1      -0.441  -1.050   1.120  0.00  0.00    +0.011 A 
ATOM      8  C   UNL     1      -0.201  -3.313   2.470  0.00  0.00    +0.138 C 
ATOM      9  C   UNL     1       1.168  -3.067   3.114  0.00  0.00    +0.123 C 
ATOM     10  C   UNL     1       0.925  -3.245   4.638  0.00  0.00    +0.107 C 
ATOM     11  C   UNL     1      -0.574  -3.572   4.771  0.00  0.00    +0.071 C 
ATOM     12  N   UNL     1      -1.204  -3.066   3.520  0.00  0.00    -0.281 NA
ATOM     13  C   UNL     1      -1.343  -1.608   3.749  0.00  0.00    +0.086 C 
ATOM     14  C   UNL     1      -1.709  -1.466   5.241  0.00  0.00    +0.017 C 
ATOM     15  C   UNL     1      -1.173  -2.752   5.928  0.00  0.00    +0.021 C 
ATOM     16  C   UNL     1       1.750  -4.464   4.983  0.00  0.00    +0.232 C 
ATOM     17  O   UNL     1       1.845  -4.956   6.087  0.00  0.00    -0.274 OA
ATOM     18  N   UNL     1       2.359  -4.915   3.880  0.00  0.00    -0.210 N 
ATOM     19  C   UNL     1       2.108  -4.198   2.761  0.00  0.00    +0.233 C 
ATOM     20  O   UNL     1       2.554  -4.419   1.656  0.00  0.00    -0.274 OA
ATOM     21  C   UNL     1      -0.306  -4.712   1.926  0.00  0.00    +0.243 C 
ATOM     22  O   UNL     1      -0.199  -5.743   2.556  0.00  0.00    -0.273 OA
ATOM     23  N   UNL     1      -0.540  -4.598   0.605  0.00  0.00    -0.283 N 
ATOM     24  H   UNL     1      -0.648  -5.354   0.007  0.00  0.00    +0.155 HD
ENDROOT
BRANCH  18  25
ATOM     25  C   UNL     1       3.198  -6.039   3.883  0.00  0.00    +0.045 A 
ATOM     26  C   UNL     1       2.668  -7.301   4.121  0.00  0.00    +0.027 A 
ATOM     27  C   UNL     1       3.495  -8.407   4.123  0.00  0.00    +0.041 A 
ATOM     28  C   UNL     1       4.851  -8.260   3.888  0.00  0.00    +0.142 A 
ATOM     29  C   UNL     1       5.382  -7.002   3.650  0.00  0.00    +0.078 A 
ATOM     30  C   UNL     1       4.557  -5.893   3.642  0.00  0.00    +0.046 A 
ATOM     31 CL   UNL     1       7.083  -6.820   3.355  0.00  0.00    -0.081 Cl
ATOM     32  F   UNL     1       5.658  -9.343   3.891  0.00  0.00    -0.204 F 
ENDBRANCH  18  25
TORSDOF 1
