REMARK  Name = ZINC52900177
REMARK  8 active torsions:
REMARK  status: ('A' for Active; 'I' for Inactive)
REMARK    1  A    between atoms: C_1  and  C_2
REMARK    2  A    between atoms: N_4  and  C_5
REMARK    3  A    between atoms: C_7  and  C_15
REMARK    4  A    between atoms: C_9  and  N_11
REMARK    5  A    between atoms: C_12  and  C_14
REMARK    6  A    between atoms: N_17  and  C_18
REMARK    7  A    between atoms: C_18  and  C_19
REMARK    8  A    between atoms: C_19  and  C_20
REMARK                            x       y       z     vdW  Elec       q    Type
REMARK                         _______ _______ _______ _____ _____    ______ ____
ROOT
ATOM      1  C   UNL     1      -3.405  -5.032   0.156  0.00  0.00    +0.244 C 
ATOM      2  O   UNL     1      -4.487  -4.483   0.075  0.00  0.00    -0.270 OA
ATOM      3  N   UNL     1      -3.335  -6.375   0.243  0.00  0.00    -0.311 N 
ATOM      4  H   UNL     1      -2.472  -6.812   0.308  0.00  0.00    +0.149 HD
ENDROOT
BRANCH   1   7
ATOM      5  C   UNL     1      -1.072  -2.082   0.069  0.00  0.00    +0.036 A 
ATOM      6  C   UNL     1      -2.236  -2.835   0.067  0.00  0.00    +0.036 A 
ATOM      7  C   UNL     1      -2.166  -4.225   0.158  0.00  0.00    +0.040 A 
ATOM      8  C   UNL     1      -0.923  -4.853   0.251  0.00  0.00    +0.036 A 
ATOM      9  C   UNL     1       0.237  -4.093   0.253  0.00  0.00    +0.036 A 
ATOM     10  C   UNL     1       0.163  -2.710   0.156  0.00  0.00    +0.046 A 
BRANCH   5  14
ATOM     11  C   UNL     1      -2.173   1.484   0.562  0.00  0.00    +0.109 C 
ATOM     12  C   UNL     1      -2.154  -0.023   0.570  0.00  0.00    +0.214 C 
ATOM     13  O   UNL     1      -3.049  -0.638   1.110  0.00  0.00    -0.276 OA
ATOM     14  N   UNL     1      -1.141  -0.687  -0.022  0.00  0.00    -0.286 N 
ATOM     15  H   UNL     1      -0.461  -0.198  -0.511  0.00  0.00    +0.155 HD
ENDBRANCH   5  14
BRANCH   9  16
ATOM     16  N   UNL     1       1.484  -4.722   0.346  0.00  0.00    -0.286 N 
ATOM     17  C   UNL     1       2.487  -4.131   1.025  0.00  0.00    +0.214 C 
ATOM     18  O   UNL     1       2.337  -3.018   1.483  0.00  0.00    -0.276 OA
ATOM     19  C   UNL     1       3.796  -4.854   1.215  0.00  0.00    +0.109 C 
ATOM     20  H   UNL     1       1.626  -5.583  -0.077  0.00  0.00    +0.155 HD
ENDBRANCH   9  16
ENDBRANCH   1   7
BRANCH   3  21
ATOM     21  C   UNL     1      -4.563  -7.174   0.242  0.00  0.00    +0.109 C 
BRANCH  21  22
ATOM     22  C   UNL     1      -4.206  -8.658   0.350  0.00  0.00    +0.057 C 
BRANCH  22  23
ATOM     23  C   UNL     1      -5.469  -9.479   0.348  0.00  0.00    -0.001 A 
ATOM     24  C   UNL     1      -6.045  -9.863   1.544  0.00  0.00    +0.045 A 
ATOM     25  C   UNL     1      -7.205 -10.619   1.543  0.00  0.00    +0.124 A 
ATOM     26  C   UNL     1      -7.788 -10.991   0.344  0.00  0.00    +0.047 A 
ATOM     27  C   UNL     1      -7.214 -10.609  -0.854  0.00  0.00    +0.023 A 
ATOM     28  C   UNL     1      -6.057  -9.846  -0.854  0.00  0.00    +0.132 A 
ATOM     29  O   UNL     1      -5.489  -9.451  -2.026  0.00  0.00    -0.466 OA
ATOM     30  C   UNL     1      -5.907 -10.137  -3.210  0.00  0.00    +0.394 C 
ATOM     31  O   UNL     1      -7.338 -10.210  -3.216  0.00  0.00    -0.339 OA
ATOM     32  C   UNL     1      -7.855 -11.024  -2.154  0.00  0.00    +0.202 C 
ATOM     33  F   UNL     1      -7.768 -10.994   2.712  0.00  0.00    -0.205 F 
ENDBRANCH  22  23
ENDBRANCH  21  22
ENDBRANCH   3  21
TORSDOF 6
