REMARK  Name = ZINC05785627
REMARK  10 active torsions:
REMARK  status: ('A' for Active; 'I' for Inactive)
REMARK    1  A    between atoms: C_1  and  C_2
REMARK    2  A    between atoms: C_2  and  C_3
REMARK    3  A    between atoms: C_3  and  C_4
REMARK    4  A    between atoms: C_4  and  C_6
REMARK    5  A    between atoms: C_4  and  O_28
REMARK    6  A    between atoms: C_6  and  C_8
REMARK    7  A    between atoms: C_6  and  O_27
REMARK    8  A    between atoms: C_13  and  O_14
REMARK    9  A    between atoms: C_22  and  O_23
REMARK   10  A    between atoms: O_23  and  C_24
REMARK                            x       y       z     vdW  Elec       q    Type
REMARK                         _______ _______ _______ _____ _____    ______ ____
ROOT
ATOM      1  C   UNL     1       2.505   4.256  -0.280  0.00  0.00    +0.025 A 
ATOM      2  C   UNL     1       3.679   3.583  -0.007  0.00  0.00    +0.010 A 
ATOM      3  C   UNL     1       3.665   2.226   0.272  0.00  0.00    +0.013 A 
ATOM      4  C   UNL     1       2.461   1.530   0.278  0.00  0.00    +0.037 A 
ATOM      5  C   UNL     1       1.260   2.210   0.002  0.00  0.00    +0.075 A 
ATOM      6  C   UNL     1       1.288   3.579  -0.278  0.00  0.00    +0.134 A 
ATOM      7  C   UNL     1      -0.018   1.472   0.010  0.00  0.00    +0.202 C 
ATOM      8  O   UNL     1      -1.075   2.072   0.018  0.00  0.00    -0.286 OA
ATOM      9  C   UNL     1       0.002  -0.004   0.002  0.00  0.00    +0.075 A 
ATOM     10  C   UNL     1       1.202  -0.688   0.277  0.00  0.00    +0.037 A 
ATOM     11  C   UNL     1       1.223  -2.077   0.269  0.00  0.00    +0.012 A 
ATOM     12  C   UNL     1       0.064  -2.785  -0.010  0.00  0.00    +0.004 A 
ATOM     13  C   UNL     1      -1.116  -2.122  -0.279  0.00  0.00    +0.046 A 
ATOM     14  C   UNL     1      -1.158  -0.730  -0.276  0.00  0.00    +0.132 A 
ATOM     15  C   UNL     1       2.431   0.081   0.572  0.00  0.00    +0.195 C 
ATOM     16  O   UNL     1       3.402  -0.470   1.050  0.00  0.00    -0.287 OA
ENDROOT
BRANCH   6  17
ATOM     17  O   UNL     1       0.137   4.244  -0.546  0.00  0.00    -0.506 OA
ATOM     18  H   UNL     1      -0.294   4.614   0.236  0.00  0.00    +0.292 HD
ENDBRANCH   6  17
BRANCH  14  19
ATOM     19  O   UNL     1      -2.320  -0.083  -0.542  0.00  0.00    -0.494 OA
ATOM     20  C   UNL     1      -3.465  -0.892  -0.818  0.00  0.00    +0.277 C 
ENDBRANCH  14  19
BRANCH   1  21
ATOM     21  C   UNL     1       2.540   5.732  -0.581  0.00  0.00    +0.176 C 
BRANCH  21  22
ATOM     22  O   UNL     1       3.827   6.083  -1.093  0.00  0.00    -0.384 OA
ATOM     23  H   UNL     1       4.556   5.899  -0.485  0.00  0.00    +0.210 HD
ENDBRANCH  21  22
BRANCH  21  24
ATOM     24  C   UNL     1       2.268   6.521   0.701  0.00  0.00    +0.148 C 
BRANCH  24  25
ATOM     25  O   UNL     1       0.981   6.170   1.213  0.00  0.00    -0.389 OA
ATOM     26  H   UNL     1       0.253   6.354   0.605  0.00  0.00    +0.210 HD
ENDBRANCH  24  25
BRANCH  24  27
ATOM     27  C   UNL     1       2.304   8.019   0.395  0.00  0.00    +0.034 C 
BRANCH  27  29
ATOM     28  C   UNL     1       2.193  10.308   1.391  0.00  0.00    +0.004 C 
ATOM     29  C   UNL     1       2.157   8.809   1.697  0.00  0.00    -0.001 C 
ENDBRANCH  27  29
ENDBRANCH  24  27
ENDBRANCH  21  24
ENDBRANCH   1  21
TORSDOF 8
