REMARK  Name = ZINC67373874
REMARK  5 active torsions:
REMARK  status: ('A' for Active; 'I' for Inactive)
REMARK    1  A    between atoms: C_6  and  C_7
REMARK    2  A    between atoms: C_7  and  C_9
REMARK    3  A    between atoms: C_7  and  O_23
REMARK    4  A    between atoms: N_12  and  C_15
REMARK    5  A    between atoms: C_16  and  C_21
REMARK                            x       y       z     vdW  Elec       q    Type
REMARK                         _______ _______ _______ _____ _____    ______ ____
ROOT
ATOM      1  C   UNL     1      -1.607  -1.075   1.484  0.00  0.00    +0.025 C 
ATOM      2  C   UNL     1      -1.718   0.141   2.406  0.00  0.00    +0.025 C 
ATOM      3  C   UNL     1      -2.093  -0.325   3.816  0.00  0.00    +0.106 C 
ATOM      4  N   UNL     1      -3.316  -1.135   3.737  0.00  0.00    -0.322 N 
ATOM      5  C   UNL     1      -3.348  -2.276   2.812  0.00  0.00    +0.106 C 
ATOM      6  C   UNL     1      -2.959  -1.789   1.413  0.00  0.00    +0.025 C 
ENDROOT
BRANCH   4   7
ATOM      7  C   UNL     1      -4.415  -0.830   4.517  0.00  0.00    +0.107 A 
ATOM      8  C   UNL     1      -4.726  -1.286   5.799  0.00  0.00    +0.118 A 
ATOM      9  C   UNL     1      -5.922  -0.783   6.314  0.00  0.00    +0.157 A 
ATOM     10  N   UNL     1      -6.601   0.038   5.561  0.00  0.00    -0.196 NA
ATOM     11  S   UNL     1      -5.701   0.188   4.161  0.00  0.00    +0.030 S 
ATOM     12 CL   UNL     1      -6.484  -1.232   7.894  0.00  0.00    -0.060 Cl
BRANCH   8  13
ATOM     13  C   UNL     1      -3.890  -2.195   6.525  0.00  0.00    +0.105 C 
ATOM     14  N   UNL     1      -3.227  -2.916   7.100  0.00  0.00    -0.191 NA
ENDBRANCH   8  13
ENDBRANCH   4   7
BRANCH   1  15
ATOM     15  C   UNL     1      -1.198  -0.618   0.083  0.00  0.00    +0.148 C 
BRANCH  15  21
ATOM     16  C   UNL     1       0.183   1.462   0.258  0.00  0.00    +0.007 A 
ATOM     17  C   UNL     1       1.404   2.107   0.322  0.00  0.00    +0.020 A 
ATOM     18  C   UNL     1       2.576   1.374   0.280  0.00  0.00    +0.041 A 
ATOM     19  C   UNL     1       2.526  -0.004   0.174  0.00  0.00    +0.020 A 
ATOM     20  C   UNL     1       1.305  -0.648   0.111  0.00  0.00    +0.007 A 
ATOM     21  C   UNL     1       0.133   0.085   0.152  0.00  0.00    -0.019 A 
ATOM     22 CL   UNL     1       4.110   2.184   0.360  0.00  0.00    -0.084 Cl
ENDBRANCH  15  21
BRANCH  15  23
ATOM     23  O   UNL     1      -1.093  -1.754  -0.778  0.00  0.00    -0.387 OA
ATOM     24  H   UNL     1      -0.440  -2.406  -0.489  0.00  0.00    +0.210 HD
ENDBRANCH  15  23
ENDBRANCH   1  15
TORSDOF 5
