REMARK  Name = ZINC01452765
REMARK  8 active torsions:
REMARK  status: ('A' for Active; 'I' for Inactive)
REMARK    1  A    between atoms: C_1  and  O_2
REMARK    2  A    between atoms: O_2  and  C_3
REMARK    3  A    between atoms: C_8  and  O_9
REMARK    4  A    between atoms: O_9  and  C_10
REMARK    5  A    between atoms: C_14  and  C_16
REMARK    6  A    between atoms: C_17  and  N_32
REMARK    7  A    between atoms: N_18  and  C_25
REMARK    8  A    between atoms: C_25  and  C_26
REMARK                            x       y       z     vdW  Elec       q    Type
REMARK                         _______ _______ _______ _____ _____    ______ ____
ROOT
ATOM      1  C   UNL     1      -1.206   2.040  -0.011  0.00  0.00    +0.099 A 
ATOM      2  C   UNL     1      -0.022   1.373   0.137  0.00  0.00    +0.113 A 
ATOM      3  N   UNL     1       1.155   2.081   0.157  0.00  0.00    -0.277 N 
ATOM      4  C   UNL     1       1.144   3.422   0.037  0.00  0.00    +0.331 A 
ATOM      5  O   UNL     1       2.195   4.033   0.057  0.00  0.00    -0.246 OA
ATOM      6  N   UNL     1      -0.012   4.095  -0.104  0.00  0.00    -0.274 N 
ATOM      7  H   UNL     1       0.002   5.091  -0.191  0.00  0.00    +0.173 HD
ATOM      8  C   UNL     1      -1.189   3.439  -0.129  0.00  0.00    +0.263 A 
ATOM      9  O   UNL     1      -2.233   4.056  -0.257  0.00  0.00    -0.267 OA
ENDROOT
BRANCH   1  19
ATOM     10  C   UNL     1      -5.281   2.483   2.958  0.00  0.00    +0.162 A 
ATOM     11  C   UNL     1      -4.103   1.919   3.418  0.00  0.00    +0.050 A 
ATOM     12  C   UNL     1      -3.135   1.495   2.521  0.00  0.00    +0.012 A 
ATOM     13  C   UNL     1      -3.338   1.634   1.169  0.00  0.00    +0.015 A 
ATOM     14  C   UNL     1      -4.522   2.202   0.685  0.00  0.00    +0.111 A 
ATOM     15  C   UNL     1      -5.500   2.629   1.592  0.00  0.00    +0.176 A 
ATOM     16  C   UNL     1      -4.454   2.217  -0.784  0.00  0.00    +0.344 C 
ATOM     17  O   UNL     1      -5.324   2.646  -1.516  0.00  0.00    -0.245 OA
ATOM     18  O   UNL     1      -3.291   1.688  -1.201  0.00  0.00    -0.448 OA
ATOM     19  C   UNL     1      -2.510   1.286  -0.043  0.00  0.00    +0.247 C 
BRANCH  10  21
ATOM     20  C   UNL     1      -5.937   2.716   5.233  0.00  0.00    +0.277 C 
ATOM     21  O   UNL     1      -6.227   2.895   3.845  0.00  0.00    -0.491 OA
ENDBRANCH  10  21
BRANCH  15  22
ATOM     22  O   UNL     1      -6.655   3.181   1.141  0.00  0.00    -0.491 OA
ATOM     23  C   UNL     1      -6.669   4.599   0.962  0.00  0.00    +0.277 C 
ENDBRANCH  15  22
ENDBRANCH   1  19
BRANCH   2  24
ATOM     24  N   UNL     1      -0.009   0.006   0.258  0.00  0.00    -0.344 N 
ATOM     25  H   UNL     1       0.835  -0.472   0.265  0.00  0.00    +0.144 HD
ATOM     26  H   UNL     1      -0.844  -0.481   0.337  0.00  0.00    +0.144 HD
ENDBRANCH   2  24
BRANCH   3  27
ATOM     27  C   UNL     1       2.428   1.374   0.309  0.00  0.00    +0.164 C 
BRANCH  27  28
ATOM     28  C   UNL     1       2.965   1.007  -1.051  0.00  0.00    -0.009 A 
ATOM     29  C   UNL     1       2.635  -0.209  -1.631  0.00  0.00    +0.008 A 
ATOM     30  C   UNL     1       3.147  -0.502  -2.885  0.00  0.00    +0.020 A 
ATOM     31  C   UNL     1       3.973   0.415  -3.506  0.00  0.00    +0.111 A 
ATOM     32  N   UNL     1       4.270   1.560  -2.922  0.00  0.00    -0.263 NA
ATOM     33  C   UNL     1       3.796   1.875  -1.732  0.00  0.00    +0.116 A 
ENDBRANCH  27  28
ENDBRANCH   3  27
TORSDOF 6
