REMARK  Name = ZINC40781110
REMARK  5 active torsions:
REMARK  status: ('A' for Active; 'I' for Inactive)
REMARK    1  A    between atoms: C_4  and  C_7
REMARK    2  A    between atoms: C_7  and  N_8
REMARK    3  A    between atoms: C_16  and  N_28
REMARK    4  A    between atoms: C_17  and  N_21
REMARK    5  A    between atoms: N_21  and  C_22
REMARK                            x       y       z     vdW  Elec       q    Type
REMARK                         _______ _______ _______ _____ _____    ______ ____
ROOT
ATOM      1  N   UNL     1       4.641  -1.958   2.394  0.00  0.00    -0.264 N 
ATOM      2  C   UNL     1       4.774  -3.223   2.959  0.00  0.00    +0.127 A 
ATOM      3  C   UNL     1       4.063  -4.294   2.428  0.00  0.00    +0.044 A 
ATOM      4  C   UNL     1       4.204  -5.545   2.999  0.00  0.00    +0.005 A 
ATOM      5  C   UNL     1       5.055  -5.684   4.088  0.00  0.00    +0.020 A 
ATOM      6  C   UNL     1       5.730  -4.578   4.564  0.00  0.00    +0.113 A 
ATOM      7  N   UNL     1       5.580  -3.397   3.995  0.00  0.00    -0.240 NA
ATOM      8  C   UNL     1       5.475  -0.923   2.803  0.00  0.00    +0.153 A 
ATOM      9  C   UNL     1       6.649  -0.638   2.101  0.00  0.00    +0.104 A 
ATOM     10  C   UNL     1       7.449   0.412   2.554  0.00  0.00    +0.126 A 
ATOM     11  N   UNL     1       7.067   1.097   3.629  0.00  0.00    -0.333 N 
ATOM     12  C   UNL     1       5.952   0.796   4.263  0.00  0.00    +0.200 A 
ATOM     13  N   UNL     1       5.165  -0.184   3.866  0.00  0.00    -0.220 NA
ATOM     14  H   UNL     1       7.617   1.828   3.951  0.00  0.00    +0.168 HD
ENDROOT
BRANCH   9  15
ATOM     15  N   UNL     1       7.013  -1.388   0.972  0.00  0.00    -0.353 N 
ATOM     16  H   UNL     1       6.407  -2.058   0.618  0.00  0.00    +0.143 HD
ATOM     17  H   UNL     1       7.870  -1.236   0.545  0.00  0.00    +0.143 HD
ENDBRANCH   9  15
BRANCH  10  18
ATOM     18  N   UNL     1       8.628   0.737   1.892  0.00  0.00    -0.299 N 
ATOM     19  H   UNL     1       8.855   0.294   1.059  0.00  0.00    +0.154 HD
BRANCH  18  20
ATOM     20  C   UNL     1       9.486   1.702   2.427  0.00  0.00    +0.032 A 
ATOM     21  C   UNL     1       9.726   1.739   3.795  0.00  0.00    +0.023 A 
ATOM     22  C   UNL     1      10.575   2.693   4.320  0.00  0.00    +0.002 A 
ATOM     23  C   UNL     1      11.186   3.611   3.486  0.00  0.00    +0.000 A 
ATOM     24  C   UNL     1      10.949   3.578   2.123  0.00  0.00    +0.002 A 
ATOM     25  C   UNL     1      10.107   2.622   1.591  0.00  0.00    +0.023 A 
ENDBRANCH  18  20
ENDBRANCH  10  18
BRANCH   1  26
ATOM     26  C   UNL     1       3.623  -1.717   1.369  0.00  0.00    +0.149 C 
BRANCH  26  30
ATOM     27  C   UNL     1      -0.015  -0.481   3.235  0.00  0.00    +0.000 A 
ATOM     28  C   UNL     1       0.922   0.462   2.856  0.00  0.00    +0.000 A 
ATOM     29  C   UNL     1       2.100   0.062   2.253  0.00  0.00    +0.005 A 
ATOM     30  C   UNL     1       2.340  -1.281   2.028  0.00  0.00    -0.030 A 
ATOM     31  C   UNL     1       1.403  -2.224   2.408  0.00  0.00    +0.005 A 
ATOM     32  C   UNL     1       0.225  -1.823   3.010  0.00  0.00    +0.000 A 
ENDBRANCH  26  30
ENDBRANCH   1  26
TORSDOF 5
