REMARK  Name = ZINC20693920
REMARK  6 active torsions:
REMARK  status: ('A' for Active; 'I' for Inactive)
REMARK    1  A    between atoms: C_1  and  C_2
REMARK    2  A    between atoms: C_5  and  N_27
REMARK    3  A    between atoms: C_9  and  C_18
REMARK    4  A    between atoms: C_22  and  O_25
REMARK    5  A    between atoms: C_23  and  O_24
REMARK    6  A    between atoms: O_25  and  C_26
REMARK                            x       y       z     vdW  Elec       q    Type
REMARK                         _______ _______ _______ _____ _____    ______ ____
ROOT
ATOM      1  C   UNL     1       1.807   8.194   1.413  0.00  0.00    +0.045 C 
ATOM      2  C   UNL     1       2.970   7.873   0.510  0.00  0.00    -0.029 A 
ATOM      3  C   UNL     1       3.799   8.887   0.082  0.00  0.00    +0.007 A 
ATOM      4  C   UNL     1       4.870   8.607  -0.746  0.00  0.00    +0.033 A 
ATOM      5  C   UNL     1       5.110   7.304  -1.138  0.00  0.00    +0.132 A 
ATOM      6  C   UNL     1       4.288   6.283  -0.710  0.00  0.00    +0.011 A 
ATOM      7  C   UNL     1       3.195   6.553   0.118  0.00  0.00    +0.037 A 
ATOM      8  N   UNL     1       2.294   5.586   0.561  0.00  0.00    -0.336 N 
ATOM      9  C   UNL     1       2.591   4.190   0.203  0.00  0.00    +0.109 C 
ATOM     10  C   UNL     1       3.127   4.198  -1.213  0.00  0.00    +0.029 C 
ATOM     11  C   UNL     1       4.528   4.876  -1.100  0.00  0.00    +0.051 C 
ATOM     12  C   UNL     1       5.187   4.502  -2.376  0.00  0.00    -0.023 C 
ATOM     13  C   UNL     1       4.683   3.343  -2.786  0.00  0.00    -0.030 C 
ATOM     14  C   UNL     1       3.602   2.869  -1.811  0.00  0.00    +0.033 C 
ATOM     15  H   UNL     1       1.397   5.824   1.151  0.00  0.00    +0.147 HD
ENDROOT
BRANCH   9  16
ATOM     16  C   UNL     1       1.333   3.363   0.271  0.00  0.00    +0.018 A 
ATOM     17  C   UNL     1       0.650   3.047  -0.888  0.00  0.00    +0.009 A 
ATOM     18  C   UNL     1      -0.505   2.289  -0.829  0.00  0.00    +0.004 A 
ATOM     19  C   UNL     1      -0.979   1.840   0.390  0.00  0.00    +0.049 A 
ATOM     20  C   UNL     1      -0.302   2.158   1.556  0.00  0.00    +0.162 A 
ATOM     21  C   UNL     1       0.861   2.921   1.496  0.00  0.00    +0.163 A 
BRANCH  21  22
ATOM     22  O   UNL     1       1.532   3.231   2.638  0.00  0.00    -0.503 OA
ATOM     23  H   UNL     1       1.156   2.878   3.610  0.00  0.00    +0.292 HD
ENDBRANCH  21  22
BRANCH  20  24
ATOM     24  O   UNL     1      -0.769   1.720   2.756  0.00  0.00    -0.491 OA
ATOM     25  C   UNL     1      -1.968   0.943   2.741  0.00  0.00    +0.277 C 
ENDBRANCH  20  24
ENDBRANCH   9  16
BRANCH   5  26
ATOM     26  N   UNL     1       6.257   7.002  -2.023  0.00  0.00    +0.057 N 
ATOM     27  O   UNL     1       7.046   6.125  -1.720  0.00  0.00    -0.126 OA
ATOM     28  O   UNL     1       6.411   7.630  -3.055  0.00  0.00    -0.126 OA
ENDBRANCH   5  26
TORSDOF 4
