REMARK  Name = ZINC52529188
REMARK  7 active torsions:
REMARK  status: ('A' for Active; 'I' for Inactive)
REMARK    1  A    between atoms: C_1  and  N_2
REMARK    2  A    between atoms: C_6  and  N_7
REMARK    3  A    between atoms: N_7  and  C_8
REMARK    4  A    between atoms: C_13  and  S_14
REMARK    5  A    between atoms: S_14  and  C_15
REMARK    6  A    between atoms: C_15  and  C_16
REMARK    7  A    between atoms: N_21  and  C_24
REMARK                            x       y       z     vdW  Elec       q    Type
REMARK                         _______ _______ _______ _____ _____    ______ ____
ROOT
ATOM      1  N   UNL     1       0.150  -4.209  -2.283  0.00  0.00    -0.319 N 
ATOM      2  H   UNL     1       0.161  -4.664  -1.426  0.00  0.00    +0.152 HD
ENDROOT
BRANCH   1   8
ATOM      3  C   UNL     1       0.047   1.462   0.008  0.00  0.00    +0.143 C 
ATOM      4  N   UNL     1       0.040  -0.003   0.001  0.00  0.00    -0.224 N 
ATOM      5  C   UNL     1       0.039  -0.656  -1.180  0.00  0.00    +0.260 C 
ATOM      6  O   UNL     1       0.043  -0.045  -2.232  0.00  0.00    -0.269 OA
ATOM      7  C   UNL     1       0.032  -2.129  -1.160  0.00  0.00    +0.113 C 
ATOM      8  C   UNL     1       0.030  -2.867  -2.331  0.00  0.00    +0.090 C 
ATOM      9  C   UNL     1       0.027  -2.783   0.160  0.00  0.00    +0.260 C 
ATOM     10  O   UNL     1       0.022  -3.996   0.257  0.00  0.00    -0.269 OA
ATOM     11  N   UNL     1       0.029  -2.001   1.259  0.00  0.00    -0.224 N 
ATOM     12  C   UNL     1       0.041  -0.664   1.167  0.00  0.00    +0.317 C 
ATOM     13  O   UNL     1       0.048  -0.016   2.195  0.00  0.00    -0.252 OA
ATOM     14  C   UNL     1       0.025  -2.627   2.583  0.00  0.00    +0.143 C 
ENDBRANCH   1   8
BRANCH   1  15
ATOM     15  C   UNL     1       0.261  -4.944  -3.468  0.00  0.00    +0.045 A 
ATOM     16  C   UNL     1       0.252  -4.295  -4.693  0.00  0.00    +0.024 A 
ATOM     17  C   UNL     1       0.361  -5.024  -5.863  0.00  0.00    +0.002 A 
ATOM     18  C   UNL     1       0.478  -6.401  -5.816  0.00  0.00    +0.001 A 
ATOM     19  C   UNL     1       0.487  -7.058  -4.600  0.00  0.00    +0.016 A 
ATOM     20  C   UNL     1       0.385  -6.334  -3.420  0.00  0.00    +0.029 A 
BRANCH  20  21
ATOM     21  S   UNL     1       0.404  -7.167  -1.868  0.00  0.00    -0.114 S 
BRANCH  21  22
ATOM     22  C   UNL     1       0.580  -8.917  -2.311  0.00  0.00    +0.169 C 
BRANCH  22  23
ATOM     23  C   UNL     1       0.610  -9.752  -1.057  0.00  0.00    +0.221 C 
ATOM     24  O   UNL     1       0.522  -9.220   0.029  0.00  0.00    -0.275 OA
ATOM     25  N   UNL     1       0.735 -11.092  -1.143  0.00  0.00    -0.329 N 
ATOM     26  H   UNL     1       0.805 -11.518  -2.011  0.00  0.00    +0.145 HD
ATOM     27  H   UNL     1       0.754 -11.629  -0.335  0.00  0.00    +0.145 HD
ENDBRANCH  22  23
ENDBRANCH  21  22
ENDBRANCH  20  21
ENDBRANCH   1  15
TORSDOF 5
