REMARK  Name = ZINC08780235
REMARK  10 active torsions:
REMARK  status: ('A' for Active; 'I' for Inactive)
REMARK    1  A    between atoms: C_4  and  N_22
REMARK    2  A    between atoms: C_5  and  C_7
REMARK    3  A    between atoms: C_7  and  O_9
REMARK    4  A    between atoms: O_9  and  C_10
REMARK    5  A    between atoms: C_10  and  C_11
REMARK    6  A    between atoms: N_13  and  C_14
REMARK    7  A    between atoms: C_15  and  C_19
REMARK    8  A    between atoms: N_22  and  C_23
REMARK    9  A    between atoms: C_23  and  C_24
REMARK   10  A    between atoms: C_24  and  C_25
REMARK                            x       y       z     vdW  Elec       q    Type
REMARK                         _______ _______ _______ _____ _____    ______ ____
ROOT
ATOM      1  C   UNL     1      -1.943   2.679   3.512  0.00  0.00    +0.341 C 
ATOM      2  O   UNL     1      -2.436   2.906   2.425  0.00  0.00    -0.245 OA
ENDROOT
BRANCH   1   7
ATOM      3  C   UNL     1       0.766   0.537   4.978  0.00  0.00    +0.001 A 
ATOM      4  C   UNL     1       1.357   0.023   3.834  0.00  0.00    +0.002 A 
ATOM      5  C   UNL     1       0.878   0.363   2.586  0.00  0.00    +0.024 A 
ATOM      6  C   UNL     1      -0.197   1.236   2.467  0.00  0.00    +0.041 A 
ATOM      7  C   UNL     1      -0.798   1.758   3.623  0.00  0.00    +0.080 A 
ATOM      8  C   UNL     1      -0.304   1.399   4.881  0.00  0.00    +0.017 A 
BRANCH   6   9
ATOM      9  N   UNL     1      -0.677   1.584   1.212  0.00  0.00    -0.343 N 
ATOM     10  H   UNL     1      -1.478   2.126   1.133  0.00  0.00    +0.146 HD
BRANCH   9  11
ATOM     11  C   UNL     1       0.025   1.134   0.008  0.00  0.00    +0.106 C 
BRANCH  11  12
ATOM     12  C   UNL     1      -0.706   1.652  -1.232  0.00  0.00    +0.049 C 
BRANCH  12  13
ATOM     13  C   UNL     1       0.017   1.189  -2.471  0.00  0.00    -0.072 C 
ATOM     14  C   UNL     1      -0.396   0.105  -3.045  0.00  0.00    -0.028 C 
ATOM     15  C   UNL     1       0.228  -0.484  -4.277  0.00  0.00    +0.027 C 
ATOM     16  C   UNL     1       1.099   0.561  -4.978  0.00  0.00    +0.004 C 
ATOM     17  C   UNL     1       2.025   1.199  -3.935  0.00  0.00    +0.005 C 
ATOM     18  C   UNL     1       1.167   2.017  -2.966  0.00  0.00    +0.030 C 
ENDBRANCH  12  13
ENDBRANCH  11  12
ENDBRANCH   9  11
ENDBRANCH   6   9
ENDBRANCH   1   7
BRANCH   1  19
ATOM     19  O   UNL     1      -2.443   3.269   4.616  0.00  0.00    -0.452 OA
BRANCH  19  20
ATOM     20  C   UNL     1      -3.571   4.164   4.431  0.00  0.00    +0.328 C 
BRANCH  20  21
ATOM     21  C   UNL     1      -3.990   4.725   5.766  0.00  0.00    +0.255 C 
ATOM     22  O   UNL     1      -3.397   4.403   6.773  0.00  0.00    -0.272 OA
ATOM     23  N   UNL     1      -5.025   5.586   5.839  0.00  0.00    -0.277 N 
ATOM     24  H   UNL     1      -5.499   5.844   5.034  0.00  0.00    +0.155 HD
BRANCH  23  25
ATOM     25  C   UNL     1      -5.411   6.103   7.067  0.00  0.00    +0.084 A 
ATOM     26  C   UNL     1      -6.438   6.997   7.343  0.00  0.00    +0.065 A 
ATOM     27  C   UNL     1      -6.623   7.367   8.726  0.00  0.00    +0.022 A 
ATOM     28  C   UNL     1      -5.782   6.824   9.624  0.00  0.00    +0.048 A 
ATOM     29  S   UNL     1      -4.725   5.795   8.627  0.00  0.00    -0.081 S 
BRANCH  26  30
ATOM     30  C   UNL     1      -7.294   7.536   6.281  0.00  0.00    +0.244 C 
ATOM     31  O   UNL     1      -7.114   7.202   5.125  0.00  0.00    -0.270 OA
ATOM     32  N   UNL     1      -8.281   8.402   6.586  0.00  0.00    -0.325 N 
ATOM     33  H   UNL     1      -8.424   8.669   7.508  0.00  0.00    +0.145 HD
ATOM     34  H   UNL     1      -8.847   8.759   5.884  0.00  0.00    +0.145 HD
ENDBRANCH  26  30
ENDBRANCH  23  25
ENDBRANCH  20  21
ENDBRANCH  19  20
ENDBRANCH   1  19
TORSDOF 10
