REMARK  Name = ZINC54477799
REMARK  12 active torsions:
REMARK  status: ('A' for Active; 'I' for Inactive)
REMARK    1  A    between atoms: C_1  and  C_2
REMARK    2  A    between atoms: C_2  and  C_3
REMARK    3  A    between atoms: C_3  and  C_5
REMARK    4  A    between atoms: C_3  and  N_6
REMARK    5  A    between atoms: C_7  and  C_9
REMARK    6  A    between atoms: C_12  and  N_15
REMARK    7  A    between atoms: N_18  and  C_19
REMARK    8  A    between atoms: C_19  and  C_21
REMARK    9  A    between atoms: C_19  and  C_22
REMARK   10  A    between atoms: C_22  and  C_23
REMARK   11  A    between atoms: C_23  and  C_24
REMARK   12  A    between atoms: C_27  and  O_30
REMARK                            x       y       z     vdW  Elec       q    Type
REMARK                         _______ _______ _______ _____ _____    ______ ____
ROOT
ATOM      1  N   UNL     1      -5.919   1.380   6.186  0.00  0.00    -0.269 N 
ATOM      2  C   UNL     1      -7.251   1.582   6.224  0.00  0.00    +0.304 C 
ATOM      3  O   UNL     1      -7.928   1.367   5.237  0.00  0.00    -0.253 OA
ATOM      4  N   UNL     1      -7.834   2.022   7.358  0.00  0.00    -0.297 N 
ATOM      5  H   UNL     1      -5.389   1.487   6.991  0.00  0.00    +0.156 HD
ATOM      6  H   UNL     1      -7.294   2.193   8.145  0.00  0.00    +0.151 HD
ENDROOT
BRANCH   1  10
ATOM      7  C   UNL     1      -4.080   0.296   2.609  0.00  0.00    +0.037 A 
ATOM      8  C   UNL     1      -5.363  -0.172   2.907  0.00  0.00    +0.015 A 
ATOM      9  C   UNL     1      -5.968   0.188   4.090  0.00  0.00    +0.024 A 
ATOM     10  C   UNL     1      -5.304   1.017   4.989  0.00  0.00    +0.035 A 
ATOM     11  C   UNL     1      -4.027   1.485   4.695  0.00  0.00    +0.024 A 
ATOM     12  C   UNL     1      -3.414   1.123   3.517  0.00  0.00    +0.015 A 
BRANCH   7  14
ATOM     13  N   UNL     1      -4.073  -0.887   0.468  0.00  0.00    -0.309 N 
ATOM     14  C   UNL     1      -3.428  -0.089   1.342  0.00  0.00    +0.244 C 
ATOM     15  O   UNL     1      -2.310   0.314   1.087  0.00  0.00    -0.270 OA
ATOM     16  H   UNL     1      -4.965  -1.209   0.672  0.00  0.00    +0.149 HD
BRANCH  13  17
ATOM     17  C   UNL     1      -3.426  -1.269  -0.789  0.00  0.00    +0.070 C 
ATOM     18  C   UNL     1      -3.662  -0.179  -1.836  0.00  0.00    +0.028 C 
BRANCH  17  20
ATOM     19  C   UNL     1      -3.671  -3.707  -0.299  0.00  0.00    +0.005 C 
ATOM     20  C   UNL     1      -4.016  -2.590  -1.286  0.00  0.00    +0.018 C 
ENDBRANCH  17  20
ENDBRANCH  13  17
ENDBRANCH   7  14
ENDBRANCH   1  10
BRANCH   4  21
ATOM     21  C   UNL     1      -9.281   2.241   7.400  0.00  0.00    +0.072 C 
ATOM     22  C   UNL     1      -9.601   3.639   6.866  0.00  0.00    +0.028 C 
BRANCH  21  23
ATOM     23  C   UNL     1      -9.774   2.121   8.843  0.00  0.00    +0.026 C 
BRANCH  23  24
ATOM     24  C   UNL     1      -9.567   0.687   9.335  0.00  0.00    +0.037 C 
BRANCH  24  25
ATOM     25  C   UNL     1     -10.052   0.569  10.757  0.00  0.00    -0.047 A 
ATOM     26  C   UNL     1      -9.184   0.814  11.805  0.00  0.00    +0.007 A 
ATOM     27  C   UNL     1      -9.626   0.706  13.109  0.00  0.00    +0.045 A 
ATOM     28  C   UNL     1     -10.942   0.352  13.367  0.00  0.00    +0.117 A 
ATOM     29  C   UNL     1     -11.811   0.107  12.314  0.00  0.00    +0.045 A 
ATOM     30  C   UNL     1     -11.366   0.222  11.012  0.00  0.00    +0.007 A 
BRANCH  28  31
ATOM     31  O   UNL     1     -11.379   0.244  14.650  0.00  0.00    -0.507 OA
ATOM     32  H   UNL     1     -11.736   1.066  15.014  0.00  0.00    +0.292 HD
ENDBRANCH  28  31
ENDBRANCH  24  25
ENDBRANCH  23  24
ENDBRANCH  21  23
ENDBRANCH   4  21
TORSDOF 9
