REMARK  Name = ZINC08934995
REMARK  10 active torsions:
REMARK  status: ('A' for Active; 'I' for Inactive)
REMARK    1  A    between atoms: C_1  and  N_2
REMARK    2  A    between atoms: N_2  and  C_3
REMARK    3  A    between atoms: N_2  and  C_4
REMARK    4  A    between atoms: C_7  and  C_10
REMARK    5  A    between atoms: C_11  and  C_12
REMARK    6  A    between atoms: C_11  and  N_28
REMARK    7  A    between atoms: N_14  and  N_15
REMARK    8  A    between atoms: C_16  and  C_17
REMARK    9  A    between atoms: C_26  and  O_27
REMARK   10  A    between atoms: C_29  and  C_31
REMARK                            x       y       z     vdW  Elec       q    Type
REMARK                         _______ _______ _______ _____ _____    ______ ____
ROOT
ATOM      1  C   UNL     1       1.448  11.188   0.021  0.00  0.00    +0.036 C 
ATOM      2  C   UNL     1       1.328   9.848  -0.144  0.00  0.00    +0.098 C 
ENDROOT
BRANCH   1   6
ATOM      3  C   UNL     1      -1.893  13.479   1.277  0.00  0.00    +0.029 A 
ATOM      4  C   UNL     1      -1.734  12.175   1.737  0.00  0.00    +0.023 A 
ATOM      5  C   UNL     1      -0.651  11.428   1.332  0.00  0.00    +0.010 A 
ATOM      6  C   UNL     1       0.290  11.982   0.456  0.00  0.00    -0.023 A 
ATOM      7  C   UNL     1       0.129  13.296  -0.000  0.00  0.00    +0.010 A 
ATOM      8  C   UNL     1      -0.960  14.033   0.406  0.00  0.00    +0.023 A 
BRANCH   3  10
ATOM      9  C   UNL     1      -3.974  13.651   2.606  0.00  0.00    +0.129 C 
ATOM     10  N   UNL     1      -2.990  14.232   1.689  0.00  0.00    -0.336 N 
ATOM     11  C   UNL     1      -3.160  15.604   1.206  0.00  0.00    +0.129 C 
ENDBRANCH   3  10
ENDBRANCH   1   6
BRANCH   2  12
ATOM     12  C   UNL     1       0.009   9.212  -0.041  0.00  0.00    +0.277 C 
ATOM     13  O   UNL     1      -0.225   8.441   0.872  0.00  0.00    -0.267 OA
ATOM     14  N   UNL     1      -0.942   9.481  -0.958  0.00  0.00    -0.202 N 
ATOM     15  H   UNL     1      -0.781  10.149  -1.642  0.00  0.00    +0.178 HD
BRANCH  14  16
ATOM     16  N   UNL     1      -2.163   8.795  -0.922  0.00  0.00    -0.187 NA
ATOM     17  C   UNL     1      -3.039   8.978  -1.865  0.00  0.00    +0.142 C 
BRANCH  17  18
ATOM     18  C   UNL     1      -2.688   9.771  -3.051  0.00  0.00    +0.044 A 
ATOM     19  C   UNL     1      -1.531   9.415  -3.871  0.00  0.00    -0.006 A 
ATOM     20  C   UNL     1      -0.724   8.315  -3.557  0.00  0.00    +0.009 A 
ATOM     21  C   UNL     1       0.342   8.014  -4.351  0.00  0.00    +0.001 A 
ATOM     22  C   UNL     1       0.648   8.793  -5.465  0.00  0.00    +0.001 A 
ATOM     23  C   UNL     1      -0.116   9.870  -5.798  0.00  0.00    +0.008 A 
ATOM     24  C   UNL     1      -1.227  10.207  -5.005  0.00  0.00    -0.017 A 
ATOM     25  C   UNL     1      -2.038  11.312  -5.318  0.00  0.00    +0.012 A 
ATOM     26  C   UNL     1      -3.110  11.628  -4.545  0.00  0.00    +0.046 A 
ATOM     27  C   UNL     1      -3.450  10.880  -3.418  0.00  0.00    +0.126 A 
BRANCH  27  28
ATOM     28  O   UNL     1      -4.529  11.233  -2.674  0.00  0.00    -0.506 OA
ATOM     29  H   UNL     1      -4.344  11.911  -2.010  0.00  0.00    +0.292 HD
ENDBRANCH  27  28
ENDBRANCH  17  18
ENDBRANCH  14  16
ENDBRANCH   2  12
BRANCH   2  30
ATOM     30  N   UNL     1       2.460   9.072  -0.412  0.00  0.00    -0.277 N 
ATOM     31  C   UNL     1       2.327   7.763  -0.701  0.00  0.00    +0.248 C 
ATOM     32  O   UNL     1       1.219   7.277  -0.821  0.00  0.00    -0.270 OA
ATOM     33  H   UNL     1       3.342   9.476  -0.389  0.00  0.00    +0.155 HD
BRANCH  31  34
ATOM     34  C   UNL     1       3.527   6.917  -0.873  0.00  0.00    +0.037 A 
ATOM     35  C   UNL     1       4.797   7.447  -0.636  0.00  0.00    +0.013 A 
ATOM     36  C   UNL     1       5.913   6.651  -0.792  0.00  0.00    +0.001 A 
ATOM     37  C   UNL     1       5.776   5.334  -1.194  0.00  0.00    +0.000 A 
ATOM     38  C   UNL     1       4.521   4.804  -1.436  0.00  0.00    +0.001 A 
ATOM     39  C   UNL     1       3.396   5.588  -1.278  0.00  0.00    +0.013 A 
ENDBRANCH  31  34
ENDBRANCH   2  30
TORSDOF 8
