REMARK  Name = ZINC40681436
REMARK  6 active torsions:
REMARK  status: ('A' for Active; 'I' for Inactive)
REMARK    1  A    between atoms: C_1  and  C_2
REMARK    2  A    between atoms: C_4  and  C_24
REMARK    3  A    between atoms: C_6  and  O_8
REMARK    4  A    between atoms: O_8  and  C_9
REMARK    5  A    between atoms: C_10  and  N_23
REMARK    6  A    between atoms: C_11  and  N_15
REMARK                            x       y       z     vdW  Elec       q    Type
REMARK                         _______ _______ _______ _____ _____    ______ ____
ROOT
ATOM      1  C   UNL     1       0.105  -2.072   3.516  0.00  0.00    +0.246 A 
ATOM      2  C   UNL     1       0.249  -2.725   4.739  0.00  0.00    +0.128 A 
ATOM      3  C   UNL     1       0.366  -1.947   5.893  0.00  0.00    +0.152 A 
ATOM      4  N   UNL     1       0.334  -0.622   5.782  0.00  0.00    -0.218 NA
ATOM      5  C   UNL     1       0.196  -0.044   4.606  0.00  0.00    +0.227 A 
ATOM      6  N   UNL     1       0.089  -0.743   3.493  0.00  0.00    -0.199 NA
ENDROOT
BRANCH   3   7
ATOM      7  N   UNL     1       0.512  -2.548   7.139  0.00  0.00    -0.283 N 
ATOM      8  C   UNL     1       0.505  -1.769   8.292  0.00  0.00    +0.124 A 
ATOM      9  C   UNL     1       0.531  -2.385   9.539  0.00  0.00    +0.045 A 
ATOM     10  C   UNL     1       0.525  -1.599  10.678  0.00  0.00    +0.020 A 
ATOM     11  C   UNL     1       0.494  -0.218  10.530  0.00  0.00    +0.036 A 
ATOM     12  C   UNL     1       0.469   0.326   9.260  0.00  0.00    +0.128 A 
ATOM     13  N   UNL     1       0.481  -0.449   8.192  0.00  0.00    -0.239 NA
ATOM     14 BR   UNL     1       0.484   0.906  12.051  0.00  0.00    -0.049 Br
ATOM     15  H   UNL     1       0.618  -3.510   7.204  0.00  0.00    +0.155 HD
ENDBRANCH   3   7
BRANCH   2  16
ATOM     16  N   UNL     1       0.277  -4.127   4.809  0.00  0.00    -0.351 N 
ATOM     17  H   UNL     1       0.194  -4.654   3.999  0.00  0.00    +0.143 HD
ATOM     18  H   UNL     1       0.378  -4.567   5.667  0.00  0.00    +0.143 HD
ENDBRANCH   2  16
BRANCH   1  19
ATOM     19  O   UNL     1      -0.012  -2.781   2.365  0.00  0.00    -0.436 OA
BRANCH  19  25
ATOM     20  C   UNL     1       2.311  -0.119  -1.002  0.00  0.00    +0.044 C 
ATOM     21  C   UNL     1       1.064  -0.785  -0.479  0.00  0.00    -0.047 A 
ATOM     22  C   UNL     1      -0.117  -0.697  -1.193  0.00  0.00    +0.007 A 
ATOM     23  C   UNL     1      -1.263  -1.306  -0.716  0.00  0.00    -0.047 A 
ATOM     24  C   UNL     1      -1.231  -2.005   0.475  0.00  0.00    +0.049 A 
ATOM     25  C   UNL     1      -0.047  -2.095   1.193  0.00  0.00    +0.131 A 
ATOM     26  C   UNL     1       1.103  -1.487   0.710  0.00  0.00    +0.049 A 
ATOM     27  C   UNL     1      -2.548  -1.208  -1.497  0.00  0.00    +0.044 C 
ENDBRANCH  19  25
ENDBRANCH   1  19
TORSDOF 4
