REMARK  Name = ZINC33722722
REMARK  5 active torsions:
REMARK  status: ('A' for Active; 'I' for Inactive)
REMARK    1  A    between atoms: C_1  and  C_2
REMARK    2  A    between atoms: C_4  and  N_34
REMARK    3  A    between atoms: C_7  and  N_8
REMARK    4  A    between atoms: C_13  and  C_30
REMARK    5  A    between atoms: C_30  and  C_31
REMARK                            x       y       z     vdW  Elec       q    Type
REMARK                         _______ _______ _______ _____ _____    ______ ____
ROOT
ATOM      1  N   UNL     1       0.026  -0.013   2.419  0.00  0.00    -0.210 N 
ATOM      2  C   UNL     1      -1.110   0.341   3.091  0.00  0.00    +0.232 C 
ATOM      3  O   UNL     1      -2.227  -0.099   2.921  0.00  0.00    -0.274 OA
ATOM      4  C   UNL     1      -0.688   1.388   4.085  0.00  0.00    +0.108 C 
ATOM      5  C   UNL     1      -1.242   1.330   5.514  0.00  0.00    +0.076 C 
ATOM      6  N   UNL     1      -0.087   1.826   6.335  0.00  0.00    -0.295 NA
ATOM      7  C   UNL     1       1.165   1.505   5.582  0.00  0.00    +0.136 C 
ATOM      8  C   UNL     1       0.730   0.756   4.391  0.00  0.00    +0.123 C 
ATOM      9  C   UNL     1       1.170   0.378   3.069  0.00  0.00    +0.233 C 
ATOM     10  O   UNL     1       2.300   0.402   2.630  0.00  0.00    -0.274 OA
ATOM     11  C   UNL     1       1.891   2.782   5.250  0.00  0.00    +0.003 A 
ATOM     12  C   UNL     1       1.571   3.876   4.478  0.00  0.00    +0.008 A 
ATOM     13  C   UNL     1       2.466   4.925   4.358  0.00  0.00    +0.000 A 
ATOM     14  C   UNL     1       3.681   4.871   5.016  0.00  0.00    +0.002 A 
ATOM     15  C   UNL     1       4.005   3.778   5.792  0.00  0.00    +0.023 A 
ATOM     16  C   UNL     1       3.110   2.718   5.918  0.00  0.00    +0.039 A 
ATOM     17  N   UNL     1       3.206   1.523   6.633  0.00  0.00    -0.283 N 
ATOM     18  C   UNL     1       2.110   0.756   6.491  0.00  0.00    +0.243 C 
ATOM     19  O   UNL     1       1.917  -0.329   6.997  0.00  0.00    -0.273 OA
ATOM     20  H   UNL     1      -0.164   2.817   6.504  0.00  0.00    +0.124 HD
ATOM     21  H   UNL     1       3.974   1.274   7.170  0.00  0.00    +0.155 HD
ENDROOT
BRANCH   1  28
ATOM     22  C   UNL     1      -0.018   1.503   0.010  0.00  0.00    +0.046 C 
ATOM     23  C   UNL     1       0.002  -0.004   0.002  0.00  0.00    -0.026 A 
ATOM     24  C   UNL     1       0.006  -0.689  -1.198  0.00  0.00    +0.038 A 
ATOM     25  C   UNL     1       0.024  -2.071  -1.206  0.00  0.00    +0.127 A 
ATOM     26  C   UNL     1       0.040  -2.773  -0.014  0.00  0.00    +0.034 A 
ATOM     27  C   UNL     1       0.035  -2.094   1.188  0.00  0.00    +0.026 A 
ATOM     28  C   UNL     1       0.023  -0.705   1.200  0.00  0.00    +0.047 A 
BRANCH  25  29
ATOM     29  N   UNL     1       0.028  -2.802  -2.493  0.00  0.00    +0.056 N 
ATOM     30  O   UNL     1       0.014  -2.190  -3.536  0.00  0.00    -0.126 OA
ATOM     31  O   UNL     1       0.044  -4.011  -2.502  0.00  0.00    -0.126 OA
ENDBRANCH  25  29
ENDBRANCH   1  28
BRANCH   5  32
ATOM     32  C   UNL     1      -2.454   2.251   5.663  0.00  0.00    +0.115 C 
BRANCH  32  33
ATOM     33  C   UNL     1      -3.048   2.080   7.038  0.00  0.00    +0.212 C 
ATOM     34  O   UNL     1      -2.551   1.298   7.821  0.00  0.00    -0.276 OA
ATOM     35  N   UNL     1      -4.132   2.795   7.397  0.00  0.00    -0.329 N 
ATOM     36  H   UNL     1      -4.530   3.420   6.771  0.00  0.00    +0.145 HD
ATOM     37  H   UNL     1      -4.515   2.685   8.282  0.00  0.00    +0.145 HD
ENDBRANCH  32  33
ENDBRANCH   5  32
TORSDOF 4
