REMARK  Name = ZINC43553666
REMARK  10 active torsions:
REMARK  status: ('A' for Active; 'I' for Inactive)
REMARK    1  A    between atoms: C_1  and  C_2
REMARK    2  A    between atoms: C_5  and  O_37
REMARK    3  A    between atoms: C_7  and  C_34
REMARK    4  A    between atoms: C_7  and  C_35
REMARK    5  A    between atoms: C_14  and  C_16
REMARK    6  A    between atoms: C_21  and  C_23
REMARK    7  A    between atoms: C_23  and  C_24
REMARK    8  A    between atoms: N_26  and  C_27
REMARK    9  A    between atoms: C_31  and  O_33
REMARK   10  A    between atoms: C_35  and  O_36
REMARK                            x       y       z     vdW  Elec       q    Type
REMARK                         _______ _______ _______ _____ _____    ______ ____
ROOT
ATOM      1  C   UNL     1       0.335   1.881   0.391  0.00  0.00    +0.012 C 
ATOM      2  C   UNL     1       0.218   0.368   0.151  0.00  0.00    -0.020 C 
ATOM      3  C   UNL     1      -1.257  -0.015   0.177  0.00  0.00    +0.010 C 
ATOM      4  C   UNL     1      -1.853   0.376   1.530  0.00  0.00    +0.032 C 
ATOM      5  C   UNL     1      -1.132  -0.301   2.682  0.00  0.00    +0.123 C 
ATOM      6  C   UNL     1       0.384  -0.219   2.625  0.00  0.00    +0.021 C 
ATOM      7  C   UNL     1       0.958  -0.422   1.224  0.00  0.00    +0.011 C 
ATOM      8  C   UNL     1       0.886  -1.933   0.924  0.00  0.00    +0.049 C 
ATOM      9  C   UNL     1       0.923  -2.215  -0.534  0.00  0.00    +0.014 A 
ATOM     10  C   UNL     1       0.870  -1.329  -1.564  0.00  0.00    +0.056 A 
ATOM     11  N   UNL     1       0.871  -1.818  -2.796  0.00  0.00    -0.243 NA
ATOM     12  C   UNL     1       0.953  -3.117  -3.038  0.00  0.00    +0.109 A 
ATOM     13  S   UNL     1       1.046  -3.774  -1.376  0.00  0.00    -0.072 S 
ATOM     14  C   UNL     1       0.841   0.153  -1.230  0.00  0.00    +0.053 C 
ATOM     15  C   UNL     1       0.869   1.090   3.261  0.00  0.00    +0.016 C 
ENDROOT
BRANCH  12  16
ATOM     16  C   UNL     1       0.966  -3.832  -4.332  0.00  0.00    +0.014 A 
ATOM     17  C   UNL     1       1.054  -5.221  -4.379  0.00  0.00    +0.018 A 
ATOM     18  C   UNL     1       1.062  -5.838  -5.581  0.00  0.00    +0.046 A 
ATOM     19  S   UNL     1       0.944  -4.464  -6.714  0.00  0.00    -0.104 S 
ATOM     20  C   UNL     1       0.885  -3.144  -5.513  0.00  0.00    +0.055 A 
ENDBRANCH  12  16
BRANCH   5  21
ATOM     21  O   UNL     1      -1.549  -1.668   2.777  0.00  0.00    -0.391 OA
ATOM     22  H   UNL     1      -2.497  -1.780   2.932  0.00  0.00    +0.210 HD
ENDBRANCH   5  21
BRANCH  14  23
ATOM     23  C   UNL     1       0.069   0.925  -2.296  0.00  0.00    +0.106 C 
BRANCH  23  24
ATOM     24  C   UNL     1       0.775   0.794  -3.621  0.00  0.00    +0.218 C 
ATOM     25  O   UNL     1       1.797   0.145  -3.703  0.00  0.00    -0.275 OA
ATOM     26  N   UNL     1       0.272   1.399  -4.716  0.00  0.00    -0.285 N 
ATOM     27  H   UNL     1      -0.511   1.966  -4.640  0.00  0.00    +0.155 HD
BRANCH  26  28
ATOM     28  C   UNL     1       0.879   1.208  -5.962  0.00  0.00    +0.037 A 
ATOM     29  C   UNL     1       0.103   1.156  -7.113  0.00  0.00    +0.023 A 
ATOM     30  C   UNL     1       0.702   0.968  -8.343  0.00  0.00    +0.005 A 
ATOM     31  C   UNL     1       2.075   0.830  -8.432  0.00  0.00    +0.045 A 
ATOM     32  C   UNL     1       2.855   0.880  -7.286  0.00  0.00    +0.119 A 
ATOM     33  C   UNL     1       2.257   1.076  -6.050  0.00  0.00    +0.068 A 
BRANCH  32  34
ATOM     34  O   UNL     1       4.204   0.744  -7.375  0.00  0.00    -0.507 OA
ATOM     35  H   UNL     1       4.676   1.579  -7.495  0.00  0.00    +0.292 HD
ENDBRANCH  32  34
ENDBRANCH  26  28
ENDBRANCH  23  24
ENDBRANCH  14  23
BRANCH   6  36
ATOM     36  C   UNL     1       0.932  -1.344   3.542  0.00  0.00    +0.165 C 
BRANCH  36  37
ATOM     37  O   UNL     1       0.465  -1.141   4.877  0.00  0.00    -0.394 OA
ATOM     38  H   UNL     1       0.770  -1.809   5.507  0.00  0.00    +0.209 HD
ENDBRANCH  36  37
ENDBRANCH   6  36
TORSDOF 8
