REMARK  Name = ZINC14006011
REMARK  9 active torsions:
REMARK  status: ('A' for Active; 'I' for Inactive)
REMARK    1  A    between atoms: C_4  and  C_7
REMARK    2  A    between atoms: C_8  and  C_9
REMARK    3  A    between atoms: N_11  and  C_12
REMARK    4  A    between atoms: C_12  and  N_14
REMARK    5  A    between atoms: N_14  and  C_15
REMARK    6  A    between atoms: C_20  and  C_21
REMARK    7  A    between atoms: N_23  and  C_24
REMARK    8  A    between atoms: C_27  and  N_30
REMARK    9  A    between atoms: N_30  and  C_31
REMARK                            x       y       z     vdW  Elec       q    Type
REMARK                         _______ _______ _______ _____ _____    ______ ____
ROOT
ATOM      1  C   UNL     1       8.204   7.657  -0.057  0.00  0.00    +0.045 A 
ATOM      2  C   UNL     1       9.389   8.361   0.115  0.00  0.00    +0.024 A 
ATOM      3  C   UNL     1      10.601   7.736  -0.095  0.00  0.00    +0.002 A 
ATOM      4  C   UNL     1      10.647   6.404  -0.477  0.00  0.00    +0.001 A 
ATOM      5  C   UNL     1       9.482   5.689  -0.647  0.00  0.00    +0.015 A 
ATOM      6  C   UNL     1       8.247   6.309  -0.444  0.00  0.00    +0.058 A 
ENDROOT
BRANCH   6   7
ATOM      7  C   UNL     1       6.996   5.551  -0.629  0.00  0.00    +0.250 C 
ATOM      8  O   UNL     1       5.924   6.121  -0.567  0.00  0.00    -0.270 OA
ATOM      9  N   UNL     1       7.041   4.225  -0.867  0.00  0.00    -0.281 N 
ATOM     10  H   UNL     1       7.896   3.780  -0.974  0.00  0.00    +0.155 HD
BRANCH   9  11
ATOM     11  C   UNL     1       5.853   3.490  -0.961  0.00  0.00    +0.034 A 
ATOM     12  C   UNL     1       5.801   2.188  -0.478  0.00  0.00    +0.025 A 
ATOM     13  C   UNL     1       4.630   1.464  -0.570  0.00  0.00    +0.025 A 
ATOM     14  C   UNL     1       3.503   2.036  -1.146  0.00  0.00    +0.031 A 
ATOM     15  C   UNL     1       3.556   3.335  -1.634  0.00  0.00    +0.025 A 
ATOM     16  C   UNL     1       4.726   4.062  -1.536  0.00  0.00    +0.025 A 
BRANCH  14  17
ATOM     17  N   UNL     1       2.316   1.301  -1.240  0.00  0.00    -0.314 N 
ATOM     18  H   UNL     1       2.349   0.341  -1.372  0.00  0.00    +0.152 HD
BRANCH  17  19
ATOM     19  C   UNL     1       1.083   1.950  -1.143  0.00  0.00    +0.031 A 
ATOM     20  C   UNL     1      -0.059   1.357  -1.666  0.00  0.00    +0.023 A 
ATOM     21  C   UNL     1      -1.276   2.005  -1.575  0.00  0.00    +0.002 A 
ATOM     22  C   UNL     1      -1.359   3.237  -0.953  0.00  0.00    +0.000 A 
ATOM     23  C   UNL     1      -0.224   3.831  -0.431  0.00  0.00    +0.002 A 
ATOM     24  C   UNL     1       0.996   3.191  -0.524  0.00  0.00    +0.023 A 
ENDBRANCH  17  19
ENDBRANCH  14  17
ENDBRANCH   9  11
ENDBRANCH   6   7
BRANCH   1  25
ATOM     25  N   UNL     1       6.980   8.286   0.155  0.00  0.00    -0.296 N 
ATOM     26  H   UNL     1       6.275   7.824   0.634  0.00  0.00    +0.154 HD
BRANCH  25  27
ATOM     27  C   UNL     1       6.776   9.536  -0.306  0.00  0.00    +0.141 C 
ATOM     28  S   UNL     1       7.967  10.297  -1.272  0.00  0.00    -0.018 S 
BRANCH  27  31
ATOM     29  C   UNL     1       5.431  11.437  -0.467  0.00  0.00    +0.242 C 
ATOM     30  O   UNL     1       6.277  11.977  -1.154  0.00  0.00    -0.270 OA
ATOM     31  N   UNL     1       5.635  10.187  -0.006  0.00  0.00    -0.264 N 
ATOM     32  H   UNL     1       4.960   9.755   0.541  0.00  0.00    +0.157 HD
BRANCH  29  34
ATOM     33  C   UNL     1       3.987  13.394  -0.603  0.00  0.00    +0.013 C 
ATOM     34  C   UNL     1       4.191  12.143  -0.142  0.00  0.00    +0.068 C 
BRANCH  33  38
ATOM     35  C   UNL     1       0.394  15.441   0.340  0.00  0.00    +0.000 A 
ATOM     36  C   UNL     1       1.354  16.061  -0.441  0.00  0.00    +0.001 A 
ATOM     37  C   UNL     1       2.525  15.402  -0.752  0.00  0.00    +0.008 A 
ATOM     38  C   UNL     1       2.740  14.104  -0.275  0.00  0.00    -0.025 A 
ATOM     39  C   UNL     1       1.763  13.484   0.509  0.00  0.00    +0.008 A 
ATOM     40  C   UNL     1       0.600  14.158   0.815  0.00  0.00    +0.001 A 
ENDBRANCH  33  38
ENDBRANCH  29  34
ENDBRANCH  27  31
ENDBRANCH  25  27
ENDBRANCH   1  25
TORSDOF 9
