REMARK  Name = ZINC35041866
REMARK  13 active torsions:
REMARK  status: ('A' for Active; 'I' for Inactive)
REMARK    1  A    between atoms: C_1  and  C_2
REMARK    2  A    between atoms: C_2  and  C_3
REMARK    3  A    between atoms: C_3  and  N_4
REMARK    4  A    between atoms: N_4  and  C_5
REMARK    5  A    between atoms: C_5  and  C_7
REMARK    6  A    between atoms: C_5  and  C_9
REMARK    7  A    between atoms: C_7  and  C_8
REMARK    8  A    between atoms: N_19  and  C_20
REMARK    9  A    between atoms: C_23  and  O_26
REMARK   10  A    between atoms: O_26  and  C_27
REMARK   11  A    between atoms: C_27  and  C_28
REMARK   12  A    between atoms: N_31  and  C_32
REMARK   13  A    between atoms: C_36  and  C_38
REMARK                            x       y       z     vdW  Elec       q    Type
REMARK                         _______ _______ _______ _____ _____    ______ ____
ROOT
ATOM      1  C   UNL     1      -2.608  -2.139   1.984  0.00  0.00    +0.138 A 
ATOM      2  N   UNL     1      -2.662  -0.882   2.306  0.00  0.00    -0.231 NA
ATOM      3  C   UNL     1      -3.556  -0.418   3.214  0.00  0.00    +0.078 A 
ATOM      4  C   UNL     1      -3.615   0.933   3.560  0.00  0.00    +0.028 A 
ATOM      5  C   UNL     1      -4.539   1.361   4.487  0.00  0.00    +0.002 A 
ATOM      6  C   UNL     1      -5.416   0.464   5.083  0.00  0.00    +0.001 A 
ATOM      7  C   UNL     1      -5.378  -0.874   4.758  0.00  0.00    +0.015 A 
ATOM      8  C   UNL     1      -4.450  -1.328   3.822  0.00  0.00    +0.065 A 
ATOM      9  C   UNL     1      -4.364  -2.743   3.436  0.00  0.00    +0.266 A 
ATOM     10  O   UNL     1      -5.104  -3.578   3.923  0.00  0.00    -0.267 OA
ATOM     11  N   UNL     1      -3.432  -3.082   2.515  0.00  0.00    -0.263 N 
ENDROOT
BRANCH  11  12
ATOM     12  C   UNL     1      -3.312  -4.418   2.108  0.00  0.00    +0.051 A 
ATOM     13  C   UNL     1      -2.243  -5.186   2.552  0.00  0.00    +0.030 A 
ATOM     14  C   UNL     1      -2.125  -6.502   2.150  0.00  0.00    +0.047 A 
ATOM     15  C   UNL     1      -3.073  -7.057   1.303  0.00  0.00    +0.121 A 
ATOM     16  C   UNL     1      -4.141  -6.290   0.859  0.00  0.00    +0.047 A 
ATOM     17  C   UNL     1      -4.264  -4.976   1.264  0.00  0.00    +0.030 A 
BRANCH  15  18
ATOM     18  O   UNL     1      -2.956  -8.352   0.907  0.00  0.00    -0.492 OA
BRANCH  18  19
ATOM     19  C   UNL     1      -3.968  -8.858   0.035  0.00  0.00    +0.225 C 
ATOM     20  C   UNL     1      -3.670 -10.321  -0.299  0.00  0.00    +0.048 C 
ENDBRANCH  18  19
ENDBRANCH  15  18
ENDBRANCH  11  12
BRANCH   1  21
ATOM     21  C   UNL     1      -1.586  -2.573   0.966  0.00  0.00    +0.144 C 
BRANCH  21  22
ATOM     22  N   UNL     1      -1.909  -1.980  -0.334  0.00  0.00    -0.275 N 
ATOM     23  C   UNL     1      -2.159  -2.775  -1.394  0.00  0.00    +0.307 C 
ATOM     24  O   UNL     1      -2.117  -3.984  -1.270  0.00  0.00    -0.252 OA
ATOM     25  N   UNL     1      -2.456  -2.230  -2.590  0.00  0.00    -0.269 N 
ATOM     26  H   UNL     1      -2.545  -1.268  -2.675  0.00  0.00    +0.156 HD
BRANCH  25  27
ATOM     27  C   UNL     1      -2.636  -3.051  -3.708  0.00  0.00    +0.036 A 
ATOM     28  C   UNL     1      -2.209  -2.624  -4.960  0.00  0.00    +0.023 A 
ATOM     29  C   UNL     1      -2.384  -3.432  -6.068  0.00  0.00    +0.003 A 
ATOM     30  C   UNL     1      -2.985  -4.668  -5.940  0.00  0.00    +0.019 A 
ATOM     31  C   UNL     1      -3.417  -5.106  -4.686  0.00  0.00    +0.054 A 
ATOM     32  C   UNL     1      -3.235  -4.293  -3.567  0.00  0.00    +0.042 A 
BRANCH  31  33
ATOM     33  C   UNL     1      -4.041  -6.388  -4.549  0.00  0.00    +0.099 C 
ATOM     34  N   UNL     1      -4.536  -7.405  -4.441  0.00  0.00    -0.191 NA
ENDBRANCH  31  33
ENDBRANCH  25  27
BRANCH  22  35
ATOM     35  C   UNL     1      -1.959  -0.524  -0.483  0.00  0.00    +0.110 C 
BRANCH  35  37
ATOM     36  C   UNL     1      -0.628   1.518  -1.031  0.00  0.00    +0.005 C 
ATOM     37  C   UNL     1      -0.575  -0.003  -0.876  0.00  0.00    +0.016 C 
ENDBRANCH  35  37
ENDBRANCH  22  35
ENDBRANCH  21  22
BRANCH  21  38
ATOM     38  C   UNL     1      -0.197  -2.108   1.408  0.00  0.00    +0.027 C 
ATOM     39  C   UNL     1       0.854  -2.637   0.429  0.00  0.00    +0.006 C 
ENDBRANCH  21  38
ENDBRANCH   1  21
TORSDOF 10
