REMARK  Name = ZINC05068434
REMARK  9 active torsions:
REMARK  status: ('A' for Active; 'I' for Inactive)
REMARK    1  A    between atoms: C_1  and  C_2
REMARK    2  A    between atoms: C_5  and  N_9
REMARK    3  A    between atoms: C_6  and  C_8
REMARK    4  A    between atoms: C_10  and  C_12
REMARK    5  A    between atoms: C_13  and  C_30
REMARK    6  A    between atoms: C_18  and  C_20
REMARK    7  A    between atoms: C_23  and  C_26
REMARK    8  A    between atoms: C_26  and  O_28
REMARK    9  A    between atoms: O_28  and  C_29
REMARK                            x       y       z     vdW  Elec       q    Type
REMARK                         _______ _______ _______ _____ _____    ______ ____
ROOT
ATOM      1  C   UNL     1      -1.447   2.025  -0.942  0.00  0.00    +0.056 C 
ATOM      2  C   UNL     1      -1.919   3.289  -0.927  0.00  0.00    +0.017 C 
ATOM      3  N   UNL     1      -1.820   4.066   0.192  0.00  0.00    -0.300 N 
ATOM      4  C   UNL     1      -1.262   3.651   1.337  0.00  0.00    +0.135 C 
ATOM      5  S   UNL     1      -1.201   4.727   2.667  0.00  0.00    -0.019 S 
ATOM      6  N   UNL     1      -0.747   2.413   1.476  0.00  0.00    -0.315 N 
ATOM      7  C   UNL     1      -0.804   1.497   0.324  0.00  0.00    +0.139 C 
ATOM      8  C   UNL     1      -2.566   3.854  -2.165  0.00  0.00    +0.061 C 
ATOM      9  H   UNL     1      -2.173   4.968   0.156  0.00  0.00    +0.154 HD
ATOM     10  H   UNL     1      -0.347   2.133   2.314  0.00  0.00    +0.149 HD
ENDROOT
BRANCH   7  11
ATOM     11  C   UNL     1       0.605   1.080  -0.009  0.00  0.00    -0.023 A 
ATOM     12  C   UNL     1       1.576   2.043  -0.222  0.00  0.00    +0.006 A 
ATOM     13  C   UNL     1       2.866   1.669  -0.533  0.00  0.00    +0.015 A 
ATOM     14  C   UNL     1       3.192   0.315  -0.633  0.00  0.00    +0.059 A 
ATOM     15  C   UNL     1       2.208  -0.651  -0.418  0.00  0.00    +0.015 A 
ATOM     16  C   UNL     1       0.921  -0.263  -0.107  0.00  0.00    +0.006 A 
BRANCH  14  17
ATOM     17  C   UNL     1       4.572  -0.093  -0.967  0.00  0.00    +0.339 C 
ATOM     18  O   UNL     1       4.853  -1.271  -1.055  0.00  0.00    -0.245 OA
BRANCH  17  19
ATOM     19  O   UNL     1       5.520   0.842  -1.175  0.00  0.00    -0.464 OA
ATOM     20  C   UNL     1       6.854   0.369  -1.499  0.00  0.00    +0.280 C 
ENDBRANCH  17  19
ENDBRANCH  14  17
ENDBRANCH   7  11
BRANCH   1  22
ATOM     21  N   UNL     1      -0.675   1.382  -3.115  0.00  0.00    -0.281 N 
ATOM     22  C   UNL     1      -1.549   1.219  -2.102  0.00  0.00    +0.248 C 
ATOM     23  O   UNL     1      -2.427   0.379  -2.185  0.00  0.00    -0.270 OA
ATOM     24  H   UNL     1      -0.001   2.078  -3.066  0.00  0.00    +0.155 HD
BRANCH  21  29
ATOM     25  C   UNL     1      -0.939  -1.999  -7.662  0.00  0.00    +0.044 C 
ATOM     26  C   UNL     1      -0.869  -1.101  -6.454  0.00  0.00    -0.050 A 
ATOM     27  C   UNL     1      -2.012  -0.840  -5.720  0.00  0.00    +0.005 A 
ATOM     28  C   UNL     1      -1.951  -0.021  -4.610  0.00  0.00    +0.024 A 
ATOM     29  C   UNL     1      -0.740   0.549  -4.236  0.00  0.00    +0.037 A 
ATOM     30  C   UNL     1       0.406   0.285  -4.974  0.00  0.00    -0.029 A 
ATOM     31  C   UNL     1       0.338  -0.539  -6.081  0.00  0.00    +0.008 A 
ATOM     32  C   UNL     1       1.722   0.897  -4.569  0.00  0.00    +0.045 C 
ENDBRANCH  21  29
ENDBRANCH   1  22
TORSDOF 5
