REMARK  Name = ZINC63193368
REMARK  4 active torsions:
REMARK  status: ('A' for Active; 'I' for Inactive)
REMARK    1  A    between atoms: C_1  and  C_2
REMARK    2  A    between atoms: C_2  and  C_4
REMARK    3  A    between atoms: C_2  and  N_22
REMARK    4  A    between atoms: C_11  and  C_13
REMARK                            x       y       z     vdW  Elec       q    Type
REMARK                         _______ _______ _______ _____ _____    ______ ____
ROOT
ATOM      1  C   UNL     1       0.805  -0.612  -0.983  0.00  0.00    +0.062 C 
ATOM      2  C   UNL     1       0.637  -2.057  -0.501  0.00  0.00    +0.021 C 
ATOM      3  C   UNL     1       1.638  -2.954  -1.233  0.00  0.00    +0.003 C 
ATOM      4  C   UNL     1       3.063  -2.500  -0.910  0.00  0.00    +0.019 C 
ATOM      5  C   UNL     1       3.259  -1.060  -1.395  0.00  0.00    +0.108 C 
ATOM      6  N   UNL     1       2.209  -0.214  -0.811  0.00  0.00    -0.295 N 
ATOM      7  C   UNL     1       2.528   0.903  -0.129  0.00  0.00    +0.265 C 
ATOM      8  O   UNL     1       1.651   1.585   0.364  0.00  0.00    -0.268 OA
ENDROOT
BRANCH   7   9
ATOM      9  C   UNL     1       3.951   1.302   0.021  0.00  0.00    +0.136 A 
ATOM     10  C   UNL     1       4.361   2.004   1.137  0.00  0.00    +0.103 A 
ATOM     11  C   UNL     1       5.722   2.366   1.246  0.00  0.00    +0.255 A 
ATOM     12  O   UNL     1       6.125   2.986   2.216  0.00  0.00    -0.268 OA
ATOM     13  N   UNL     1       6.568   2.012   0.256  0.00  0.00    -0.274 N 
ATOM     14  H   UNL     1       7.506   2.251   0.312  0.00  0.00    +0.173 HD
ATOM     15  C   UNL     1       6.107   1.321  -0.819  0.00  0.00    +0.349 A 
ATOM     16  O   UNL     1       6.968   0.976  -1.798  0.00  0.00    -0.245 OA
ATOM     17  N   UNL     1       4.844   0.976  -0.924  0.00  0.00    -0.188 NA
ENDBRANCH   7   9
BRANCH   1  19
ATOM     18  C   UNL     1       0.192   0.105   1.331  0.00  0.00    -0.012 C 
ATOM     19  C   UNL     1      -0.094   0.311  -0.158  0.00  0.00    -0.057 C 
BRANCH  19  20
ATOM     20  N   UNL     1      -1.502  -0.002  -0.433  0.00  0.00    +0.381 N 
ATOM     21  H   UNL     1      -2.094   0.667   0.035  0.00  0.00    -0.090 HD
ATOM     22  H   UNL     1      -1.668   0.041  -1.428  0.00  0.00    -0.090 HD
ATOM     23  H   UNL     1      -1.712  -0.930  -0.098  0.00  0.00    -0.090 HD
ENDBRANCH  19  20
ENDBRANCH   1  19
TORSDOF 3
