REMARK  Name = ZINC44589313
REMARK  11 active torsions:
REMARK  status: ('A' for Active; 'I' for Inactive)
REMARK    1  A    between atoms: C_1  and  O_2
REMARK    2  A    between atoms: O_2  and  C_3
REMARK    3  A    between atoms: C_5  and  C_13
REMARK    4  A    between atoms: C_6  and  O_11
REMARK    5  A    between atoms: C_8  and  O_9
REMARK    6  A    between atoms: O_9  and  C_10
REMARK    7  A    between atoms: O_11  and  C_12
REMARK    8  A    between atoms: C_22  and  C_34
REMARK    9  A    between atoms: N_24  and  C_25
REMARK   10  A    between atoms: C_25  and  N_27
REMARK   11  A    between atoms: N_27  and  C_28
REMARK                            x       y       z     vdW  Elec       q    Type
REMARK                         _______ _______ _______ _____ _____    ______ ____
ROOT
ATOM      1  C   UNL     1       2.265   0.253   5.249  0.00  0.00    +0.158 C 
ATOM      2  C   UNL     1       3.611  -0.068   4.643  0.00  0.00    +0.062 A 
ATOM      3  C   UNL     1       4.250   0.738   3.768  0.00  0.00    +0.041 A 
ATOM      4  N   UNL     1       5.424   0.126   3.449  0.00  0.00    -0.349 N 
ATOM      5  H   UNL     1       6.103   0.461   2.843  0.00  0.00    +0.166 HD
ATOM      6  C   UNL     1       5.465  -1.038   4.138  0.00  0.00    +0.171 A 
ATOM      7  N   UNL     1       4.373  -1.144   4.849  0.00  0.00    -0.348 N 
ATOM      8  C   UNL     1       3.719   2.054   3.264  0.00  0.00    +0.089 C 
ATOM      9  C   UNL     1       2.606   2.532   4.206  0.00  0.00    +0.195 C 
ATOM     10  N   UNL     1       1.713   1.403   4.510  0.00  0.00    -0.286 N 
ATOM     11  H   UNL     1       4.152  -1.886   5.434  0.00  0.00    +0.167 HD
ENDROOT
BRANCH   1  14
ATOM     12  C   UNL     1       0.337  -2.632   3.755  0.00  0.00    +0.162 A 
ATOM     13  C   UNL     1       1.182  -1.542   3.883  0.00  0.00    +0.058 A 
ATOM     14  C   UNL     1       1.345  -0.933   5.113  0.00  0.00    +0.024 A 
ATOM     15  C   UNL     1       0.665  -1.413   6.222  0.00  0.00    +0.129 A 
ATOM     16  C   UNL     1      -0.181  -2.504   6.099  0.00  0.00    +0.095 A 
ATOM     17  C   UNL     1      -0.351  -3.112   4.865  0.00  0.00    +0.165 A 
BRANCH  12  19
ATOM     18  C   UNL     1       0.958  -2.723   1.460  0.00  0.00    +0.277 C 
ATOM     19  O   UNL     1       0.177  -3.231   2.544  0.00  0.00    -0.491 OA
ENDBRANCH  12  19
BRANCH  17  20
ATOM     20  O   UNL     1      -1.185  -4.179   4.741  0.00  0.00    -0.491 OA
ATOM     21  C   UNL     1      -1.859  -4.617   5.922  0.00  0.00    +0.277 C 
ENDBRANCH  17  20
BRANCH  15  22
ATOM     22  O   UNL     1       0.828  -0.812   7.431  0.00  0.00    -0.495 OA
ATOM     23  C   UNL     1       0.096  -1.358   8.530  0.00  0.00    +0.277 C 
ENDBRANCH  15  22
ENDBRANCH   1  14
BRANCH   9  24
ATOM     24  C   UNL     1       1.820   3.632   3.540  0.00  0.00    +0.376 C 
ATOM     25  O   UNL     1       0.976   3.358   2.704  0.00  0.00    -0.244 OA
ATOM     26  O   UNL     1       2.028   4.796   3.838  0.00  0.00    -0.244 OA
ENDBRANCH   9  24
BRANCH  10  27
ATOM     27  C   UNL     1       0.423   1.419   4.121  0.00  0.00    +0.135 C 
ATOM     28  S   UNL     1      -0.350  -0.038   3.662  0.00  0.00    -0.019 S 
BRANCH  27  29
ATOM     29  N   UNL     1      -0.258   2.581   4.092  0.00  0.00    -0.324 N 
ATOM     30  H   UNL     1       0.196   3.415   4.291  0.00  0.00    +0.148 HD
BRANCH  29  31
ATOM     31  C   UNL     1      -1.685   2.586   3.760  0.00  0.00    +0.072 C 
ATOM     32  C   UNL     1      -1.855   2.633   2.240  0.00  0.00    +0.022 C 
ATOM     33  C   UNL     1      -3.345   2.638   1.894  0.00  0.00    +0.002 C 
ATOM     34  C   UNL     1      -4.010   3.865   2.519  0.00  0.00    +0.000 C 
ATOM     35  C   UNL     1      -3.841   3.818   4.039  0.00  0.00    +0.002 C 
ATOM     36  C   UNL     1      -2.350   3.813   4.386  0.00  0.00    +0.022 C 
ENDBRANCH  29  31
ENDBRANCH  27  29
ENDBRANCH  10  27
TORSDOF 8
