REMARK  Name = ZINC05210229
REMARK  5 active torsions:
REMARK  status: ('A' for Active; 'I' for Inactive)
REMARK    1  A    between atoms: C_1  and  O_2
REMARK    2  A    between atoms: O_2  and  C_3
REMARK    3  A    between atoms: C_6  and  O_14
REMARK    4  A    between atoms: C_9  and  C_12
REMARK    5  A    between atoms: C_12  and  O_13
REMARK                            x       y       z     vdW  Elec       q    Type
REMARK                         _______ _______ _______ _____ _____    ______ ____
ROOT
ATOM      1  C   UNL     1      -1.295  -0.603   0.011  0.00  0.00    +0.304 C 
ATOM      2  C   UNL     1      -1.169  -2.110  -0.095  0.00  0.00    +0.133 C 
ATOM      3  C   UNL     1      -2.320  -2.911   0.350  0.00  0.00    +0.188 C 
ATOM      4  C   UNL     1      -3.312  -2.307   1.025  0.00  0.00    +0.230 C 
ATOM      5  O   UNL     1      -4.367  -3.045   1.442  0.00  0.00    -0.286 OA
ATOM      6  C   UNL     1      -3.283  -0.837   1.329  0.00  0.00    +0.221 C 
ATOM      7  O   UNL     1      -1.956  -0.318   1.252  0.00  0.00    -0.332 OA
ATOM      8  N   UNL     1      -0.092  -2.670  -0.559  0.00  0.00    -0.296 NA
ATOM      9  H   UNL     1      -0.035  -3.636  -0.618  0.00  0.00    +0.187 HD
ENDROOT
BRANCH   1  11
ATOM     10  C   UNL     1      -0.017   1.425   0.010  0.00  0.00    +0.197 C 
ATOM     11  O   UNL     1       0.002  -0.004   0.002  0.00  0.00    -0.349 OA
ENDBRANCH   1  11
BRANCH   3  12
ATOM     12  O   UNL     1      -2.379  -4.245   0.081  0.00  0.00    -0.502 OA
ATOM     13  H   UNL     1      -3.175  -4.679   0.416  0.00  0.00    +0.292 HD
ENDBRANCH   3  12
BRANCH   6  14
ATOM     14  C   UNL     1      -3.829  -0.606   2.740  0.00  0.00    +0.195 C 
BRANCH  14  15
ATOM     15  O   UNL     1      -3.914   0.798   2.994  0.00  0.00    -0.392 OA
ATOM     16  H   UNL     1      -4.253   1.019   3.872  0.00  0.00    +0.210 HD
ENDBRANCH  14  15
ENDBRANCH   6  14
TORSDOF 4
