REMARK  Name = ZINC17188669
REMARK  12 active torsions:
REMARK  status: ('A' for Active; 'I' for Inactive)
REMARK    1  A    between atoms: C_1  and  C_2
REMARK    2  A    between atoms: C_2  and  C_3
REMARK    3  A    between atoms: C_3  and  C_5
REMARK    4  A    between atoms: C_3  and  C_6
REMARK    5  A    between atoms: C_6  and  C_7
REMARK    6  A    between atoms: C_8  and  C_33
REMARK    7  A    between atoms: C_16  and  S_18
REMARK    8  A    between atoms: S_18  and  C_19
REMARK    9  A    between atoms: C_19  and  C_20
REMARK   10  A    between atoms: N_22  and  C_23
REMARK   11  A    between atoms: C_26  and  S_29
REMARK   12  A    between atoms: S_29  and  N_32
REMARK                            x       y       z     vdW  Elec       q    Type
REMARK                         _______ _______ _______ _____ _____    ______ ____
ROOT
ATOM      1  S   UNL     1       6.374  -0.490   0.153  0.00  0.00    -0.078 S 
ENDROOT
BRANCH   1  11
ATOM      2  C   UNL     1       1.376   1.713   2.526  0.00  0.00    -0.023 A 
ATOM      3  C   UNL     1       1.570   2.880   3.158  0.00  0.00    -0.007 A 
ATOM      4  S   UNL     1       3.315   3.180   2.948  0.00  0.00    -0.073 S 
ATOM      5  C   UNL     1       3.734   1.729   2.017  0.00  0.00    +0.117 A 
ATOM      6  C   UNL     1       2.507   1.049   1.900  0.00  0.00    +0.075 A 
ATOM      7  C   UNL     1       2.545  -0.183   1.173  0.00  0.00    +0.261 A 
ATOM      8  O   UNL     1       1.529  -0.840   1.018  0.00  0.00    -0.267 OA
ATOM      9  N   UNL     1       3.717  -0.610   0.668  0.00  0.00    -0.301 N 
ATOM     10  H   UNL     1       3.747  -1.447   0.179  0.00  0.00    +0.171 HD
ATOM     11  C   UNL     1       4.863   0.111   0.833  0.00  0.00    +0.170 A 
ATOM     12  N   UNL     1       4.856   1.251   1.494  0.00  0.00    -0.216 NA
ATOM     13  C   UNL     1       0.555   3.733   3.874  0.00  0.00    +0.052 C 
BRANCH   2  14
ATOM     14  C   UNL     1       0.003   1.094   2.471  0.00  0.00    +0.040 C 
BRANCH  14  15
ATOM     15  C   UNL     1      -0.732   1.594   1.225  0.00  0.00    -0.010 C 
ATOM     16  C   UNL     1      -0.011   1.092  -0.028  0.00  0.00    +0.008 C 
BRANCH  15  18
ATOM     17  C   UNL     1      -2.939   1.665   0.056  0.00  0.00    +0.004 C 
ATOM     18  C   UNL     1      -2.168   1.066   1.234  0.00  0.00    +0.000 C 
ENDBRANCH  15  18
ENDBRANCH  14  15
ENDBRANCH   2  14
ENDBRANCH   1  11
BRANCH   1  19
ATOM     19  C   UNL     1       7.499   0.830   0.669  0.00  0.00    +0.173 C 
BRANCH  19  20
ATOM     20  C   UNL     1       8.892   0.522   0.184  0.00  0.00    +0.227 C 
ATOM     21  O   UNL     1       9.103  -0.491  -0.448  0.00  0.00    -0.275 OA
ATOM     22  N   UNL     1       9.903   1.371   0.453  0.00  0.00    -0.285 N 
ATOM     23  H   UNL     1       9.723   2.213   0.900  0.00  0.00    +0.155 HD
BRANCH  22  24
ATOM     24  C   UNL     1      11.212   1.039   0.088  0.00  0.00    +0.034 A 
ATOM     25  C   UNL     1      12.277   1.425   0.891  0.00  0.00    +0.025 A 
ATOM     26  C   UNL     1      13.568   1.089   0.531  0.00  0.00    +0.030 A 
ATOM     27  C   UNL     1      13.801   0.382  -0.634  0.00  0.00    +0.105 A 
ATOM     28  C   UNL     1      12.742   0.002  -1.439  0.00  0.00    +0.030 A 
ATOM     29  C   UNL     1      11.449   0.328  -1.081  0.00  0.00    +0.025 A 
BRANCH  27  30
ATOM     30  S   UNL     1      15.449  -0.037  -1.093  0.00  0.00    +0.056 S 
ATOM     31  O   UNL     1      16.216  -0.042   0.103  0.00  0.00    -0.153 OA
ATOM     32  O   UNL     1      15.358  -1.172  -1.944  0.00  0.00    -0.153 OA
BRANCH  30  33
ATOM     33  N   UNL     1      16.029   1.205  -2.022  0.00  0.00    -0.204 NA
ATOM     34  H   UNL     1      16.978   1.409  -2.022  0.00  0.00    +0.144 HD
ATOM     35  H   UNL     1      15.421   1.728  -2.567  0.00  0.00    +0.144 HD
ENDBRANCH  30  33
ENDBRANCH  27  30
ENDBRANCH  22  24
ENDBRANCH  19  20
ENDBRANCH   1  19
TORSDOF 9
