REMARK  Name = ZINC40761795
REMARK  8 active torsions:
REMARK  status: ('A' for Active; 'I' for Inactive)
REMARK    1  A    between atoms: C_1  and  C_2
REMARK    2  A    between atoms: C_2  and  O_3
REMARK    3  A    between atoms: O_3  and  C_4
REMARK    4  A    between atoms: C_4  and  C_6
REMARK    5  A    between atoms: C_9  and  N_12
REMARK    6  A    between atoms: C_14  and  N_27
REMARK    7  A    between atoms: C_15  and  N_19
REMARK    8  A    between atoms: N_19  and  C_20
REMARK                            x       y       z     vdW  Elec       q    Type
REMARK                         _______ _______ _______ _____ _____    ______ ____
ROOT
ATOM      1  N   UNL     1       3.181  -3.966   5.904  0.00  0.00    -0.298 N 
ATOM      2  C   UNL     1       3.215  -5.340   6.117  0.00  0.00    +0.149 A 
ATOM      3  C   UNL     1       3.924  -5.872   7.196  0.00  0.00    +0.106 A 
ATOM      4  C   UNL     1       3.925  -7.258   7.364  0.00  0.00    +0.149 A 
ATOM      5  N   UNL     1       3.254  -8.013   6.497  0.00  0.00    -0.219 NA
ATOM      6  C   UNL     1       2.597  -7.470   5.493  0.00  0.00    +0.225 A 
ATOM      7  N   UNL     1       2.567  -6.167   5.301  0.00  0.00    -0.219 NA
ATOM      8  H   UNL     1       3.712  -3.375   6.460  0.00  0.00    +0.154 HD
ENDROOT
BRANCH   1  12
ATOM      9  C   UNL     1       0.805  -2.390   2.877  0.00  0.00    +0.059 A 
ATOM     10  C   UNL     1       0.391  -3.533   3.570  0.00  0.00    +0.017 A 
ATOM     11  C   UNL     1       1.177  -4.050   4.567  0.00  0.00    +0.024 A 
ATOM     12  C   UNL     1       2.386  -3.439   4.891  0.00  0.00    +0.032 A 
ATOM     13  C   UNL     1       2.801  -2.301   4.203  0.00  0.00    +0.024 A 
ATOM     14  C   UNL     1       2.022  -1.782   3.201  0.00  0.00    +0.017 A 
BRANCH   9  15
ATOM     15  C   UNL     1      -0.038  -1.832   1.804  0.00  0.00    +0.339 C 
ATOM     16  O   UNL     1       0.325  -0.842   1.200  0.00  0.00    -0.245 OA
BRANCH  15  17
ATOM     17  O   UNL     1      -1.210  -2.418   1.494  0.00  0.00    -0.461 OA
BRANCH  17  19
ATOM     18  C   UNL     1      -3.264  -2.623   0.236  0.00  0.00    +0.048 C 
ATOM     19  C   UNL     1      -1.975  -1.824   0.444  0.00  0.00    +0.229 C 
ENDBRANCH  17  19
ENDBRANCH  15  17
ENDBRANCH   9  15
ENDBRANCH   1  12
BRANCH   3  20
ATOM     20  N   UNL     1       4.618  -5.037   8.085  0.00  0.00    -0.353 N 
ATOM     21  H   UNL     1       4.608  -4.076   7.956  0.00  0.00    +0.143 HD
ATOM     22  H   UNL     1       5.106  -5.421   8.830  0.00  0.00    +0.143 HD
ENDBRANCH   3  20
BRANCH   4  23
ATOM     23  N   UNL     1       4.616  -7.840   8.421  0.00  0.00    -0.298 N 
ATOM     24  H   UNL     1       5.035  -7.281   9.093  0.00  0.00    +0.154 HD
BRANCH  23  25
ATOM     25  C   UNL     1       4.705  -9.232   8.515  0.00  0.00    +0.032 A 
ATOM     26  C   UNL     1       4.741  -9.844   9.762  0.00  0.00    +0.024 A 
ATOM     27  C   UNL     1       4.829 -11.220   9.851  0.00  0.00    +0.016 A 
ATOM     28  C   UNL     1       4.882 -11.987   8.702  0.00  0.00    +0.013 A 
ATOM     29  C   UNL     1       4.847 -11.380   7.459  0.00  0.00    +0.016 A 
ATOM     30  C   UNL     1       4.753 -10.006   7.363  0.00  0.00    +0.024 A 
ATOM     31  I   UNL     1       5.017 -14.073   8.843  0.00  0.00    -0.044 I 
ENDBRANCH  23  25
ENDBRANCH   4  23
TORSDOF 7
