REMARK  Name = ZINC25030508
REMARK  7 active torsions:
REMARK  status: ('A' for Active; 'I' for Inactive)
REMARK    1  A    between atoms: C_1  and  C_2
REMARK    2  A    between atoms: C_5  and  C_9
REMARK    3  A    between atoms: C_6  and  O_8
REMARK    4  A    between atoms: N_11  and  C_12
REMARK    5  A    between atoms: C_15  and  N_20
REMARK    6  A    between atoms: C_16  and  O_18
REMARK    7  A    between atoms: O_18  and  C_19
REMARK                            x       y       z     vdW  Elec       q    Type
REMARK                         _______ _______ _______ _____ _____    ______ ____
ROOT
ATOM      1  C   UNL     1       0.169  -6.309  -1.277  0.00  0.00    +0.037 A 
ATOM      2  C   UNL     1       0.173  -7.063  -0.111  0.00  0.00    +0.025 A 
ATOM      3  C   UNL     1       0.279  -8.439  -0.175  0.00  0.00    +0.029 A 
ATOM      4  C   UNL     1       0.382  -9.071  -1.406  0.00  0.00    +0.078 A 
ATOM      5  C   UNL     1       0.378  -8.317  -2.578  0.00  0.00    +0.143 A 
ATOM      6  C   UNL     1       0.266  -6.938  -2.511  0.00  0.00    +0.070 A 
ENDROOT
BRANCH   4   7
ATOM      7  N   UNL     1       0.491 -10.468  -1.471  0.00  0.00    -0.268 N 
ATOM      8  C   UNL     1       1.762 -11.201  -1.449  0.00  0.00    +0.114 C 
ATOM      9  C   UNL     1       1.389 -12.660  -1.102  0.00  0.00    +0.029 C 
ATOM     10  C   UNL     1      -0.072 -12.739  -1.600  0.00  0.00    +0.098 C 
ATOM     11  C   UNL     1      -0.556 -11.307  -1.555  0.00  0.00    +0.220 C 
ATOM     12  O   UNL     1      -1.719 -10.965  -1.593  0.00  0.00    -0.275 OA
ENDBRANCH   4   7
BRANCH   1  15
ATOM     13  C   UNL     1       0.642  -4.243  -0.196  0.00  0.00    +0.252 C 
ATOM     14  O   UNL     1       1.188  -4.852   0.703  0.00  0.00    -0.270 OA
ATOM     15  N   UNL     1       0.061  -4.915  -1.209  0.00  0.00    -0.281 N 
ATOM     16  H   UNL     1      -0.433  -4.433  -1.891  0.00  0.00    +0.155 HD
BRANCH  13  21
ATOM     17  C   UNL     1       0.536   1.511  -0.133  0.00  0.00    +0.044 C 
ATOM     18  C   UNL     1       0.566   0.005  -0.146  0.00  0.00    -0.047 A 
ATOM     19  C   UNL     1      -0.031  -0.687  -1.188  0.00  0.00    +0.004 A 
ATOM     20  C   UNL     1      -0.010  -2.064  -1.210  0.00  0.00    +0.017 A 
ATOM     21  C   UNL     1       0.616  -2.768  -0.179  0.00  0.00    +0.078 A 
ATOM     22  C   UNL     1       1.220  -2.065   0.873  0.00  0.00    +0.129 A 
ATOM     23  C   UNL     1       1.193  -0.678   0.877  0.00  0.00    +0.049 A 
BRANCH  22  24
ATOM     24  O   UNL     1       1.830  -2.738   1.880  0.00  0.00    -0.506 OA
ATOM     25  H   UNL     1       2.768  -2.914   1.724  0.00  0.00    +0.292 HD
ENDBRANCH  22  24
ENDBRANCH  13  21
ENDBRANCH   1  15
BRANCH   5  26
ATOM     26  O   UNL     1       0.480  -8.934  -3.785  0.00  0.00    -0.493 OA
ATOM     27  C   UNL     1       0.469  -8.099  -4.944  0.00  0.00    +0.277 C 
ENDBRANCH   5  26
TORSDOF 5
