REMARK  Name = ZINC20899136
REMARK  6 active torsions:
REMARK  status: ('A' for Active; 'I' for Inactive)
REMARK    1  A    between atoms: C_1  and  C_2
REMARK    2  A    between atoms: C_2  and  C_3
REMARK    3  A    between atoms: C_3  and  C_4
REMARK    4  A    between atoms: C_4  and  N_5
REMARK    5  A    between atoms: C_24  and  C_27
REMARK    6  A    between atoms: C_30  and  O_33
REMARK                            x       y       z     vdW  Elec       q    Type
REMARK                         _______ _______ _______ _____ _____    ______ ____
ROOT
ATOM      1  N   UNL     1       1.498  -2.240  -2.566  0.00  0.00    -0.222 N 
ATOM      2  C   UNL     1       0.788  -2.441  -3.695  0.00  0.00    +0.261 C 
ATOM      3  O   UNL     1      -0.346  -2.014  -3.804  0.00  0.00    -0.269 OA
ATOM      4  C   UNL     1       1.422  -3.193  -4.792  0.00  0.00    +0.116 C 
ATOM      5  C   UNL     1       2.798  -3.672  -4.570  0.00  0.00    +0.258 C 
ATOM      6  N   UNL     1       3.386  -3.396  -3.388  0.00  0.00    -0.235 N 
ATOM      7  H   UNL     1       4.292  -3.704  -3.226  0.00  0.00    +0.159 HD
ATOM      8  C   UNL     1       2.750  -2.701  -2.435  0.00  0.00    +0.315 C 
ATOM      9  O   UNL     1       3.338  -2.481  -1.394  0.00  0.00    -0.252 OA
ATOM     10  O   UNL     1       3.387  -4.300  -5.430  0.00  0.00    -0.270 OA
ATOM     11  C   UNL     1       0.754  -3.438  -5.979  0.00  0.00    +0.027 C 
ATOM     12  N   UNL     1      -0.525  -3.314  -5.923  0.00  0.00    -0.316 N 
ATOM     13  C   UNL     1      -1.624  -3.205  -6.730  0.00  0.00    +0.045 A 
ATOM     14  C   UNL     1      -2.795  -2.791  -6.071  0.00  0.00    +0.024 A 
ATOM     15  C   UNL     1      -3.985  -2.637  -6.738  0.00  0.00    +0.002 A 
ATOM     16  C   UNL     1      -4.046  -2.893  -8.097  0.00  0.00    +0.001 A 
ATOM     17  C   UNL     1      -2.911  -3.295  -8.758  0.00  0.00    +0.016 A 
ATOM     18  C   UNL     1      -1.688  -3.456  -8.092  0.00  0.00    +0.030 A 
ATOM     19  S   UNL     1      -0.332  -3.966  -9.069  0.00  0.00    -0.115 S 
ATOM     20  C   UNL     1       1.148  -3.205  -8.420  0.00  0.00    +0.087 C 
ATOM     21  C   UNL     1       1.624  -3.801  -7.130  0.00  0.00    +0.071 C 
ATOM     22  H   UNL     1      -0.805  -3.291  -4.995  0.00  0.00    +0.152 HD
ENDROOT
BRANCH  20  23
ATOM     23  C   UNL     1       2.246  -3.339  -9.444  0.00  0.00    -0.034 A 
ATOM     24  C   UNL     1       2.650  -4.593  -9.862  0.00  0.00    +0.008 A 
ATOM     25  C   UNL     1       3.657  -4.719 -10.800  0.00  0.00    +0.046 A 
ATOM     26  C   UNL     1       4.262  -3.585 -11.322  0.00  0.00    +0.117 A 
ATOM     27  C   UNL     1       3.855  -2.328 -10.900  0.00  0.00    +0.046 A 
ATOM     28  C   UNL     1       2.844  -2.207  -9.966  0.00  0.00    +0.008 A 
BRANCH  26  29
ATOM     29  O   UNL     1       5.253  -3.706 -12.244  0.00  0.00    -0.507 OA
ATOM     30  H   UNL     1       4.940  -3.719 -13.158  0.00  0.00    +0.292 HD
ENDBRANCH  26  29
ENDBRANCH  20  23
BRANCH   1  31
ATOM     31  C   UNL     1       0.890  -1.496  -1.460  0.00  0.00    +0.118 C 
BRANCH  31  32
ATOM     32  C   UNL     1       1.190  -0.004  -1.624  0.00  0.00    +0.019 C 
BRANCH  32  34
ATOM     33  C   UNL     1       0.854   2.264  -0.633  0.00  0.00    +0.004 C 
ATOM     34  C   UNL     1       0.554   0.773  -0.469  0.00  0.00    -0.002 C 
ENDBRANCH  32  34
ENDBRANCH  31  32
ENDBRANCH   1  31
TORSDOF 5
