REMARK  Name = ZINC37668012
REMARK  7 active torsions:
REMARK  status: ('A' for Active; 'I' for Inactive)
REMARK    1  A    between atoms: C_1  and  S_2
REMARK    2  A    between atoms: S_2  and  N_5
REMARK    3  A    between atoms: N_5  and  C_6
REMARK    4  A    between atoms: C_6  and  C_7
REMARK    5  A    between atoms: C_7  and  N_8
REMARK    6  A    between atoms: N_8  and  C_9
REMARK    7  A    between atoms: C_11  and  N_16
REMARK                            x       y       z     vdW  Elec       q    Type
REMARK                         _______ _______ _______ _____ _____    ______ ____
ROOT
ATOM      1  N   UNL     1       4.205  -0.504  -2.903  0.00  0.00    -0.342 N 
ATOM      2  H   UNL     1       4.618   0.145  -2.311  0.00  0.00    +0.146 HD
ENDROOT
BRANCH   1   3
ATOM      3  C   UNL     1       4.957  -1.103  -3.915  0.00  0.00    +0.032 A 
ATOM      4  C   UNL     1       6.296  -0.776  -4.072  0.00  0.00    +0.045 A 
ATOM      5  C   UNL     1       7.041  -1.374  -5.079  0.00  0.00    +0.029 A 
ATOM      6  C   UNL     1       6.444  -2.299  -5.928  0.00  0.00    +0.061 A 
ATOM      7  C   UNL     1       5.109  -2.623  -5.769  0.00  0.00    +0.127 A 
ATOM      8  C   UNL     1       4.365  -2.032  -4.763  0.00  0.00    +0.061 A 
ATOM      9  F   UNL     1       4.530  -3.522  -6.596  0.00  0.00    -0.205 F 
BRANCH   5  10
ATOM     10  N   UNL     1       8.389  -1.047  -5.240  0.00  0.00    -0.358 N 
ATOM     11  H   UNL     1       8.805  -0.401  -4.647  0.00  0.00    +0.142 HD
ATOM     12  H   UNL     1       8.909  -1.465  -5.944  0.00  0.00    +0.142 HD
ENDBRANCH   5  10
ENDBRANCH   1   3
BRANCH   1  13
ATOM     13  C   UNL     1       2.792  -0.854  -2.733  0.00  0.00    +0.118 C 
BRANCH  13  14
ATOM     14  C   UNL     1       2.207  -0.061  -1.563  0.00  0.00    +0.124 C 
BRANCH  14  15
ATOM     15  N   UNL     1       0.795  -0.411  -1.394  0.00  0.00    -0.193 NA
ATOM     16  H   UNL     1       0.324  -0.881  -2.099  0.00  0.00    +0.148 HD
BRANCH  15  18
ATOM     17  C   UNL     1      -0.022   1.810   0.012  0.00  0.00    +0.214 C 
ATOM     18  S   UNL     1       0.002  -0.004   0.002  0.00  0.00    +0.027 S 
ATOM     19  O   UNL     1       0.835  -0.488   1.046  0.00  0.00    -0.158 OA
ATOM     20  O   UNL     1      -1.315  -0.510  -0.168  0.00  0.00    -0.158 OA
ENDBRANCH  15  18
ENDBRANCH  14  15
ENDBRANCH  13  14
ENDBRANCH   1  13
TORSDOF 6
