REMARK  Name = ZINC40381100
REMARK  5 active torsions:
REMARK  status: ('A' for Active; 'I' for Inactive)
REMARK    1  A    between atoms: C_1  and  C_2
REMARK    2  A    between atoms: C_3  and  C_4
REMARK    3  A    between atoms: N_6  and  C_7
REMARK    4  A    between atoms: C_10  and  S_14
REMARK    5  A    between atoms: S_14  and  N_17
REMARK                            x       y       z     vdW  Elec       q    Type
REMARK                         _______ _______ _______ _____ _____    ______ ____
ROOT
ATOM      1  C   UNL     1       1.288  -4.202   1.883  0.00  0.00    +0.071 A 
ATOM      2  C   UNL     1       0.504  -4.873   0.951  0.00  0.00    +0.065 A 
ATOM      3  C   UNL     1       0.576  -6.250   0.854  0.00  0.00    +0.050 A 
ATOM      4  C   UNL     1       1.425  -6.960   1.683  0.00  0.00    +0.108 A 
ATOM      5  C   UNL     1       2.205  -6.296   2.611  0.00  0.00    +0.050 A 
ATOM      6  C   UNL     1       2.143  -4.919   2.711  0.00  0.00    +0.065 A 
ATOM      7 CL   UNL     1       3.129  -4.086   3.872  0.00  0.00    -0.082 Cl
ATOM      8 CL   UNL     1      -0.562  -3.982  -0.089  0.00  0.00    -0.082 Cl
ENDROOT
BRANCH   1  11
ATOM      9  C   UNL     1       2.023  -2.037   1.226  0.00  0.00    +0.241 C 
ATOM     10  O   UNL     1       2.871  -2.552   0.522  0.00  0.00    -0.271 OA
ATOM     11  N   UNL     1       1.219  -2.808   1.984  0.00  0.00    -0.280 N 
ATOM     12  H   UNL     1       0.592  -2.397   2.599  0.00  0.00    +0.155 HD
BRANCH   9  15
ATOM     13  C   UNL     1       2.518   1.686   0.526  0.00  0.00    +0.035 C 
ATOM     14  C   UNL     1       2.669   0.187   0.501  0.00  0.00    -0.025 C 
ATOM     15  C   UNL     1       1.875  -0.574   1.250  0.00  0.00    +0.063 C 
ENDBRANCH   9  15
ENDBRANCH   1  11
BRANCH   4  16
ATOM     16  S   UNL     1       1.511  -8.716   1.556  0.00  0.00    +0.056 S 
ATOM     17  O   UNL     1       1.975  -9.191   2.812  0.00  0.00    -0.153 OA
ATOM     18  O   UNL     1       0.281  -9.143   0.987  0.00  0.00    -0.153 OA
BRANCH  16  19
ATOM     19  N   UNL     1       2.692  -9.069   0.451  0.00  0.00    -0.204 NA
ATOM     20  H   UNL     1       3.201  -9.891   0.530  0.00  0.00    +0.144 HD
ATOM     21  H   UNL     1       2.876  -8.453  -0.276  0.00  0.00    +0.144 HD
ENDBRANCH  16  19
ENDBRANCH   4  16
TORSDOF 4
