REMARK  Name = ZINC04251915
REMARK  7 active torsions:
REMARK  status: ('A' for Active; 'I' for Inactive)
REMARK    1  A    between atoms: C_1  and  C_2
REMARK    2  A    between atoms: C_2  and  C_4
REMARK    3  A    between atoms: C_2  and  S_17
REMARK    4  A    between atoms: N_6  and  C_7
REMARK    5  A    between atoms: S_17  and  C_18
REMARK    6  A    between atoms: C_20  and  C_24
REMARK    7  A    between atoms: N_22  and  N_23
REMARK                            x       y       z     vdW  Elec       q    Type
REMARK                         _______ _______ _______ _____ _____    ______ ____
ROOT
ATOM      1  C   UNL     1      -0.838   7.790  -1.569  0.00  0.00    +0.029 C 
ATOM      2  C   UNL     1      -2.132   7.259  -0.950  0.00  0.00    +0.137 C 
ENDROOT
BRANCH   2   3
ATOM      3  C   UNL     1      -2.112   5.752  -0.958  0.00  0.00    +0.227 C 
ATOM      4  O   UNL     1      -2.637   5.143  -1.866  0.00  0.00    -0.275 OA
ATOM      5  N   UNL     1      -1.510   5.081   0.044  0.00  0.00    -0.309 N 
ATOM      6  H   UNL     1      -1.089   5.567   0.770  0.00  0.00    +0.149 HD
BRANCH   5   7
ATOM      7  C   UNL     1      -1.490   3.616   0.036  0.00  0.00    +0.035 C 
ATOM      8  C   UNL     1      -0.773   3.123  -1.223  0.00  0.00    +0.029 C 
ATOM      9  C   UNL     1      -0.753   1.593  -1.232  0.00  0.00    -0.008 C 
ATOM     10  C   UNL     1      -0.013   1.086   0.008  0.00  0.00    +0.007 C 
ATOM     11  C   UNL     1      -0.729   1.579   1.267  0.00  0.00    -0.008 C 
ATOM     12  C   UNL     1      -0.750   3.109   1.275  0.00  0.00    +0.029 C 
ATOM     13  C   UNL     1      -2.164   1.050   1.278  0.00  0.00    +0.007 C 
ATOM     14  C   UNL     1      -2.904   1.556   0.038  0.00  0.00    -0.008 C 
ATOM     15  C   UNL     1      -2.188   1.063  -1.221  0.00  0.00    +0.007 C 
ATOM     16  C   UNL     1      -2.925   3.086   0.047  0.00  0.00    +0.029 C 
ENDBRANCH   5   7
ENDBRANCH   2   3
BRANCH   2  17
ATOM     17  S   UNL     1      -3.547   7.848  -1.912  0.00  0.00    -0.074 S 
BRANCH  17  18
ATOM     18  C   UNL     1      -3.419   9.580  -1.615  0.00  0.00    +0.187 A 
ATOM     19  N   UNL     1      -2.507  10.163  -0.874  0.00  0.00    -0.221 NA
ATOM     20  C   UNL     1      -2.721  11.503  -0.878  0.00  0.00    +0.092 A 
ATOM     21  C   UNL     1      -3.812  11.749  -1.645  0.00  0.00    +0.138 A 
ATOM     22  N   UNL     1      -4.254  10.535  -2.111  0.00  0.00    -0.251 N 
BRANCH  20  23
ATOM     23  C   UNL     1      -1.909  12.518  -0.165  0.00  0.00    +0.002 A 
ATOM     24  C   UNL     1      -2.241  13.869  -0.254  0.00  0.00    +0.010 A 
ATOM     25  C   UNL     1      -1.485  14.809   0.416  0.00  0.00    +0.001 A 
ATOM     26  C   UNL     1      -0.392  14.414   1.166  0.00  0.00    +0.000 A 
ATOM     27  C   UNL     1      -0.054  13.075   1.254  0.00  0.00    +0.001 A 
ATOM     28  C   UNL     1      -0.807  12.126   0.593  0.00  0.00    +0.010 A 
ENDBRANCH  20  23
BRANCH  22  29
ATOM     29  N   UNL     1      -5.333  10.323  -2.923  0.00  0.00    -0.296 N 
ATOM     30  H   UNL     1      -6.171  10.178  -2.380  0.00  0.00    +0.163 HD
ATOM     31  H   UNL     1      -5.451  11.086  -3.573  0.00  0.00    +0.163 HD
ENDBRANCH  22  29
ENDBRANCH  17  18
ENDBRANCH   2  17
TORSDOF 6
