REMARK  Name = ZINC08998843
REMARK  17 active torsions:
REMARK  status: ('A' for Active; 'I' for Inactive)
REMARK    1  A    between atoms: C_1  and  C_2
REMARK    2  A    between atoms: C_2  and  C_3
REMARK    3  A    between atoms: C_3  and  N_4
REMARK    4  A    between atoms: N_4  and  C_5
REMARK    5  A    between atoms: N_4  and  S_8
REMARK    6  A    between atoms: C_5  and  C_6
REMARK    7  A    between atoms: C_6  and  C_7
REMARK    8  A    between atoms: S_8  and  C_11
REMARK    9  A    between atoms: C_14  and  C_17
REMARK   10  A    between atoms: C_17  and  N_19
REMARK   11  A    between atoms: N_21  and  C_31
REMARK   12  A    between atoms: C_25  and  O_29
REMARK   13  A    between atoms: O_29  and  C_30
REMARK   14  A    between atoms: C_31  and  C_32
REMARK   15  A    between atoms: C_32  and  O_33
REMARK   16  A    between atoms: O_33  and  C_34
REMARK   17  A    between atoms: C_34  and  C_35
REMARK                            x       y       z     vdW  Elec       q    Type
REMARK                         _______ _______ _______ _____ _____    ______ ____
ROOT
ATOM      1  C   UNL     1       2.634   7.596   0.090  0.00  0.00    +0.269 C 
ATOM      2  O   UNL     1       1.450   7.884   0.085  0.00  0.00    -0.268 OA
ENDROOT
BRANCH   1   3
ATOM      3  N   UNL     1       3.010   6.313   0.059  0.00  0.00    -0.152 NA
ATOM      4  C   UNL     1       2.093   5.353   0.022  0.00  0.00    +0.167 A 
ATOM      5  N   UNL     1       2.282   4.007  -0.013  0.00  0.00    -0.319 N 
ATOM      6  C   UNL     1       1.193   3.153  -0.049  0.00  0.00    +0.058 A 
ATOM      7  C   UNL     1       1.188   1.750  -0.088  0.00  0.00    +0.030 A 
ATOM      8  C   UNL     1       0.005   1.051  -0.120  0.00  0.00    +0.048 A 
ATOM      9  C   UNL     1      -1.219   1.708  -0.120  0.00  0.00    +0.121 A 
ATOM     10  C   UNL     1      -1.241   3.095  -0.077  0.00  0.00    +0.062 A 
ATOM     11  C   UNL     1      -0.056   3.791  -0.045  0.00  0.00    +0.042 A 
ATOM     12  S   UNL     1       0.366   5.514   0.007  0.00  0.00    -0.052 S 
BRANCH   9  13
ATOM     13  O   UNL     1      -2.380   1.001  -0.158  0.00  0.00    -0.495 OA
ATOM     14  C   UNL     1      -2.272  -0.423  -0.196  0.00  0.00    +0.277 C 
ENDBRANCH   9  13
BRANCH   5  15
ATOM     15  C   UNL     1       3.641   3.459  -0.013  0.00  0.00    +0.152 C 
BRANCH  15  16
ATOM     16  C   UNL     1       4.555   4.362  -0.844  0.00  0.00    +0.181 C 
BRANCH  16  17
ATOM     17  O   UNL     1       5.846   3.759  -0.956  0.00  0.00    -0.378 OA
BRANCH  17  18
ATOM     18  C   UNL     1       6.781   4.525  -1.718  0.00  0.00    +0.156 C 
ATOM     19  C   UNL     1       8.121   3.789  -1.771  0.00  0.00    +0.034 C 
ENDBRANCH  17  18
ENDBRANCH  16  17
ENDBRANCH  15  16
ENDBRANCH   5  15
ENDBRANCH   1   3
BRANCH   1  23
ATOM     20  C   UNL     1       5.568  10.668   0.211  0.00  0.00    +0.106 A 
ATOM     21  C   UNL     1       4.225  10.998   0.204  0.00  0.00    +0.029 A 
ATOM     22  C   UNL     1       3.268  10.005   0.165  0.00  0.00    +0.015 A 
ATOM     23  C   UNL     1       3.657   8.666   0.132  0.00  0.00    +0.039 A 
ATOM     24  C   UNL     1       5.013   8.340   0.145  0.00  0.00    +0.015 A 
ATOM     25  C   UNL     1       5.961   9.342   0.178  0.00  0.00    +0.029 A 
BRANCH  20  26
ATOM     26  S   UNL     1       6.785  11.942   0.261  0.00  0.00    +0.061 S 
ATOM     27  O   UNL     1       7.973  11.391  -0.291  0.00  0.00    -0.153 OA
ATOM     28  O   UNL     1       6.171  13.111  -0.264  0.00  0.00    -0.153 OA
BRANCH  26  29
ATOM     29  N   UNL     1       7.104  12.251   1.857  0.00  0.00    -0.177 NA
BRANCH  29  30
ATOM     30  C   UNL     1       8.162  11.512   2.549  0.00  0.00    +0.109 C 
BRANCH  30  32
ATOM     31  C   UNL     1      10.565  11.551   3.232  0.00  0.00    +0.005 C 
ATOM     32  C   UNL     1       9.459  12.323   2.510  0.00  0.00    +0.014 C 
ENDBRANCH  30  32
ENDBRANCH  29  30
BRANCH  29  33
ATOM     33  C   UNL     1       6.327  13.264   2.576  0.00  0.00    +0.109 C 
BRANCH  33  34
ATOM     34  C   UNL     1       5.170  12.589   3.316  0.00  0.00    +0.014 C 
ATOM     35  C   UNL     1       4.359  13.646   4.067  0.00  0.00    +0.005 C 
ENDBRANCH  33  34
ENDBRANCH  29  33
ENDBRANCH  26  29
ENDBRANCH  20  26
ENDBRANCH   1  23
TORSDOF 13
