REMARK  Name = ZINC15015415
REMARK  8 active torsions:
REMARK  status: ('A' for Active; 'I' for Inactive)
REMARK    1  A    between atoms: C_4  and  C_7
REMARK    2  A    between atoms: C_8  and  C_9
REMARK    3  A    between atoms: C_8  and  N_23
REMARK    4  A    between atoms: N_11  and  N_12
REMARK    5  A    between atoms: C_13  and  C_14
REMARK    6  A    between atoms: C_16  and  O_22
REMARK    7  A    between atoms: C_17  and  O_21
REMARK    8  A    between atoms: C_24  and  C_26
REMARK                            x       y       z     vdW  Elec       q    Type
REMARK                         _______ _______ _______ _____ _____    ______ ____
ROOT
ATOM      1  C   UNL     1       0.242  -2.676  -0.122  0.00  0.00    +0.036 C 
ATOM      2  C   UNL     1      -0.975  -2.087  -0.182  0.00  0.00    +0.098 C 
ENDROOT
BRANCH   1   6
ATOM      3  C   UNL     1       3.755  -0.302  -0.198  0.00  0.00    +0.000 A 
ATOM      4  C   UNL     1       3.798  -1.577   0.338  0.00  0.00    +0.001 A 
ATOM      5  C   UNL     1       2.660  -2.355   0.367  0.00  0.00    +0.008 A 
ATOM      6  C   UNL     1       1.460  -1.853  -0.148  0.00  0.00    -0.023 A 
ATOM      7  C   UNL     1       1.427  -0.565  -0.694  0.00  0.00    +0.008 A 
ATOM      8  C   UNL     1       2.572   0.203  -0.709  0.00  0.00    +0.001 A 
ENDBRANCH   1   6
BRANCH   2   9
ATOM      9  C   UNL     1      -2.185  -2.910  -0.312  0.00  0.00    +0.277 C 
ATOM     10  O   UNL     1      -3.279  -2.380  -0.366  0.00  0.00    -0.267 OA
ATOM     11  N   UNL     1      -2.083  -4.253  -0.372  0.00  0.00    -0.202 N 
ATOM     12  H   UNL     1      -1.211  -4.675  -0.329  0.00  0.00    +0.178 HD
BRANCH  11  13
ATOM     13  N   UNL     1      -3.236  -5.038  -0.496  0.00  0.00    -0.187 NA
ATOM     14  C   UNL     1      -3.138  -6.332  -0.554  0.00  0.00    +0.138 C 
BRANCH  14  15
ATOM     15  C   UNL     1      -4.352  -7.158  -0.684  0.00  0.00    -0.001 A 
ATOM     16  C   UNL     1      -4.248  -8.550  -0.752  0.00  0.00    +0.058 A 
ATOM     17  C   UNL     1      -5.389  -9.320  -0.868  0.00  0.00    +0.160 A 
ATOM     18  C   UNL     1      -6.639  -8.709  -0.930  0.00  0.00    +0.173 A 
ATOM     19  C   UNL     1      -6.744  -7.327  -0.869  0.00  0.00    +0.063 A 
ATOM     20  C   UNL     1      -5.609  -6.551  -0.746  0.00  0.00    +0.028 A 
ATOM     21 BR   UNL     1      -8.444  -6.504  -0.952  0.00  0.00    -0.046 Br
BRANCH  18  22
ATOM     22  O   UNL     1      -7.761  -9.469  -1.050  0.00  0.00    -0.503 OA
ATOM     23  H   UNL     1      -8.020  -9.644  -1.965  0.00  0.00    +0.292 HD
ENDBRANCH  18  22
BRANCH  17  24
ATOM     24  O   UNL     1      -5.291 -10.675  -0.928  0.00  0.00    -0.503 OA
ATOM     25  H   UNL     1      -5.198 -11.024  -1.826  0.00  0.00    +0.292 HD
ENDBRANCH  17  24
ENDBRANCH  14  15
ENDBRANCH  11  13
ENDBRANCH   2   9
BRANCH   2  26
ATOM     26  N   UNL     1      -1.081  -0.694  -0.120  0.00  0.00    -0.277 N 
ATOM     27  C   UNL     1      -1.693  -0.020  -1.113  0.00  0.00    +0.248 C 
ATOM     28  O   UNL     1      -2.235  -0.628  -2.016  0.00  0.00    -0.270 OA
ATOM     29  H   UNL     1      -0.713  -0.213   0.638  0.00  0.00    +0.155 HD
BRANCH  27  30
ATOM     30  C   UNL     1      -1.705   1.458  -1.105  0.00  0.00    +0.037 A 
ATOM     31  C   UNL     1      -1.186   2.157  -0.015  0.00  0.00    +0.013 A 
ATOM     32  C   UNL     1      -1.197   3.537  -0.015  0.00  0.00    +0.001 A 
ATOM     33  C   UNL     1      -1.729   4.227  -1.090  0.00  0.00    +0.000 A 
ATOM     34  C   UNL     1      -2.250   3.540  -2.172  0.00  0.00    +0.001 A 
ATOM     35  C   UNL     1      -2.241   2.160  -2.186  0.00  0.00    +0.013 A 
ENDBRANCH  27  30
ENDBRANCH   2  26
TORSDOF 8
