REMARK  Name = ZINC56142786
REMARK  5 active torsions:
REMARK  status: ('A' for Active; 'I' for Inactive)
REMARK    1  A    between atoms: C_5  and  C_6
REMARK    2  A    between atoms: N_8  and  N_9
REMARK    3  A    between atoms: C_10  and  C_12
REMARK    4  A    between atoms: C_12  and  N_13
REMARK    5  A    between atoms: N_16  and  C_17
REMARK                            x       y       z     vdW  Elec       q    Type
REMARK                         _______ _______ _______ _____ _____    ______ ____
ROOT
ATOM      1  N   UNL     1      -1.965  -3.171   0.003  0.00  0.00    -0.233 N 
ATOM      2  C   UNL     1      -1.733  -4.499  -0.006  0.00  0.00    +0.246 C 
ATOM      3  O   UNL     1      -0.594  -4.915  -0.019  0.00  0.00    -0.273 OA
ATOM      4  H   UNL     1      -2.876  -2.838   0.013  0.00  0.00    +0.173 HD
ENDROOT
BRANCH   1   7
ATOM      5  C   UNL     1      -1.122  -0.945   0.007  0.00  0.00    +0.267 C 
ATOM      6  O   UNL     1      -2.265  -0.527   0.020  0.00  0.00    -0.268 OA
ATOM      7  N   UNL     1      -0.890  -2.272  -0.002  0.00  0.00    -0.230 N 
ATOM      8  H   UNL     1       0.021  -2.605  -0.012  0.00  0.00    +0.173 HD
BRANCH   5  13
ATOM      9  C   UNL     1      -0.017   1.377   0.010  0.00  0.00    +0.024 A 
ATOM     10  C   UNL     1       1.215   2.026   0.001  0.00  0.00    -0.036 A 
ATOM     11  C   UNL     1       2.318   1.232  -0.015  0.00  0.00    -0.006 A 
ATOM     12  S   UNL     1       1.752  -0.343  -0.015  0.00  0.00    -0.088 S 
ATOM     13  C   UNL     1       0.002  -0.004   0.002  0.00  0.00    +0.076 A 
ATOM     14  C   UNL     1       3.756   1.658  -0.035  0.00  0.00    +0.043 C 
ATOM     15  C   UNL     1       3.896   3.018   0.657  0.00  0.00    +0.005 C 
ATOM     16  C   UNL     1       3.707   4.116  -0.385  0.00  0.00    +0.001 C 
ATOM     17  C   UNL     1       2.319   4.027  -1.014  0.00  0.00    +0.005 C 
ATOM     18  C   UNL     1       1.299   3.548   0.013  0.00  0.00    +0.036 C 
ENDBRANCH   5  13
ENDBRANCH   1   7
BRANCH   2  19
ATOM     19  C   UNL     1      -2.889  -5.466  -0.001  0.00  0.00    +0.203 C 
BRANCH  19  20
ATOM     20  N   UNL     1      -2.377  -6.838  -0.013  0.00  0.00    -0.291 N 
ATOM     21  C   UNL     1      -3.235  -7.878  -0.010  0.00  0.00    +0.300 C 
ATOM     22  O   UNL     1      -4.434  -7.676   0.002  0.00  0.00    -0.253 OA
ATOM     23  N   UNL     1      -2.764  -9.140  -0.021  0.00  0.00    -0.297 N 
ATOM     24  H   UNL     1      -1.420  -7.000  -0.022  0.00  0.00    +0.151 HD
ATOM     25  H   UNL     1      -1.808  -9.302  -0.031  0.00  0.00    +0.151 HD
BRANCH  23  26
ATOM     26  C   UNL     1      -3.697 -10.270  -0.019  0.00  0.00    +0.074 C 
ATOM     27  C   UNL     1      -4.106 -10.591   1.420  0.00  0.00    +0.022 C 
ATOM     28  C   UNL     1      -5.080 -11.771   1.423  0.00  0.00    +0.002 C 
ATOM     29  C   UNL     1      -4.403 -12.993   0.800  0.00  0.00    +0.000 C 
ATOM     30  C   UNL     1      -3.994 -12.672  -0.639  0.00  0.00    +0.002 C 
ATOM     31  C   UNL     1      -3.020 -11.492  -0.641  0.00  0.00    +0.022 C 
ENDBRANCH  23  26
ENDBRANCH  19  20
ENDBRANCH   2  19
TORSDOF 5
