REMARK  Name = ZINC36529813
REMARK  8 active torsions:
REMARK  status: ('A' for Active; 'I' for Inactive)
REMARK    1  A    between atoms: C_1  and  N_2
REMARK    2  A    between atoms: N_2  and  C_5
REMARK    3  A    between atoms: C_5  and  C_7
REMARK    4  A    between atoms: C_5  and  C_16
REMARK    5  A    between atoms: C_8  and  O_15
REMARK    6  A    between atoms: C_10  and  O_14
REMARK    7  A    between atoms: C_12  and  O_13
REMARK    8  A    between atoms: N_18  and  C_19
REMARK                            x       y       z     vdW  Elec       q    Type
REMARK                         _______ _______ _______ _____ _____    ______ ____
ROOT
ATOM      1  C   UNL     1      -0.005  -0.716  -1.450  0.00  0.00    +0.199 C 
ENDROOT
BRANCH   1   2
ATOM      2  C   UNL     1      -1.265  -1.543  -1.464  0.00  0.00    +0.065 A 
ATOM      3  C   UNL     1      -1.194  -2.911  -1.683  0.00  0.00    +0.129 A 
ATOM      4  C   UNL     1      -2.353  -3.672  -1.696  0.00  0.00    +0.091 A 
ATOM      5  C   UNL     1      -3.583  -3.066  -1.489  0.00  0.00    +0.124 A 
ATOM      6  C   UNL     1      -3.654  -1.698  -1.269  0.00  0.00    +0.091 A 
ATOM      7  C   UNL     1      -2.494  -0.938  -1.252  0.00  0.00    +0.129 A 
BRANCH   7   8
ATOM      8  O   UNL     1      -2.563   0.401  -1.031  0.00  0.00    -0.506 OA
ATOM      9  H   UNL     1      -2.665   0.928  -1.836  0.00  0.00    +0.292 HD
ENDBRANCH   7   8
BRANCH   5  10
ATOM     10  O   UNL     1      -4.719  -3.812  -1.503  0.00  0.00    -0.507 OA
ATOM     11  H   UNL     1      -4.969  -4.164  -0.637  0.00  0.00    +0.292 HD
ENDBRANCH   5  10
BRANCH   3  12
ATOM     12  O   UNL     1       0.011  -3.505  -1.885  0.00  0.00    -0.506 OA
ATOM     13  H   UNL     1       0.444  -3.804  -1.074  0.00  0.00    +0.292 HD
ENDBRANCH   3  12
ENDBRANCH   1   2
BRANCH   1  15
ATOM     14  C   UNL     1       0.213   1.550  -0.328  0.00  0.00    +0.133 C 
ATOM     15  N   UNL     1       0.030   0.099  -0.233  0.00  0.00    -0.291 N 
ATOM     16  C   UNL     1      -0.106  -0.485   0.974  0.00  0.00    +0.328 C 
ATOM     17  O   UNL     1       0.026   0.172   1.985  0.00  0.00    -0.279 OA
ENDBRANCH   1  15
BRANCH   1  18
ATOM     18  C   UNL     1       1.195  -1.627  -1.479  0.00  0.00    +0.239 C 
ATOM     19  O   UNL     1       1.793  -1.875  -0.453  0.00  0.00    -0.273 OA
ATOM     20  N   UNL     1       1.603  -2.167  -2.644  0.00  0.00    -0.311 N 
ATOM     21  H   UNL     1       1.124  -1.970  -3.464  0.00  0.00    +0.149 HD
BRANCH  20  22
ATOM     22  C   UNL     1       2.769  -3.053  -2.672  0.00  0.00    +0.073 C 
ATOM     23  C   UNL     1       4.044  -2.215  -2.784  0.00  0.00    +0.022 C 
ATOM     24  C   UNL     1       5.262  -3.140  -2.813  0.00  0.00    +0.002 C 
ATOM     25  C   UNL     1       5.161  -4.077  -4.018  0.00  0.00    +0.000 C 
ATOM     26  C   UNL     1       3.886  -4.916  -3.907  0.00  0.00    +0.002 C 
ATOM     27  C   UNL     1       2.668  -3.991  -3.877  0.00  0.00    +0.022 C 
ENDBRANCH  20  22
ENDBRANCH   1  18
TORSDOF 7
