REMARK  Name = ZINC20907542
REMARK  8 active torsions:
REMARK  status: ('A' for Active; 'I' for Inactive)
REMARK    1  A    between atoms: C_9  and  O_32
REMARK    2  A    between atoms: C_10  and  C_11
REMARK    3  A    between atoms: N_12  and  N_13
REMARK    4  A    between atoms: C_16  and  S_19
REMARK    5  A    between atoms: S_19  and  C_20
REMARK    6  A    between atoms: C_20  and  C_21
REMARK    7  A    between atoms: C_21  and  C_22
REMARK    8  A    between atoms: N_24  and  C_25
REMARK                            x       y       z     vdW  Elec       q    Type
REMARK                         _______ _______ _______ _____ _____    ______ ____
ROOT
ATOM      1  N   UNL     1      -2.570   8.059   0.005  0.00  0.00    -0.205 N 
ATOM      2  C   UNL     1      -2.561   9.446   0.021  0.00  0.00    +0.232 A 
ATOM      3  N   UNL     1      -3.662  10.256   0.035  0.00  0.00    -0.186 NA
ATOM      4  C   UNL     1      -3.232  11.553   0.048  0.00  0.00    +0.210 A 
ATOM      5  N   UNL     1      -1.920  11.545   0.042  0.00  0.00    -0.144 NA
ATOM      6  N   UNL     1      -1.496  10.210   0.031  0.00  0.00    -0.245 N 
ATOM      7  H   UNL     1      -3.526   7.515   0.004  0.00  0.00    +0.177 HD
ATOM      8  H   UNL     1      -0.493   9.756   0.029  0.00  0.00    +0.192 HD
ENDROOT
BRANCH   1  10
ATOM      9  C   UNL     1      -1.369   6.051  -0.023  0.00  0.00    +0.142 C 
ATOM     10  N   UNL     1      -1.361   7.351  -0.008  0.00  0.00    -0.187 NA
BRANCH   9  20
ATOM     11  C   UNL     1      -0.007   1.078  -0.086  0.00  0.00    +0.001 A 
ATOM     12  C   UNL     1      -1.229   1.747  -0.077  0.00  0.00    +0.001 A 
ATOM     13  C   UNL     1      -1.281   3.109  -0.057  0.00  0.00    +0.009 A 
ATOM     14  C   UNL     1      -0.091   3.847  -0.054  0.00  0.00    -0.006 A 
ATOM     15  C   UNL     1       1.153   3.170  -0.068  0.00  0.00    -0.017 A 
ATOM     16  C   UNL     1       1.169   1.765  -0.084  0.00  0.00    +0.008 A 
ATOM     17  C   UNL     1       2.346   3.913  -0.066  0.00  0.00    +0.012 A 
ATOM     18  C   UNL     1       2.319   5.273  -0.050  0.00  0.00    +0.046 A 
ATOM     19  C   UNL     1       1.120   5.983  -0.035  0.00  0.00    +0.126 A 
ATOM     20  C   UNL     1      -0.101   5.308  -0.037  0.00  0.00    +0.044 A 
BRANCH  19  21
ATOM     21  O   UNL     1       1.141   7.341  -0.020  0.00  0.00    -0.506 OA
ATOM     22  H   UNL     1       0.197   7.905  -0.009  0.00  0.00    +0.292 HD
ENDBRANCH  19  21
ENDBRANCH   9  20
ENDBRANCH   1  10
BRANCH   4  23
ATOM     23  S   UNL     1      -4.259  12.984   0.069  0.00  0.00    -0.084 S 
BRANCH  23  24
ATOM     24  C   UNL     1      -3.084  14.367   0.079  0.00  0.00    +0.086 C 
BRANCH  24  25
ATOM     25  C   UNL     1      -3.854  15.689   0.098  0.00  0.00    +0.107 C 
BRANCH  25  26
ATOM     26  C   UNL     1      -2.878  16.838   0.106  0.00  0.00    +0.218 C 
ATOM     27  O   UNL     1      -1.685  16.620   0.099  0.00  0.00    -0.275 OA
ATOM     28  N   UNL     1      -3.331  18.107   0.123  0.00  0.00    -0.285 N 
ATOM     29  H   UNL     1      -4.411  18.306   0.056  0.00  0.00    +0.155 HD
BRANCH  28  30
ATOM     30  C   UNL     1      -2.428  19.171   0.226  0.00  0.00    +0.047 A 
ATOM     31  C   UNL     1      -1.180  19.086  -0.377  0.00  0.00    +0.024 A 
ATOM     32  C   UNL     1      -0.292  20.139  -0.277  0.00  0.00    +0.002 A 
ATOM     33  C   UNL     1      -0.641  21.275   0.430  0.00  0.00    +0.001 A 
ATOM     34  C   UNL     1      -1.881  21.362   1.036  0.00  0.00    +0.017 A 
ATOM     35  C   UNL     1      -2.776  20.313   0.936  0.00  0.00    +0.039 A 
ATOM     36 BR   UNL     1      -4.471  20.433   1.766  0.00  0.00    -0.048 Br
ENDBRANCH  28  30
ENDBRANCH  25  26
ENDBRANCH  24  25
ENDBRANCH  23  24
ENDBRANCH   4  23
TORSDOF 8
