REMARK  Name = ZINC35770937
REMARK  14 active torsions:
REMARK  status: ('A' for Active; 'I' for Inactive)
REMARK    1  A    between atoms: C_1  and  C_2
REMARK    2  A    between atoms: C_2  and  C_3
REMARK    3  A    between atoms: C_3  and  C_5
REMARK    4  A    between atoms: C_3  and  N_6
REMARK    5  A    between atoms: N_6  and  C_7
REMARK    6  A    between atoms: C_7  and  C_8
REMARK    7  A    between atoms: C_18  and  C_20
REMARK    8  A    between atoms: C_23  and  O_26
REMARK    9  A    between atoms: O_26  and  C_27
REMARK   10  A    between atoms: C_28  and  C_30
REMARK   11  A    between atoms: C_33  and  O_38
REMARK   12  A    between atoms: C_35  and  O_36
REMARK   13  A    between atoms: O_36  and  C_37
REMARK   14  A    between atoms: O_38  and  C_39
REMARK                            x       y       z     vdW  Elec       q    Type
REMARK                         _______ _______ _______ _____ _____    ______ ____
ROOT
ATOM      1  C   UNL     1      -1.726  -2.496   3.219  0.00  0.00    +0.234 C 
ATOM      2  O   UNL     1      -1.262  -3.517   2.758  0.00  0.00    -0.274 OA
ATOM      3  N   UNL     1      -2.361  -2.521   4.408  0.00  0.00    -0.289 N 
ATOM      4  C   UNL     1      -2.932  -1.290   4.974  0.00  0.00    +0.114 C 
ATOM      5  C   UNL     1      -2.176  -0.957   6.269  0.00  0.00    +0.062 C 
ATOM      6  C   UNL     1      -1.984  -2.217   7.049  0.00  0.00    -0.003 A 
ATOM      7  C   UNL     1      -2.104  -3.499   6.608  0.00  0.00    -0.012 A 
ATOM      8  C   UNL     1      -1.863  -4.506   7.541  0.00  0.00    +0.013 A 
ATOM      9  C   UNL     1      -1.535  -4.186   8.814  0.00  0.00    +0.046 A 
ATOM     10  S   UNL     1      -1.548  -2.400   8.758  0.00  0.00    -0.101 S 
ATOM     11  C   UNL     1      -2.496  -3.779   5.154  0.00  0.00    +0.137 C 
ENDROOT
BRANCH  11  12
ATOM     12  C   UNL     1      -3.922  -4.260   5.089  0.00  0.00    -0.022 A 
ATOM     13  C   UNL     1      -4.920  -3.550   5.731  0.00  0.00    +0.009 A 
ATOM     14  C   UNL     1      -6.229  -3.989   5.673  0.00  0.00    +0.046 A 
ATOM     15  C   UNL     1      -6.541  -5.143   4.971  0.00  0.00    +0.120 A 
ATOM     16  C   UNL     1      -5.538  -5.854   4.327  0.00  0.00    +0.046 A 
ATOM     17  C   UNL     1      -4.232  -5.408   4.384  0.00  0.00    +0.009 A 
BRANCH  15  18
ATOM     18  O   UNL     1      -7.828  -5.577   4.913  0.00  0.00    -0.495 OA
ATOM     19  C   UNL     1      -8.076  -6.774   4.171  0.00  0.00    +0.277 C 
ENDBRANCH  15  18
ENDBRANCH  11  12
BRANCH   1  20
ATOM     20  C   UNL     1      -1.593  -1.199   2.463  0.00  0.00    +0.204 C 
BRANCH  20  21
ATOM     21  N   UNL     1      -0.870  -1.436   1.211  0.00  0.00    -0.286 N 
ATOM     22  C   UNL     1       0.473  -1.331   1.179  0.00  0.00    +0.251 C 
ATOM     23  O   UNL     1       1.025  -0.410   1.750  0.00  0.00    -0.270 OA
BRANCH  22  24
ATOM     24  C   UNL     1       1.273  -2.332   0.452  0.00  0.00    +0.079 A 
ATOM     25  C   UNL     1       0.831  -2.824  -0.780  0.00  0.00    +0.020 A 
ATOM     26  C   UNL     1       1.581  -3.758  -1.456  0.00  0.00    +0.046 A 
ATOM     27  C   UNL     1       2.779  -4.218  -0.918  0.00  0.00    +0.124 A 
ATOM     28  C   UNL     1       3.227  -3.737   0.304  0.00  0.00    +0.092 A 
ATOM     29  C   UNL     1       2.484  -2.792   0.991  0.00  0.00    +0.136 A 
BRANCH  29  30
ATOM     30  O   UNL     1       2.923  -2.317   2.183  0.00  0.00    -0.494 OA
ATOM     31  C   UNL     1       4.164  -2.832   2.670  0.00  0.00    +0.277 C 
ENDBRANCH  29  30
BRANCH  27  32
ATOM     32  O   UNL     1       3.513  -5.140  -1.591  0.00  0.00    -0.495 OA
ATOM     33  C   UNL     1       2.995  -5.593  -2.843  0.00  0.00    +0.277 C 
ENDBRANCH  27  32
ENDBRANCH  22  24
BRANCH  21  34
ATOM     34  C   UNL     1      -1.607  -1.787  -0.006  0.00  0.00    +0.074 C 
ATOM     35  C   UNL     1      -1.507  -3.295  -0.245  0.00  0.00    +0.028 C 
BRANCH  34  37
ATOM     36  C   UNL     1      -1.520   0.401  -1.210  0.00  0.00    +0.005 C 
ATOM     37  C   UNL     1      -1.006  -1.040  -1.198  0.00  0.00    +0.019 C 
ENDBRANCH  34  37
ENDBRANCH  21  34
ENDBRANCH  20  21
ENDBRANCH   1  20
TORSDOF 9
