REMARK  Name = ZINC23396239
REMARK  7 active torsions:
REMARK  status: ('A' for Active; 'I' for Inactive)
REMARK    1  A    between atoms: C_1  and  C_2
REMARK    2  A    between atoms: C_5  and  O_9
REMARK    3  A    between atoms: C_6  and  C_8
REMARK    4  A    between atoms: O_9  and  S_10
REMARK    5  A    between atoms: S_10  and  C_13
REMARK    6  A    between atoms: C_17  and  S_19
REMARK    7  A    between atoms: S_19  and  N_22
REMARK                            x       y       z     vdW  Elec       q    Type
REMARK                         _______ _______ _______ _____ _____    ______ ____
ROOT
ATOM      1  S   UNL     1      -2.715   0.852   0.027  0.00  0.00    +0.151 S 
ATOM      2  O   UNL     1      -3.772   1.677  -0.444  0.00  0.00    -0.131 OA
ATOM      3  O   UNL     1      -2.354  -0.363  -0.615  0.00  0.00    -0.131 OA
ENDROOT
BRANCH   1   4
ATOM      4  C   UNL     1      -1.267   1.856   0.056  0.00  0.00    +0.130 A 
ATOM      5  C   UNL     1      -0.018   1.266   0.117  0.00  0.00    +0.030 A 
ATOM      6  C   UNL     1       1.117   2.054   0.134  0.00  0.00    +0.004 A 
ATOM      7  C   UNL     1       1.005   3.431   0.095  0.00  0.00    +0.028 A 
ATOM      8  C   UNL     1      -0.244   4.021   0.039  0.00  0.00    +0.107 A 
ATOM      9  C   UNL     1      -1.380   3.233   0.023  0.00  0.00    +0.059 A 
BRANCH   8  10
ATOM     10  S   UNL     1      -0.388   5.776  -0.010  0.00  0.00    +0.056 S 
ATOM     11  O   UNL     1      -1.680   6.092   0.491  0.00  0.00    -0.153 OA
ATOM     12  O   UNL     1       0.801   6.298   0.566  0.00  0.00    -0.153 OA
BRANCH  10  13
ATOM     13  N   UNL     1      -0.377   6.224  -1.605  0.00  0.00    -0.204 NA
ATOM     14  H   UNL     1      -0.465   7.318  -1.679  0.00  0.00    +0.144 HD
ATOM     15  H   UNL     1      -1.223   5.751  -2.124  0.00  0.00    +0.144 HD
ENDBRANCH  10  13
ENDBRANCH   8  10
ENDBRANCH   1   4
BRANCH   1  16
ATOM     16  O   UNL     1      -3.048   0.501   1.470  0.00  0.00    -0.342 OA
BRANCH  16  21
ATOM     17  C   UNL     1      -5.357   4.732   4.384  0.00  0.00    +0.044 C 
ATOM     18  C   UNL     1      -4.739   3.599   3.604  0.00  0.00    -0.050 A 
ATOM     19  C   UNL     1      -3.364   3.511   3.488  0.00  0.00    +0.007 A 
ATOM     20  C   UNL     1      -2.795   2.474   2.774  0.00  0.00    +0.049 A 
ATOM     21  C   UNL     1      -3.605   1.521   2.173  0.00  0.00    +0.160 A 
ATOM     22  C   UNL     1      -4.984   1.615   2.286  0.00  0.00    -0.006 A 
ATOM     23  C   UNL     1      -5.548   2.651   3.006  0.00  0.00    +0.010 A 
ATOM     24  C   UNL     1      -5.867   0.586   1.629  0.00  0.00    +0.047 C 
ENDBRANCH  16  21
ENDBRANCH   1  16
TORSDOF 5
