REMARK  Name = ZINC11061766
REMARK  6 active torsions:
REMARK  status: ('A' for Active; 'I' for Inactive)
REMARK    1  A    between atoms: C_1  and  C_2
REMARK    2  A    between atoms: N_10  and  N_14
REMARK    3  A    between atoms: C_15  and  C_17
REMARK    4  A    between atoms: C_17  and  N_18
REMARK    5  A    between atoms: C_21  and  C_25
REMARK    6  A    between atoms: C_21  and  C_26
REMARK                            x       y       z     vdW  Elec       q    Type
REMARK                         _______ _______ _______ _____ _____    ______ ____
ROOT
ATOM      1  N   UNL     1      -0.143   7.666   4.827  0.00  0.00    -0.215 N 
ATOM      2  C   UNL     1       0.792   6.772   4.446  0.00  0.00    +0.251 C 
ATOM      3  O   UNL     1       1.538   6.142   5.164  0.00  0.00    -0.272 OA
ATOM      4  C   UNL     1       0.717   6.721   2.933  0.00  0.00    +0.135 C 
ATOM      5  N   UNL     1      -0.352   7.681   2.606  0.00  0.00    -0.281 N 
ATOM      6  C   UNL     1      -0.791   8.180   3.775  0.00  0.00    +0.310 C 
ATOM      7  O   UNL     1      -1.678   9.006   3.867  0.00  0.00    -0.252 OA
ATOM      8  C   UNL     1       2.045   7.158   2.312  0.00  0.00    +0.047 C 
ATOM      9  H   UNL     1      -0.675   7.909   1.720  0.00  0.00    +0.152 HD
ENDROOT
BRANCH   4  10
ATOM     10  C   UNL     1       0.346   5.336   2.467  0.00  0.00    -0.012 A 
ATOM     11  C   UNL     1       0.716   4.235   3.217  0.00  0.00    +0.010 A 
ATOM     12  C   UNL     1       0.380   2.961   2.796  0.00  0.00    +0.050 A 
ATOM     13  C   UNL     1      -0.330   2.792   1.619  0.00  0.00    +0.162 A 
ATOM     14  C   UNL     1      -0.702   3.897   0.867  0.00  0.00    +0.162 A 
ATOM     15  C   UNL     1      -0.364   5.171   1.292  0.00  0.00    +0.055 A 
ATOM     16  O   UNL     1      -1.402   3.720  -0.291  0.00  0.00    -0.488 OA
ATOM     17  C   UNL     1      -0.690   3.098  -1.362  0.00  0.00    +0.232 C 
ATOM     18  C   UNL     1      -0.736   1.583  -1.234  0.00  0.00    +0.082 C 
ATOM     19  C   UNL     1      -0.013   1.086   0.008  0.00  0.00    +0.232 C 
ATOM     20  O   UNL     1      -0.670   1.541   1.193  0.00  0.00    -0.488 OA
ENDBRANCH   4  10
BRANCH   1  21
ATOM     21  C   UNL     1      -0.415   8.028   6.220  0.00  0.00    +0.215 C 
BRANCH  21  23
ATOM     22  N   UNL     1       0.373   9.703   7.860  0.00  0.00    -0.222 N 
ATOM     23  C   UNL     1       0.453   9.194   6.614  0.00  0.00    +0.248 C 
ATOM     24  O   UNL     1       1.224   9.676   5.811  0.00  0.00    -0.273 OA
ATOM     25  H   UNL     1      -0.243   9.318   8.502  0.00  0.00    +0.174 HD
BRANCH  22  35
ATOM     26  C   UNL     1       5.258  15.485  10.232  0.00  0.00    +0.007 C 
ATOM     27  C   UNL     1       4.734  14.051  10.132  0.00  0.00    -0.014 C 
ATOM     28  C   UNL     1       4.738  13.609   8.667  0.00  0.00    +0.006 C 
ATOM     29  C   UNL     1       4.224  12.170   8.569  0.00  0.00    +0.035 C 
ATOM     30  C   UNL     1       2.811  12.094   9.137  0.00  0.00    +0.114 C 
ATOM     31  C   UNL     1       2.789  12.553  10.591  0.00  0.00    +0.035 C 
ATOM     32  C   UNL     1       3.308  13.990  10.682  0.00  0.00    +0.006 C 
ATOM     33  C   UNL     1       2.267  10.689   9.023  0.00  0.00    +0.263 C 
ATOM     34  O   UNL     1       2.712   9.685   9.535  0.00  0.00    -0.271 OA
ATOM     35  N   UNL     1       1.181  10.787   8.227  0.00  0.00    -0.137 N 
ATOM     36  C   UNL     1       0.968  12.050   7.837  0.00  0.00    +0.326 C 
ATOM     37  O   UNL     1       0.047  12.389   7.120  0.00  0.00    -0.251 OA
ATOM     38  N   UNL     1       1.888  12.902   8.329  0.00  0.00    -0.284 N 
ATOM     39  H   UNL     1       1.932  13.859   8.179  0.00  0.00    +0.151 HD
ENDBRANCH  22  35
ENDBRANCH  21  23
ENDBRANCH   1  21
TORSDOF 4
