REMARK  Name = ZINC09703970
REMARK  12 active torsions:
REMARK  status: ('A' for Active; 'I' for Inactive)
REMARK    1  A    between atoms: C_1  and  C_2
REMARK    2  A    between atoms: C_2  and  C_3
REMARK    3  A    between atoms: C_3  and  C_28
REMARK    4  A    between atoms: N_6  and  C_10
REMARK    5  A    between atoms: C_10  and  C_11
REMARK    6  A    between atoms: N_13  and  C_14
REMARK    7  A    between atoms: C_15  and  C_23
REMARK    8  A    between atoms: C_16  and  C_22
REMARK    9  A    between atoms: C_17  and  C_19
REMARK   10  A    between atoms: C_23  and  O_25
REMARK   11  A    between atoms: O_25  and  C_26
REMARK   12  A    between atoms: C_26  and  C_27
REMARK                            x       y       z     vdW  Elec       q    Type
REMARK                         _______ _______ _______ _____ _____    ______ ____
ROOT
ATOM      1  C   UNL     1      -3.406   0.523  -3.573  0.00  0.00    +0.236 C 
ATOM      2  O   UNL     1      -2.522  -0.221  -3.207  0.00  0.00    -0.274 OA
ATOM      3  N   UNL     1      -4.030   0.301  -4.747  0.00  0.00    -0.278 N 
ATOM      4  H   UNL     1      -4.738   0.896  -5.040  0.00  0.00    +0.155 HD
ENDROOT
BRANCH   3   5
ATOM      5  C   UNL     1      -3.661  -0.773  -5.533  0.00  0.00    +0.087 A 
ATOM      6  C   UNL     1      -4.186  -1.171  -6.767  0.00  0.00    +0.091 A 
ATOM      7  C   UNL     1      -3.639  -2.295  -7.369  0.00  0.00    -0.015 A 
ATOM      8  C   UNL     1      -2.631  -2.943  -6.707  0.00  0.00    +0.079 A 
ATOM      9  S   UNL     1      -2.440  -1.965  -5.229  0.00  0.00    -0.068 S 
ATOM     10  C   UNL     1      -4.140  -2.789  -8.701  0.00  0.00    +0.046 C 
BRANCH   8  11
ATOM     11  C   UNL     1      -1.894  -4.142  -7.112  0.00  0.00    +0.248 C 
ATOM     12  O   UNL     1      -2.157  -4.690  -8.167  0.00  0.00    -0.270 OA
ATOM     13  N   UNL     1      -0.925  -4.638  -6.318  0.00  0.00    -0.325 N 
ATOM     14  H   UNL     1      -0.716  -4.200  -5.478  0.00  0.00    +0.145 HD
ATOM     15  H   UNL     1      -0.437  -5.432  -6.586  0.00  0.00    +0.145 HD
ENDBRANCH   8  11
BRANCH   6  16
ATOM     16  C   UNL     1      -5.274  -0.423  -7.406  0.00  0.00    +0.342 C 
ATOM     17  O   UNL     1      -5.019   0.491  -8.166  0.00  0.00    -0.245 OA
BRANCH  16  18
ATOM     18  O   UNL     1      -6.557  -0.749  -7.151  0.00  0.00    -0.461 OA
BRANCH  18  19
ATOM     19  C   UNL     1      -7.582   0.035  -7.818  0.00  0.00    +0.229 C 
ATOM     20  C   UNL     1      -8.964  -0.478  -7.407  0.00  0.00    +0.048 C 
ENDBRANCH  18  19
ENDBRANCH  16  18
ENDBRANCH   6  16
ENDBRANCH   3   5
BRANCH   1  21
ATOM     21  C   UNL     1      -3.809   1.695  -2.716  0.00  0.00    +0.214 C 
BRANCH  21  25
ATOM     22  C   UNL     1      -1.332   2.114   0.020  0.00  0.00    +0.138 C 
ATOM     23  C   UNL     1      -1.812   2.367  -1.395  0.00  0.00    +0.251 C 
ATOM     24  O   UNL     1      -1.255   3.018  -2.253  0.00  0.00    -0.272 OA
ATOM     25  N   UNL     1      -2.988   1.717  -1.502  0.00  0.00    -0.215 N 
ATOM     26  C   UNL     1      -3.314   1.095  -0.363  0.00  0.00    +0.310 C 
ATOM     27  O   UNL     1      -4.329   0.444  -0.216  0.00  0.00    -0.252 OA
ATOM     28  N   UNL     1      -2.392   1.272   0.600  0.00  0.00    -0.281 N 
ATOM     29  H   UNL     1      -2.420   0.914   1.502  0.00  0.00    +0.152 HD
BRANCH  22  30
ATOM     30  C   UNL     1      -0.017   1.378   0.010  0.00  0.00    -0.015 A 
ATOM     31  C   UNL     1       1.171   2.086   0.002  0.00  0.00    +0.006 A 
ATOM     32  C   UNL     1       2.377   1.411  -0.015  0.00  0.00    +0.000 A 
ATOM     33  C   UNL     1       2.396   0.029  -0.022  0.00  0.00    +0.000 A 
ATOM     34  C   UNL     1       1.208  -0.679  -0.013  0.00  0.00    +0.000 A 
ATOM     35  C   UNL     1       0.002  -0.004   0.002  0.00  0.00    +0.006 A 
ENDBRANCH  22  30
BRANCH  22  37
ATOM     36  C   UNL     1      -2.578   4.096   0.891  0.00  0.00    +0.007 C 
ATOM     37  C   UNL     1      -1.204   3.431   0.788  0.00  0.00    +0.037 C 
ENDBRANCH  22  37
ENDBRANCH  21  25
ENDBRANCH   1  21
TORSDOF 9
