REMARK  Name = ZINC09245775
REMARK  13 active torsions:
REMARK  status: ('A' for Active; 'I' for Inactive)
REMARK    1  A    between atoms: C_1  and  C_2
REMARK    2  A    between atoms: C_2  and  C_3
REMARK    3  A    between atoms: C_3  and  O_4
REMARK    4  A    between atoms: O_4  and  C_5
REMARK    5  A    between atoms: C_8  and  C_11
REMARK    6  A    between atoms: C_18  and  N_35
REMARK    7  A    between atoms: C_19  and  C_33
REMARK    8  A    between atoms: C_20  and  C_22
REMARK    9  A    between atoms: C_25  and  N_28
REMARK   10  A    between atoms: N_28  and  C_29
REMARK   11  A    between atoms: N_28  and  C_31
REMARK   12  A    between atoms: C_29  and  C_30
REMARK   13  A    between atoms: C_31  and  C_32
REMARK                            x       y       z     vdW  Elec       q    Type
REMARK                         _______ _______ _______ _____ _____    ______ ____
ROOT
ATOM      1  C   UNL     1       2.699  -3.744  -4.783  0.00  0.00    +0.074 A 
ATOM      2  C   UNL     1       3.715  -4.631  -4.916  0.00  0.00    +0.054 A 
ATOM      3  C   UNL     1       4.054  -4.705  -6.281  0.00  0.00    +0.245 A 
ATOM      4  N   UNL     1       3.275  -3.897  -6.942  0.00  0.00    -0.135 NA
ATOM      5  H   UNL     1       1.716  -2.630  -6.253  0.00  0.00    +0.189 HD
ATOM      6  N   UNL     1       2.404  -3.277  -6.033  0.00  0.00    -0.273 N 
ATOM      7  O   UNL     1       5.049  -5.517  -6.733  0.00  0.00    -0.421 OA
ATOM      8  C   UNL     1       5.884  -6.045  -5.817  0.00  0.00    +0.201 C 
ATOM      9  C   UNL     1       5.659  -6.044  -4.486  0.00  0.00    +0.098 C 
ATOM     10  C   UNL     1       4.423  -5.444  -3.863  0.00  0.00    +0.102 C 
ENDROOT
BRANCH   1  14
ATOM     11  C   UNL     1       0.776  -2.638  -1.158  0.00  0.00    +0.121 A 
ATOM     12  C   UNL     1       0.017  -2.962  -2.274  0.00  0.00    +0.046 A 
ATOM     13  C   UNL     1       0.637  -3.321  -3.452  0.00  0.00    +0.013 A 
ATOM     14  C   UNL     1       2.030  -3.359  -3.521  0.00  0.00    +0.000 A 
ATOM     15  C   UNL     1       2.790  -3.032  -2.398  0.00  0.00    +0.013 A 
ATOM     16  C   UNL     1       2.163  -2.669  -1.225  0.00  0.00    +0.046 A 
BRANCH  11  17
ATOM     17  O   UNL     1       0.162  -2.284   0.001  0.00  0.00    -0.492 OA
BRANCH  17  18
ATOM     18  C   UNL     1      -1.267  -2.273   0.001  0.00  0.00    +0.229 C 
BRANCH  18  20
ATOM     19  C   UNL     1      -3.304  -1.841   1.381  0.00  0.00    +0.007 C 
ATOM     20  C   UNL     1      -1.774  -1.853   1.382  0.00  0.00    +0.038 C 
ENDBRANCH  18  20
ENDBRANCH  17  18
ENDBRANCH  11  17
ENDBRANCH   1  14
BRANCH  10  21
ATOM     21  C   UNL     1       3.516  -6.543  -3.373  0.00  0.00    -0.034 A 
ATOM     22  C   UNL     1       3.092  -7.530  -4.244  0.00  0.00    +0.006 A 
ATOM     23  C   UNL     1       2.260  -8.538  -3.795  0.00  0.00    +0.022 A 
ATOM     24  C   UNL     1       1.852  -8.560  -2.474  0.00  0.00    +0.013 A 
ATOM     25  C   UNL     1       2.276  -7.573  -1.603  0.00  0.00    +0.022 A 
ATOM     26  C   UNL     1       3.111  -6.568  -2.052  0.00  0.00    +0.006 A 
BRANCH  24  27
ATOM     27  N   UNL     1       1.009  -9.579  -2.020  0.00  0.00    -0.394 NA
ATOM     28  H   UNL     1       0.800 -10.207  -2.781  0.00  0.00    +0.126 HD
BRANCH  27  29
ATOM     29  C   UNL     1       1.676 -10.321  -0.941  0.00  0.00    +0.081 C 
ATOM     30  C   UNL     1       2.893 -11.056  -1.505  0.00  0.00    +0.022 C 
ENDBRANCH  27  29
BRANCH  27  31
ATOM     31  C   UNL     1      -0.239  -8.992  -1.512  0.00  0.00    +0.081 C 
ATOM     32  C   UNL     1      -1.000  -8.337  -2.666  0.00  0.00    +0.022 C 
ENDBRANCH  27  31
ENDBRANCH  24  27
ENDBRANCH  10  21
BRANCH   8  33
ATOM     33  N   UNL     1       7.043  -6.626  -6.268  0.00  0.00    -0.328 N 
ATOM     34  H   UNL     1       7.238  -6.645  -7.218  0.00  0.00    +0.145 HD
ATOM     35  H   UNL     1       7.668  -7.016  -5.637  0.00  0.00    +0.145 HD
ENDBRANCH   8  33
BRANCH   9  36
ATOM     36  C   UNL     1       6.637  -6.639  -3.627  0.00  0.00    +0.101 C 
ATOM     37  N   UNL     1       7.413  -7.112  -2.945  0.00  0.00    -0.191 NA
ENDBRANCH   9  36
TORSDOF 10
