REMARK  Name = ZINC14039589
REMARK  10 active torsions:
REMARK  status: ('A' for Active; 'I' for Inactive)
REMARK    1  A    between atoms: C_4  and  O_7
REMARK    2  A    between atoms: O_7  and  C_8
REMARK    3  A    between atoms: C_8  and  C_9
REMARK    4  A    between atoms: C_9  and  O_10
REMARK    5  A    between atoms: O_10  and  C_11
REMARK    6  A    between atoms: C_14  and  C_17
REMARK    7  A    between atoms: N_19  and  C_20
REMARK    8  A    between atoms: C_20  and  N_22
REMARK    9  A    between atoms: N_22  and  C_23
REMARK   10  A    between atoms: C_24  and  C_32
REMARK                            x       y       z     vdW  Elec       q    Type
REMARK                         _______ _______ _______ _____ _____    ______ ____
ROOT
ATOM      1  C   UNL     1      -0.697   9.365   1.945  0.00  0.00    +0.250 C 
ATOM      2  O   UNL     1      -1.225   9.751   2.970  0.00  0.00    -0.270 OA
ATOM      3  N   UNL     1      -0.378  10.248   0.978  0.00  0.00    -0.264 N 
ATOM      4  H   UNL     1       0.043   9.940   0.160  0.00  0.00    +0.157 HD
ENDROOT
BRANCH   1   8
ATOM      5  C   UNL     1       0.139   5.237   1.411  0.00  0.00    +0.121 A 
ATOM      6  C   UNL     1       0.474   6.146   0.415  0.00  0.00    +0.046 A 
ATOM      7  C   UNL     1       0.200   7.485   0.582  0.00  0.00    +0.016 A 
ATOM      8  C   UNL     1      -0.406   7.931   1.760  0.00  0.00    +0.037 A 
ATOM      9  C   UNL     1      -0.736   7.013   2.761  0.00  0.00    +0.016 A 
ATOM     10  C   UNL     1      -0.464   5.676   2.584  0.00  0.00    +0.046 A 
BRANCH   5  11
ATOM     11  O   UNL     1       0.406   3.917   1.240  0.00  0.00    -0.489 OA
BRANCH  11  12
ATOM     12  C   UNL     1       1.027   3.535   0.011  0.00  0.00    +0.270 C 
BRANCH  12  13
ATOM     13  C   UNL     1       1.248   2.021   0.001  0.00  0.00    +0.270 C 
BRANCH  13  14
ATOM     14  O   UNL     1      -0.016   1.355   0.009  0.00  0.00    -0.489 OA
BRANCH  14  18
ATOM     15  C   UNL     1       0.040  -2.770  -0.013  0.00  0.00    +0.000 A 
ATOM     16  C   UNL     1      -1.168  -2.096   0.002  0.00  0.00    +0.004 A 
ATOM     17  C   UNL     1      -1.189  -0.715   0.010  0.00  0.00    +0.045 A 
ATOM     18  C   UNL     1       0.002  -0.004   0.002  0.00  0.00    +0.121 A 
ATOM     19  C   UNL     1       1.212  -0.682  -0.019  0.00  0.00    +0.045 A 
ATOM     20  C   UNL     1       1.228  -2.064  -0.020  0.00  0.00    +0.004 A 
ENDBRANCH  14  18
ENDBRANCH  13  14
ENDBRANCH  12  13
ENDBRANCH  11  12
ENDBRANCH   5  11
ENDBRANCH   1   8
BRANCH   3  21
ATOM     21  C   UNL     1      -0.644  11.558   1.148  0.00  0.00    +0.141 C 
ATOM     22  S   UNL     1      -1.387  12.101   2.591  0.00  0.00    -0.018 S 
BRANCH  21  23
ATOM     23  N   UNL     1      -0.325  12.441   0.181  0.00  0.00    -0.291 N 
ATOM     24  H   UNL     1       0.096  12.133  -0.637  0.00  0.00    +0.154 HD
BRANCH  23  25
ATOM     25  C   UNL     1      -0.598  13.788   0.355  0.00  0.00    +0.084 A 
ATOM     26  C   UNL     1      -0.342  14.840  -0.514  0.00  0.00    +0.068 A 
ATOM     27  C   UNL     1      -0.735  16.173  -0.090  0.00  0.00    -0.023 A 
ATOM     28  C   UNL     1      -1.307  16.242   1.132  0.00  0.00    -0.004 A 
ATOM     29  S   UNL     1      -1.335  14.570   1.714  0.00  0.00    -0.077 S 
ATOM     30  C   UNL     1      -1.802  17.472   1.828  0.00  0.00    +0.043 C 
ATOM     31  C   UNL     1      -1.227  18.701   1.109  0.00  0.00    +0.005 C 
ATOM     32  C   UNL     1      -1.438  18.533  -0.398  0.00  0.00    +0.005 C 
ATOM     33  C   UNL     1      -0.528  17.426  -0.932  0.00  0.00    +0.037 C 
BRANCH  26  34
ATOM     34  C   UNL     1       0.298  14.614  -1.814  0.00  0.00    +0.244 C 
ATOM     35  O   UNL     1      -0.383  14.385  -2.796  0.00  0.00    -0.270 OA
ATOM     36  N   UNL     1       1.641  14.659  -1.921  0.00  0.00    -0.325 N 
ATOM     37  H   UNL     1       2.184  14.841  -1.138  0.00  0.00    +0.145 HD
ATOM     38  H   UNL     1       2.064  14.509  -2.781  0.00  0.00    +0.145 HD
ENDBRANCH  26  34
ENDBRANCH  23  25
ENDBRANCH  21  23
ENDBRANCH   3  21
TORSDOF 10
