REMARK  Name = ZINC41006285
REMARK  12 active torsions:
REMARK  status: ('A' for Active; 'I' for Inactive)
REMARK    1  A    between atoms: C_1  and  C_2
REMARK    2  A    between atoms: C_5  and  N_9
REMARK    3  A    between atoms: C_6  and  C_8
REMARK    4  A    between atoms: C_10  and  C_12
REMARK    5  A    between atoms: C_14  and  C_35
REMARK    6  A    between atoms: C_16  and  C_24
REMARK    7  A    between atoms: C_18  and  C_22
REMARK    8  A    between atoms: C_18  and  O_23
REMARK    9  A    between atoms: N_26  and  C_27
REMARK   10  A    between atoms: C_30  and  C_34
REMARK   11  A    between atoms: C_32  and  C_33
REMARK   12  A    between atoms: C_39  and  O_41
REMARK                            x       y       z     vdW  Elec       q    Type
REMARK                         _______ _______ _______ _____ _____    ______ ____
ROOT
ATOM      1  C   UNL     1       1.125  -6.616  -1.781  0.00  0.00    +0.149 C 
ATOM      2  C   UNL     1       0.639  -6.791  -3.224  0.00  0.00    +0.053 C 
ATOM      3  C   UNL     1      -0.743  -6.153  -3.375  0.00  0.00    +0.115 C 
ATOM      4  C   UNL     1      -1.752  -6.885  -2.489  0.00  0.00    +0.082 C 
ATOM      5  C   UNL     1      -1.356  -6.715  -1.019  0.00  0.00    +0.110 C 
ATOM      6  C   UNL     1       0.078  -7.178  -0.846  0.00  0.00    +0.148 C 
ATOM      7  O   UNL     1       0.377  -7.976   0.011  0.00  0.00    -0.296 OA
ATOM      8  C   UNL     1      -3.147  -6.300  -2.713  0.00  0.00    +0.042 C 
ENDROOT
BRANCH   2   9
ATOM      9  C   UNL     1       1.608  -6.121  -4.165  0.00  0.00    -0.039 A 
ATOM     10  C   UNL     1       1.628  -4.743  -4.270  0.00  0.00    +0.004 A 
ATOM     11  C   UNL     1       2.515  -4.126  -5.132  0.00  0.00    +0.004 A 
ATOM     12  C   UNL     1       3.384  -4.886  -5.892  0.00  0.00    +0.045 A 
ATOM     13  C   UNL     1       3.365  -6.269  -5.788  0.00  0.00    +0.117 A 
ATOM     14  C   UNL     1       2.478  -6.885  -4.918  0.00  0.00    +0.049 A 
BRANCH  13  15
ATOM     15  O   UNL     1       4.218  -7.018  -6.535  0.00  0.00    -0.507 OA
ATOM     16  H   UNL     1       5.066  -7.195  -6.104  0.00  0.00    +0.292 HD
ENDBRANCH  13  15
ENDBRANCH   2   9
BRANCH   1  18
ATOM     17  N   UNL     1       0.826  -4.612  -0.363  0.00  0.00    -0.285 N 
ATOM     18  C   UNL     1       1.331  -5.152  -1.490  0.00  0.00    +0.228 C 
ATOM     19  O   UNL     1       1.951  -4.460  -2.270  0.00  0.00    -0.275 OA
ATOM     20  H   UNL     1       0.381  -5.176   0.288  0.00  0.00    +0.155 HD
BRANCH  17  25
ATOM     21  C   UNL     1       1.301   0.964   0.568  0.00  0.00    +0.044 C 
ATOM     22  C   UNL     1       1.175  -0.517   0.321  0.00  0.00    -0.050 A 
ATOM     23  C   UNL     1       2.070  -1.155  -0.518  0.00  0.00    +0.005 A 
ATOM     24  C   UNL     1       1.957  -2.512  -0.747  0.00  0.00    +0.024 A 
ATOM     25  C   UNL     1       0.943  -3.237  -0.133  0.00  0.00    +0.036 A 
ATOM     26  C   UNL     1       0.046  -2.593   0.709  0.00  0.00    -0.029 A 
ATOM     27  C   UNL     1       0.168  -1.236   0.937  0.00  0.00    +0.008 A 
ATOM     28  C   UNL     1      -1.055  -3.375   1.377  0.00  0.00    +0.045 C 
ENDBRANCH  17  25
ENDBRANCH   1  18
BRANCH   3  29
ATOM     29  C   UNL     1      -0.674  -4.705  -2.963  0.00  0.00    +0.224 C 
ATOM     30  O   UNL     1      -0.621  -4.411  -1.788  0.00  0.00    -0.275 OA
ATOM     31  N   UNL     1      -0.672  -3.737  -3.901  0.00  0.00    -0.285 N 
ATOM     32  H   UNL     1      -0.775  -3.968  -4.837  0.00  0.00    +0.155 HD
BRANCH  31  33
ATOM     33  C   UNL     1      -0.523  -2.398  -3.523  0.00  0.00    +0.036 A 
ATOM     34  C   UNL     1      -0.777  -2.012  -2.213  0.00  0.00    +0.024 A 
ATOM     35  C   UNL     1      -0.628  -0.689  -1.844  0.00  0.00    +0.005 A 
ATOM     36  C   UNL     1      -0.228   0.250  -2.777  0.00  0.00    -0.050 A 
ATOM     37  C   UNL     1       0.025  -0.131  -4.082  0.00  0.00    +0.008 A 
ATOM     38  C   UNL     1      -0.116  -1.453  -4.456  0.00  0.00    -0.029 A 
ATOM     39  C   UNL     1       0.167  -1.869  -5.876  0.00  0.00    +0.045 C 
ATOM     40  C   UNL     1      -0.068   1.692  -2.370  0.00  0.00    +0.044 C 
ENDBRANCH  31  33
ENDBRANCH   3  29
BRANCH   4  41
ATOM     41  O   UNL     1      -1.758  -8.275  -2.822  0.00  0.00    -0.388 OA
ATOM     42  H   UNL     1      -2.377  -8.802  -2.298  0.00  0.00    +0.210 HD
ENDBRANCH   4  41
TORSDOF 7
