REMARK  Name = ZINC05881821
REMARK  3 active torsions:
REMARK  status: ('A' for Active; 'I' for Inactive)
REMARK    1  A    between atoms: C_6  and  N_7
REMARK    2  A    between atoms: N_7  and  S_8
REMARK    3  A    between atoms: S_8  and  C_11
REMARK                            x       y       z     vdW  Elec       q    Type
REMARK                         _______ _______ _______ _____ _____    ______ ____
ROOT
ATOM      1  S   UNL     1      -2.638   0.099   0.029  0.00  0.00    +0.092 S 
ATOM      2  O   UNL     1      -2.709   0.772   1.279  0.00  0.00    -0.148 OA
ATOM      3  O   UNL     1      -2.734   0.785  -1.212  0.00  0.00    -0.148 OA
ENDROOT
BRANCH   1   4
ATOM      4  C   UNL     1      -3.917  -1.112   0.035  0.00  0.00    +0.112 A 
ATOM      5  C   UNL     1      -4.425  -1.584  -1.163  0.00  0.00    +0.031 A 
ATOM      6  C   UNL     1      -5.428  -2.534  -1.169  0.00  0.00    +0.030 A 
ATOM      7  C   UNL     1      -5.928  -3.017   0.031  0.00  0.00    +0.067 A 
ATOM      8  C   UNL     1      -5.415  -2.541   1.240  0.00  0.00    +0.069 A 
ATOM      9  C   UNL     1      -4.404  -1.592   1.235  0.00  0.00    +0.056 A 
ATOM     10  N   UNL     1      -6.102  -3.201   2.256  0.00  0.00    -0.306 N 
ATOM     11  H   UNL     1      -5.963  -3.077   3.208  0.00  0.00    +0.170 HD
ATOM     12  C   UNL     1      -6.991  -4.039   1.692  0.00  0.00    +0.325 A 
ATOM     13  O   UNL     1      -7.753  -4.766   2.301  0.00  0.00    -0.247 OA
ATOM     14  N   UNL     1      -6.910  -3.951   0.351  0.00  0.00    -0.306 N 
ATOM     15  H   UNL     1      -7.445  -4.452  -0.284  0.00  0.00    +0.170 HD
ENDBRANCH   1   4
BRANCH   1  16
ATOM     16  N   UNL     1      -1.194  -0.713   0.010  0.00  0.00    -0.098 NA
BRANCH  16  22
ATOM     17  C   UNL     1      -0.017   1.386   0.010  0.00  0.00    +0.027 A 
ATOM     18  C   UNL     1       1.166   2.102   0.002  0.00  0.00    +0.016 A 
ATOM     19  C   UNL     1       2.380   1.429  -0.013  0.00  0.00    +0.049 A 
ATOM     20  C   UNL     1       2.404   0.018  -0.021  0.00  0.00    +0.051 A 
ATOM     21  C   UNL     1       1.217  -0.691  -0.013  0.00  0.00    +0.040 A 
ATOM     22  C   UNL     1       0.002  -0.004   0.002  0.00  0.00    +0.075 A 
ATOM     23  C   UNL     1       3.833  -0.362  -0.037  0.00  0.00    +0.251 C 
ATOM     24  O   UNL     1       4.265  -1.497  -0.048  0.00  0.00    -0.270 OA
ATOM     25  N   UNL     1       4.573   0.761  -0.038  0.00  0.00    -0.248 N 
ATOM     26  C   UNL     1       3.792   1.856  -0.025  0.00  0.00    +0.251 C 
ATOM     27  O   UNL     1       4.184   3.006  -0.023  0.00  0.00    -0.270 OA
ATOM     28  H   UNL     1       5.543   0.779  -0.048  0.00  0.00    +0.158 HD
ENDBRANCH  16  22
ENDBRANCH   1  16
TORSDOF 3
