REMARK  Name = ZINC40735196
REMARK  9 active torsions:
REMARK  status: ('A' for Active; 'I' for Inactive)
REMARK    1  A    between atoms: C_1  and  C_2
REMARK    2  A    between atoms: C_7  and  C_9
REMARK    3  A    between atoms: C_7  and  C_10
REMARK    4  A    between atoms: C_14  and  N_33
REMARK    5  A    between atoms: C_15  and  N_19
REMARK    6  A    between atoms: N_19  and  N_20
REMARK    7  A    between atoms: C_21  and  C_23
REMARK    8  A    between atoms: C_23  and  O_24
REMARK    9  A    between atoms: O_24  and  C_25
REMARK                            x       y       z     vdW  Elec       q    Type
REMARK                         _______ _______ _______ _____ _____    ______ ____
ROOT
ATOM      1  C   UNL     1      -1.167   2.280  -2.025  0.00  0.00    +0.013 C 
ATOM      2  C   UNL     1      -1.298   0.794  -1.655  0.00  0.00    -0.014 C 
ATOM      3  C   UNL     1      -2.599   0.158  -2.217  0.00  0.00    +0.030 C 
ATOM      4  C   UNL     1      -2.212  -1.340  -2.129  0.00  0.00    +0.076 C 
ATOM      5  C   UNL     1      -2.311  -1.747  -0.661  0.00  0.00    +0.029 C 
ATOM      6  C   UNL     1      -1.483  -0.885   0.275  0.00  0.00    -0.033 C 
ATOM      7  C   UNL     1      -1.294   0.560  -0.145  0.00  0.00    +0.014 C 
ATOM      8  C   UNL     1      -0.118  -1.546   0.516  0.00  0.00    +0.011 C 
ATOM      9  C   UNL     1      -2.210  -0.872   1.643  0.00  0.00    +0.011 C 
ATOM     10  N   UNL     1      -0.799  -1.393  -2.553  0.00  0.00    -0.310 N 
ATOM     11  C   UNL     1      -0.199  -0.072  -2.308  0.00  0.00    +0.113 C 
ATOM     12  C   UNL     1      -0.149  -2.494  -3.097  0.00  0.00    +0.148 A 
ATOM     13  C   UNL     1       1.156  -2.381  -3.577  0.00  0.00    +0.107 A 
ATOM     14  C   UNL     1       1.762  -3.518  -4.114  0.00  0.00    +0.161 A 
ATOM     15  N   UNL     1       1.077  -4.659  -4.147  0.00  0.00    -0.217 NA
ATOM     16  C   UNL     1      -0.154  -4.723  -3.683  0.00  0.00    +0.225 A 
ATOM     17  N   UNL     1      -0.761  -3.675  -3.164  0.00  0.00    -0.219 NA
ENDROOT
BRANCH  13  18
ATOM     18  N   UNL     1       1.842  -1.156  -3.523  0.00  0.00    -0.353 N 
ATOM     19  H   UNL     1       1.720  -0.566  -2.763  0.00  0.00    +0.143 HD
ATOM     20  H   UNL     1       2.437  -0.900  -4.245  0.00  0.00    +0.143 HD
ENDBRANCH  13  18
BRANCH  14  21
ATOM     21  N   UNL     1       3.061  -3.460  -4.606  0.00  0.00    -0.247 N 
ATOM     22  H   UNL     1       3.553  -2.625  -4.579  0.00  0.00    +0.172 HD
BRANCH  21  23
ATOM     23  N   UNL     1       3.659  -4.608  -5.142  0.00  0.00    -0.232 N 
ATOM     24  C   UNL     1       4.918  -4.552  -5.620  0.00  0.00    +0.267 C 
ATOM     25  O   UNL     1       5.533  -3.507  -5.585  0.00  0.00    -0.271 OA
ATOM     26  H   UNL     1       3.166  -5.444  -5.170  0.00  0.00    +0.173 HD
BRANCH  24  27
ATOM     27  C   UNL     1       5.561  -5.787  -6.197  0.00  0.00    +0.326 C 
BRANCH  27  28
ATOM     28  O   UNL     1       6.885  -5.475  -6.632  0.00  0.00    -0.481 OA
BRANCH  28  29
ATOM     29  C   UNL     1       7.609  -6.486  -7.182  0.00  0.00    +0.140 A 
ATOM     30  C   UNL     1       7.053  -7.751  -7.303  0.00  0.00    +0.048 A 
ATOM     31  C   UNL     1       7.789  -8.778  -7.862  0.00  0.00    +0.023 A 
ATOM     32  C   UNL     1       9.081  -8.546  -8.300  0.00  0.00    +0.043 A 
ATOM     33  C   UNL     1       9.638  -7.285  -8.179  0.00  0.00    +0.043 A 
ATOM     34  C   UNL     1       8.903  -6.253  -7.626  0.00  0.00    +0.084 A 
ATOM     35 CL   UNL     1       9.599  -4.670  -7.482  0.00  0.00    -0.080 Cl
ATOM     36 CL   UNL     1      10.004  -9.838  -9.000  0.00  0.00    -0.083 Cl
ENDBRANCH  28  29
ENDBRANCH  27  28
ENDBRANCH  24  27
ENDBRANCH  21  23
ENDBRANCH  14  21
TORSDOF 6
