REMARK  Name = ZINC14466914
REMARK  7 active torsions:
REMARK  status: ('A' for Active; 'I' for Inactive)
REMARK    1  A    between atoms: C_4  and  C_7
REMARK    2  A    between atoms: C_7  and  C_8
REMARK    3  A    between atoms: C_8  and  N_9
REMARK    4  A    between atoms: N_9  and  S_10
REMARK    5  A    between atoms: S_10  and  C_13
REMARK    6  A    between atoms: C_26  and  C_29
REMARK    7  A    between atoms: C_34  and  O_35
REMARK                            x       y       z     vdW  Elec       q    Type
REMARK                         _______ _______ _______ _____ _____    ______ ____
ROOT
ATOM      1  C   UNL     1       0.253  -0.184  -3.061  0.00  0.00    +0.106 A 
ATOM      2  C   UNL     1       1.423  -0.823  -2.692  0.00  0.00    +0.030 A 
ATOM      3  C   UNL     1       1.614  -2.153  -3.005  0.00  0.00    +0.025 A 
ATOM      4  C   UNL     1       0.640  -2.858  -3.701  0.00  0.00    +0.031 A 
ATOM      5  C   UNL     1      -0.545  -2.207  -4.063  0.00  0.00    -0.018 A 
ATOM      6  C   UNL     1      -0.726  -0.878  -3.748  0.00  0.00    +0.034 A 
ATOM      7  C   UNL     1      -1.574  -3.005  -4.765  0.00  0.00    +0.049 C 
ATOM      8  C   UNL     1      -2.595  -2.400  -5.674  0.00  0.00    -0.023 C 
ATOM      9  C   UNL     1      -2.886  -3.263  -6.640  0.00  0.00    -0.030 C 
ATOM     10  C   UNL     1      -2.063  -4.540  -6.465  0.00  0.00    +0.033 C 
ATOM     11  C   UNL     1      -0.843  -4.019  -5.694  0.00  0.00    +0.029 C 
ATOM     12  C   UNL     1      -0.144  -4.992  -4.762  0.00  0.00    +0.109 C 
ATOM     13  N   UNL     1       0.873  -4.195  -4.042  0.00  0.00    -0.336 N 
ATOM     14  H   UNL     1       1.718  -4.607  -3.802  0.00  0.00    +0.147 HD
ENDROOT
BRANCH  12  15
ATOM     15  C   UNL     1      -1.132  -5.578  -3.786  0.00  0.00    +0.017 A 
ATOM     16  C   UNL     1      -1.338  -4.970  -2.562  0.00  0.00    +0.029 A 
ATOM     17  C   UNL     1      -2.248  -5.504  -1.667  0.00  0.00    +0.043 A 
ATOM     18  C   UNL     1      -2.948  -6.653  -1.992  0.00  0.00    +0.043 A 
ATOM     19  C   UNL     1      -2.741  -7.267  -3.213  0.00  0.00    +0.084 A 
ATOM     20  C   UNL     1      -1.831  -6.729  -4.114  0.00  0.00    +0.140 A 
ATOM     21 CL   UNL     1      -3.619  -8.709  -3.620  0.00  0.00    -0.080 Cl
ATOM     22 CL   UNL     1      -2.509  -4.735  -0.133  0.00  0.00    -0.083 Cl
BRANCH  20  23
ATOM     23  O   UNL     1      -1.627  -7.331  -5.316  0.00  0.00    -0.505 OA
ATOM     24  H   UNL     1      -0.925  -7.996  -5.308  0.00  0.00    +0.292 HD
ENDBRANCH  20  23
ENDBRANCH  12  15
BRANCH   1  25
ATOM     25  S   UNL     1       0.013   1.515  -2.662  0.00  0.00    +0.058 S 
ATOM     26  O   UNL     1      -0.926   2.024  -3.599  0.00  0.00    -0.153 OA
ATOM     27  O   UNL     1       1.306   2.080  -2.496  0.00  0.00    -0.153 OA
BRANCH  25  28
ATOM     28  N   UNL     1      -0.721   1.571  -1.179  0.00  0.00    -0.190 NA
ATOM     29  H   UNL     1      -1.621   1.925  -1.096  0.00  0.00    +0.148 HD
BRANCH  28  30
ATOM     30  C   UNL     1      -0.013   1.086   0.008  0.00  0.00    +0.110 C 
BRANCH  30  31
ATOM     31  C   UNL     1      -0.729   1.579   1.267  0.00  0.00    +0.052 C 
BRANCH  31  35
ATOM     32  C   UNL     1       1.337   0.165   4.728  0.00  0.00    +0.000 A 
ATOM     33  C   UNL     1       1.681   1.380   4.166  0.00  0.00    +0.000 A 
ATOM     34  C   UNL     1       1.012   1.838   3.046  0.00  0.00    +0.003 A 
ATOM     35  C   UNL     1       0.000   1.080   2.488  0.00  0.00    -0.046 A 
ATOM     36  C   UNL     1      -0.347  -0.133   3.052  0.00  0.00    +0.003 A 
ATOM     37  C   UNL     1       0.324  -0.593   4.170  0.00  0.00    +0.000 A 
ENDBRANCH  31  35
ENDBRANCH  30  31
ENDBRANCH  28  30
ENDBRANCH  25  28
ENDBRANCH   1  25
TORSDOF 7
