REMARK  Name = ZINC42623891
REMARK  7 active torsions:
REMARK  status: ('A' for Active; 'I' for Inactive)
REMARK    1  A    between atoms: C_1  and  O_2
REMARK    2  A    between atoms: O_2  and  C_3
REMARK    3  A    between atoms: C_3  and  C_5
REMARK    4  A    between atoms: C_7  and  S_23
REMARK    5  A    between atoms: C_10  and  N_11
REMARK    6  A    between atoms: N_11  and  C_12
REMARK    7  A    between atoms: S_23  and  N_26
REMARK                            x       y       z     vdW  Elec       q    Type
REMARK                         _______ _______ _______ _____ _____    ______ ____
ROOT
ATOM      1  C   UNL     1      -1.244  -2.105   0.038  0.00  0.00    +0.082 A 
ATOM      2  C   UNL     1      -0.070  -2.854  -0.077  0.00  0.00    +0.045 A 
ATOM      3  C   UNL     1      -0.133  -4.229  -0.118  0.00  0.00    +0.106 A 
ATOM      4  C   UNL     1      -1.357  -4.876  -0.046  0.00  0.00    +0.030 A 
ATOM      5  C   UNL     1      -2.525  -4.152   0.067  0.00  0.00    +0.025 A 
ATOM      6  C   UNL     1      -2.482  -2.764   0.117  0.00  0.00    +0.042 A 
ENDROOT
BRANCH   3   7
ATOM      7  S   UNL     1       1.349  -5.171  -0.264  0.00  0.00    +0.056 S 
ATOM      8  O   UNL     1       0.982  -6.421  -0.831  0.00  0.00    -0.153 OA
ATOM      9  O   UNL     1       2.315  -4.317  -0.863  0.00  0.00    -0.153 OA
BRANCH   7  10
ATOM     10  N   UNL     1       1.882  -5.486   1.272  0.00  0.00    -0.204 NA
ATOM     11  H   UNL     1       1.382  -5.157   2.035  0.00  0.00    +0.144 HD
ATOM     12  H   UNL     1       2.694  -5.998   1.407  0.00  0.00    +0.144 HD
ENDBRANCH   7  10
ENDBRANCH   3   7
BRANCH   1  13
ATOM     13  C   UNL     1      -1.184  -0.634   0.083  0.00  0.00    +0.341 C 
ATOM     14  O   UNL     1      -2.210   0.017   0.078  0.00  0.00    -0.245 OA
BRANCH  13  16
ATOM     15  C   UNL     1      -0.006   1.419   0.172  0.00  0.00    +0.280 C 
ATOM     16  O   UNL     1       0.010  -0.009   0.130  0.00  0.00    -0.464 OA
ENDBRANCH  13  16
ENDBRANCH   1  13
BRANCH   6  17
ATOM     17  N   UNL     1      -3.655  -2.032   0.237  0.00  0.00    -0.336 N 
ATOM     18  H   UNL     1      -3.633  -1.065   0.170  0.00  0.00    +0.147 HD
BRANCH  17  19
ATOM     19  C   UNL     1      -4.928  -2.722   0.466  0.00  0.00    +0.101 C 
ATOM     20  C   UNL     1      -6.071  -1.854  -0.057  0.00  0.00    +0.027 C 
ATOM     21  C   UNL     1      -7.397  -2.486   0.384  0.00  0.00    +0.007 C 
ATOM     22  C   UNL     1      -7.532  -2.317   1.896  0.00  0.00    +0.035 C 
ATOM     23  C   UNL     1      -6.289  -2.802   2.596  0.00  0.00    -0.042 A 
ATOM     24  C   UNL     1      -5.093  -2.984   1.940  0.00  0.00    -0.024 A 
ATOM     25  C   UNL     1      -3.983  -3.427   2.646  0.00  0.00    +0.006 A 
ATOM     26  C   UNL     1      -4.071  -3.689   3.998  0.00  0.00    +0.000 A 
ATOM     27  C   UNL     1      -5.273  -3.510   4.655  0.00  0.00    +0.000 A 
ATOM     28  C   UNL     1      -6.376  -3.069   3.956  0.00  0.00    +0.004 A 
ENDBRANCH  17  19
ENDBRANCH   6  17
TORSDOF 6
