REMARK  Name = ZINC38573341
REMARK  6 active torsions:
REMARK  status: ('A' for Active; 'I' for Inactive)
REMARK    1  A    between atoms: C_1  and  C_2
REMARK    2  A    between atoms: C_7  and  C_30
REMARK    3  A    between atoms: C_9  and  C_12
REMARK    4  A    between atoms: C_12  and  C_13
REMARK    5  A    between atoms: C_13  and  N_14
REMARK    6  A    between atoms: C_15  and  C_17
REMARK                            x       y       z     vdW  Elec       q    Type
REMARK                         _______ _______ _______ _____ _____    ______ ____
ROOT
ATOM      1  N   UNL     1       3.154   3.861  -5.715  0.00  0.00    -0.314 N 
ATOM      2  C   UNL     1       3.963   4.935  -5.623  0.00  0.00    +0.227 C 
ATOM      3  O   UNL     1       3.564   5.951  -5.093  0.00  0.00    -0.275 OA
ATOM      4  H   UNL     1       3.473   3.049  -6.139  0.00  0.00    +0.149 HD
ENDROOT
BRANCH   2   5
ATOM      5  C   UNL     1       5.363   4.874  -6.177  0.00  0.00    +0.188 C 
ATOM      6  C   UNL     1       6.064   6.220  -5.967  0.00  0.00    +0.063 C 
ATOM      7  C   UNL     1       5.543   7.228  -6.959  0.00  0.00    -0.002 A 
ATOM      8  C   UNL     1       5.715   8.576  -6.684  0.00  0.00    +0.027 A 
ATOM      9  C   UNL     1       5.258   9.534  -7.568  0.00  0.00    +0.041 A 
ATOM     10  C   UNL     1       4.627   9.150  -8.738  0.00  0.00    +0.023 A 
ATOM     11  C   UNL     1       4.451   7.810  -9.017  0.00  0.00    +0.048 A 
ATOM     12  C   UNL     1       4.906   6.844  -8.126  0.00  0.00    +0.135 A 
ATOM     13  O   UNL     1       4.696   5.534  -8.430  0.00  0.00    -0.425 OA
ATOM     14  C   UNL     1       5.315   4.608  -7.668  0.00  0.00    +0.325 C 
ATOM     15  O   UNL     1       5.808   3.616  -8.150  0.00  0.00    -0.250 OA
ATOM     16 CL   UNL     1       5.477  11.219  -7.212  0.00  0.00    -0.084 Cl
ENDBRANCH   2   5
BRANCH   1  17
ATOM     17  C   UNL     1       1.793   3.920  -5.177  0.00  0.00    +0.109 C 
BRANCH  17  18
ATOM     18  C   UNL     1       1.093   2.580  -5.410  0.00  0.00    +0.056 C 
BRANCH  18  27
ATOM     19  C   UNL     1      -0.013   1.086   0.008  0.00  0.00    +0.044 C 
ATOM     20  C   UNL     1      -0.742   1.585  -1.213  0.00  0.00    -0.050 A 
ATOM     21  C   UNL     1      -2.112   1.796  -1.158  0.00  0.00    +0.005 A 
ATOM     22  C   UNL     1      -2.798   2.251  -2.263  0.00  0.00    +0.026 A 
ATOM     23  C   UNL     1      -2.112   2.504  -3.446  0.00  0.00    +0.047 A 
ATOM     24  N   UNL     1      -2.498   2.952  -4.689  0.00  0.00    -0.358 N 
ATOM     25  C   UNL     1      -1.411   3.028  -5.516  0.00  0.00    +0.017 A 
ATOM     26  H   UNL     1      -3.407   3.180  -4.942  0.00  0.00    +0.166 HD
ATOM     27  C   UNL     1      -0.307   2.641  -4.856  0.00  0.00    -0.018 A 
ATOM     28  C   UNL     1      -0.722   2.289  -3.496  0.00  0.00    +0.003 A 
ATOM     29  C   UNL     1      -0.047   1.832  -2.363  0.00  0.00    +0.013 A 
ATOM     30  C   UNL     1      -1.446   3.478  -6.954  0.00  0.00    +0.063 C 
ENDBRANCH  18  27
ENDBRANCH  17  18
ENDBRANCH   1  17
TORSDOF 4
