REMARK  Name = ZINC36348954
REMARK  6 active torsions:
REMARK  status: ('A' for Active; 'I' for Inactive)
REMARK    1  A    between atoms: C_6  and  C_7
REMARK    2  A    between atoms: C_7  and  S_8
REMARK    3  A    between atoms: S_8  and  C_9
REMARK    4  A    between atoms: C_10  and  C_22
REMARK    5  A    between atoms: C_11  and  N_14
REMARK    6  A    between atoms: N_14  and  C_15
REMARK                            x       y       z     vdW  Elec       q    Type
REMARK                         _______ _______ _______ _____ _____    ______ ____
ROOT
ATOM      1  C   UNL     1      -3.489  -1.748  -1.504  0.00  0.00    +0.120 A 
ATOM      2  C   UNL     1      -4.249  -2.198  -2.648  0.00  0.00    +0.098 A 
ATOM      3  C   UNL     1      -5.293  -3.065  -2.318  0.00  0.00    +0.103 A 
ATOM      4  S   UNL     1      -5.179  -3.194  -0.651  0.00  0.00    +0.029 S 
ATOM      5  N   UNL     1      -3.868  -2.207  -0.340  0.00  0.00    -0.202 NA
ENDROOT
BRANCH   2   6
ATOM      6  C   UNL     1      -3.953  -1.784  -4.022  0.00  0.00    +0.246 C 
ATOM      7  O   UNL     1      -3.181  -2.435  -4.701  0.00  0.00    -0.270 OA
ATOM      8  N   UNL     1      -4.536  -0.682  -4.534  0.00  0.00    -0.325 N 
ATOM      9  H   UNL     1      -5.152  -0.163  -3.993  0.00  0.00    +0.145 HD
ATOM     10  H   UNL     1      -4.340  -0.407  -5.443  0.00  0.00    +0.145 HD
ENDBRANCH   2   6
BRANCH   3  11
ATOM     11  N   UNL     1      -6.201  -3.671  -3.163  0.00  0.00    -0.306 N 
ATOM     12  H   UNL     1      -6.109  -3.575  -4.124  0.00  0.00    +0.153 HD
BRANCH  11  13
ATOM     13  C   UNL     1      -7.257  -4.427  -2.631  0.00  0.00    +0.048 A 
ATOM     14  C   UNL     1      -8.161  -3.838  -1.729  0.00  0.00    +0.030 A 
ATOM     15  C   UNL     1      -9.182  -4.588  -1.224  0.00  0.00    +0.072 A 
ATOM     16  C   UNL     1      -9.309  -5.932  -1.614  0.00  0.00    +0.249 A 
ATOM     17  N   UNL     1      -8.429  -6.471  -2.479  0.00  0.00    -0.327 N 
ATOM     18  C   UNL     1      -7.412  -5.728  -2.991  0.00  0.00    +0.109 A 
ATOM     19  O   UNL     1     -10.219  -6.612  -1.167  0.00  0.00    -0.268 OA
ATOM     20  H   UNL     1      -8.524  -7.400  -2.742  0.00  0.00    +0.168 HD
ENDBRANCH  11  13
ENDBRANCH   3  11
BRANCH   1  21
ATOM     21  S   UNL     1      -2.123  -0.648  -1.669  0.00  0.00    -0.100 S 
BRANCH  21  22
ATOM     22  C   UNL     1      -1.536  -0.418   0.032  0.00  0.00    +0.111 C 
BRANCH  22  28
ATOM     23  C   UNL     1      -0.547   1.877   0.163  0.00  0.00    +0.006 A 
ATOM     24  C   UNL     1       0.537   2.734   0.165  0.00  0.00    +0.020 A 
ATOM     25  C   UNL     1       1.819   2.227   0.038  0.00  0.00    +0.041 A 
ATOM     26  C   UNL     1       2.013   0.863  -0.091  0.00  0.00    +0.020 A 
ATOM     27  C   UNL     1       0.927   0.008  -0.093  0.00  0.00    +0.006 A 
ATOM     28  C   UNL     1      -0.353   0.515   0.034  0.00  0.00    -0.037 A 
ATOM     29 CL   UNL     1       3.182   3.302   0.040  0.00  0.00    -0.084 Cl
ENDBRANCH  22  28
ENDBRANCH  21  22
ENDBRANCH   1  21
TORSDOF 6
