REMARK  Name = ZINC41043928
REMARK  4 active torsions:
REMARK  status: ('A' for Active; 'I' for Inactive)
REMARK    1  A    between atoms: C_2  and  N_15
REMARK    2  A    between atoms: C_5  and  S_6
REMARK    3  A    between atoms: S_6  and  N_9
REMARK    4  A    between atoms: N_9  and  C_10
REMARK                            x       y       z     vdW  Elec       q    Type
REMARK                         _______ _______ _______ _____ _____    ______ ____
ROOT
ATOM      1  S   UNL     1      -1.352  -1.131   0.009  0.00  0.00    +0.100 S 
ATOM      2  O   UNL     1      -0.863  -2.351   0.549  0.00  0.00    -0.148 OA
ATOM      3  O   UNL     1      -2.455  -0.436   0.575  0.00  0.00    -0.148 OA
ENDROOT
BRANCH   1   8
ATOM      4  C   UNL     1      -0.016   1.351   0.009  0.00  0.00    +0.059 A 
ATOM      5  C   UNL     1       1.187   2.039   0.002  0.00  0.00    +0.034 A 
ATOM      6  C   UNL     1       2.346   1.331  -0.013  0.00  0.00    +0.069 A 
ATOM      7  S   UNL     1       1.753  -0.352  -0.017  0.00  0.00    -0.075 S 
ATOM      8  C   UNL     1       0.002  -0.004   0.002  0.00  0.00    +0.149 A 
BRANCH   5   9
ATOM      9  N   UNL     1       1.207   3.447   0.009  0.00  0.00    -0.358 N 
ATOM     10  H   UNL     1       0.374   3.944   0.019  0.00  0.00    +0.142 HD
ATOM     11  H   UNL     1       2.054   3.920   0.003  0.00  0.00    +0.142 HD
ENDBRANCH   5   9
ENDBRANCH   1   8
BRANCH   1  12
ATOM     12  N   UNL     1      -1.744  -1.436  -1.570  0.00  0.00    -0.068 NA
BRANCH  12  13
ATOM     13  C   UNL     1      -2.787  -2.299  -1.872  0.00  0.00    +0.223 A 
ATOM     14  N   UNL     1      -3.596  -2.975  -1.067  0.00  0.00    -0.123 NA
ATOM     15  N   UNL     1      -4.504  -3.727  -1.515  0.00  0.00    -0.148 NA
ATOM     16  C   UNL     1      -4.709  -3.888  -2.806  0.00  0.00    +0.183 A 
ATOM     17  S   UNL     1      -3.433  -2.815  -3.460  0.00  0.00    -0.036 S 
ENDBRANCH  12  13
ENDBRANCH   1  12
TORSDOF 4
