REMARK  Name = ZINC40757566
REMARK  5 active torsions:
REMARK  status: ('A' for Active; 'I' for Inactive)
REMARK    1  A    between atoms: C_4  and  N_7
REMARK    2  A    between atoms: N_7  and  N_8
REMARK    3  A    between atoms: C_10  and  N_27
REMARK    4  A    between atoms: C_11  and  O_15
REMARK    5  A    between atoms: O_15  and  C_16
REMARK                            x       y       z     vdW  Elec       q    Type
REMARK                         _______ _______ _______ _____ _____    ______ ____
ROOT
ATOM      1  N   UNL     1       3.663  -2.043   0.152  0.00  0.00    -0.249 N 
ATOM      2  C   UNL     1       4.872  -2.727   0.129  0.00  0.00    +0.163 A 
ATOM      3  C   UNL     1       4.898  -4.120   0.020  0.00  0.00    +0.129 A 
ATOM      4  C   UNL     1       6.138  -4.756   0.001  0.00  0.00    +0.246 A 
ATOM      5  N   UNL     1       7.242  -4.019   0.086  0.00  0.00    -0.199 NA
ATOM      6  C   UNL     1       7.175  -2.707   0.187  0.00  0.00    +0.227 A 
ATOM      7  N   UNL     1       6.024  -2.065   0.204  0.00  0.00    -0.217 NA
ATOM      8  H   UNL     1       2.828  -2.534   0.097  0.00  0.00    +0.172 HD
ENDROOT
BRANCH   3   9
ATOM      9  N   UNL     1       3.708  -4.859  -0.067  0.00  0.00    -0.351 N 
ATOM     10  H   UNL     1       2.852  -4.403  -0.052  0.00  0.00    +0.143 HD
ATOM     11  H   UNL     1       3.741  -5.825  -0.142  0.00  0.00    +0.143 HD
ENDBRANCH   3   9
BRANCH   1  12
ATOM     12  N   UNL     1       3.649  -0.646   0.255  0.00  0.00    -0.265 N 
ATOM     13  H   UNL     1       4.485  -0.156   0.310  0.00  0.00    +0.170 HD
BRANCH  12  17
ATOM     14  C   UNL     1       0.025   1.402   0.324  0.00  0.00    +0.000 A 
ATOM     15  C   UNL     1       1.215   2.102   0.403  0.00  0.00    +0.002 A 
ATOM     16  C   UNL     1       2.419   1.426   0.381  0.00  0.00    +0.024 A 
ATOM     17  C   UNL     1       2.434   0.041   0.278  0.00  0.00    +0.044 A 
ATOM     18  C   UNL     1       1.237  -0.660   0.199  0.00  0.00    +0.024 A 
ATOM     19  C   UNL     1       0.036   0.023   0.222  0.00  0.00    +0.002 A 
ENDBRANCH  12  17
ENDBRANCH   1  12
BRANCH   4  20
ATOM     20  O   UNL     1       6.219  -6.106  -0.102  0.00  0.00    -0.434 OA
BRANCH  20  21
ATOM     21  C   UNL     1       7.451  -6.664  -0.222  0.00  0.00    +0.156 A 
ATOM     22  C   UNL     1       7.967  -6.945  -1.467  0.00  0.00    +0.049 A 
ATOM     23  C   UNL     1       9.228  -7.517  -1.605  0.00  0.00    +0.019 A 
ATOM     24  C   UNL     1       9.986  -7.814  -0.512  0.00  0.00    +0.027 A 
ATOM     25  C   UNL     1       9.494  -7.542   0.775  0.00  0.00    +0.018 A 
ATOM     26  C   UNL     1       8.214  -6.955   0.928  0.00  0.00    +0.114 A 
ATOM     27  N   UNL     1       7.745  -6.691   2.151  0.00  0.00    -0.251 NA
ATOM     28  C   UNL     1       8.448  -6.959   3.224  0.00  0.00    +0.111 A 
ATOM     29  C   UNL     1       9.716  -7.531   3.144  0.00  0.00    +0.020 A 
ATOM     30  C   UNL     1      10.250  -7.837   1.925  0.00  0.00    +0.013 A 
ATOM     31 BR   UNL     1      11.696  -8.592  -0.728  0.00  0.00    -0.050 Br
ENDBRANCH  20  21
ENDBRANCH   4  20
TORSDOF 5
