REMARK  Name = ZINC20206445
REMARK  9 active torsions:
REMARK  status: ('A' for Active; 'I' for Inactive)
REMARK    1  A    between atoms: C_1  and  C_2
REMARK    2  A    between atoms: C_4  and  C_19
REMARK    3  A    between atoms: C_5  and  C_18
REMARK    4  A    between atoms: N_6  and  C_7
REMARK    5  A    between atoms: C_10  and  N_15
REMARK    6  A    between atoms: C_12  and  O_13
REMARK    7  A    between atoms: O_13  and  C_14
REMARK    8  A    between atoms: C_30  and  S_31
REMARK    9  A    between atoms: S_31  and  C_34
REMARK                            x       y       z     vdW  Elec       q    Type
REMARK                         _______ _______ _______ _____ _____    ______ ____
ROOT
ATOM      1  C   UNL     1       0.301   1.291  -0.086  0.00  0.00    +0.064 C 
ATOM      2  C   UNL     1      -0.040  -0.177  -0.040  0.00  0.00    +0.022 A 
ATOM      3  C   UNL     1       0.001  -1.018  -1.086  0.00  0.00    +0.031 A 
ATOM      4  C   UNL     1      -0.407  -2.335  -0.576  0.00  0.00    -0.003 A 
ATOM      5  C   UNL     1      -0.664  -2.156   0.774  0.00  0.00    +0.028 A 
ATOM      6  N   UNL     1      -0.433  -0.863   1.075  0.00  0.00    -0.314 N 
ATOM      7  C   UNL     1      -1.115  -3.223   1.738  0.00  0.00    +0.064 C 
ENDROOT
BRANCH   4   8
ATOM      8  C   UNL     1      -0.517  -3.541  -1.314  0.00  0.00    +0.026 C 
ATOM      9  C   UNL     1      -1.065  -3.528  -2.581  0.00  0.00    +0.079 C 
ATOM     10  C   UNL     1      -1.046  -4.732  -3.458  0.00  0.00    +0.138 C 
ATOM     11  N   UNL     1      -1.116  -5.955  -3.004  0.00  0.00    -0.284 NA
ATOM     12  N   UNL     1      -0.947  -4.418  -4.829  0.00  0.00    -0.201 N 
ATOM     13  C   UNL     1      -1.359  -3.171  -5.247  0.00  0.00    +0.183 C 
ATOM     14  N   UNL     1      -1.754  -2.179  -4.482  0.00  0.00    -0.152 NA
ATOM     15  C   UNL     1      -1.711  -2.317  -3.141  0.00  0.00    +0.273 C 
ATOM     16  O   UNL     1      -2.187  -1.467  -2.406  0.00  0.00    -0.268 OA
ATOM     17  S   UNL     1      -1.207  -3.256  -6.905  0.00  0.00    +0.049 S 
ATOM     18  N   UNL     1      -0.539  -4.788  -7.039  0.00  0.00    -0.174 NA
ATOM     19  C   UNL     1      -0.490  -5.222  -5.818  0.00  0.00    +0.257 C 
ATOM     20  H   UNL     1      -1.184  -6.114  -2.049  0.00  0.00    +0.188 HD
BRANCH  19  21
ATOM     21  S   UNL     1       0.158  -6.819  -5.455  0.00  0.00    +0.026 S 
ATOM     22  O   UNL     1       0.922  -7.170  -6.601  0.00  0.00    -0.167 OA
ATOM     23  O   UNL     1       0.780  -6.678  -4.185  0.00  0.00    -0.167 OA
ATOM     24  C   UNL     1      -1.297  -7.894  -5.322  0.00  0.00    +0.203 C 
ENDBRANCH  19  21
ENDBRANCH   4   8
BRANCH   6  25
ATOM     25  C   UNL     1      -0.581  -0.300   2.351  0.00  0.00    +0.089 A 
ATOM     26  C   UNL     1      -1.801   0.231   2.741  0.00  0.00    +0.032 A 
ATOM     27  C   UNL     1      -1.944   0.785   3.998  0.00  0.00    +0.035 A 
ATOM     28  C   UNL     1      -0.872   0.812   4.872  0.00  0.00    +0.130 A 
ATOM     29  C   UNL     1       0.348   0.284   4.491  0.00  0.00    +0.080 A 
ATOM     30  C   UNL     1       0.497  -0.279   3.233  0.00  0.00    +0.146 A 
BRANCH  28  31
ATOM     31  N   UNL     1      -1.031   1.407   6.218  0.00  0.00    +0.057 N 
ATOM     32  O   UNL     1      -2.096   1.869   6.552  0.00  0.00    -0.126 OA
ATOM     33  O   UNL     1      -0.095   1.431   6.982  0.00  0.00    -0.126 OA
ENDBRANCH  28  31
BRANCH  30  34
ATOM     34  O   UNL     1       1.694  -0.803   2.860  0.00  0.00    -0.493 OA
ATOM     35  C   UNL     1       2.755  -0.746   3.816  0.00  0.00    +0.277 C 
ENDBRANCH  30  34
ENDBRANCH   6  25
TORSDOF 5
