REMARK  Name = ZINC14041690
REMARK  9 active torsions:
REMARK  status: ('A' for Active; 'I' for Inactive)
REMARK    1  A    between atoms: C_4  and  C_7
REMARK    2  A    between atoms: C_7  and  C_8
REMARK    3  A    between atoms: C_8  and  O_9
REMARK    4  A    between atoms: O_9  and  C_10
REMARK    5  A    between atoms: C_13  and  C_16
REMARK    6  A    between atoms: N_18  and  C_19
REMARK    7  A    between atoms: C_19  and  N_21
REMARK    8  A    between atoms: N_21  and  C_22
REMARK    9  A    between atoms: C_23  and  C_31
REMARK                            x       y       z     vdW  Elec       q    Type
REMARK                         _______ _______ _______ _____ _____    ______ ____
ROOT
ATOM      1  C   UNL     1      -2.849   2.139   8.016  0.00  0.00    +0.250 C 
ATOM      2  O   UNL     1      -3.544   3.062   7.640  0.00  0.00    -0.270 OA
ATOM      3  N   UNL     1      -2.072   1.477   7.136  0.00  0.00    -0.264 N 
ATOM      4  H   UNL     1      -1.517   0.741   7.436  0.00  0.00    +0.157 HD
ENDROOT
BRANCH   1   8
ATOM      5  C   UNL     1      -2.868   0.996  12.106  0.00  0.00    +0.121 A 
ATOM      6  C   UNL     1      -3.663   2.053  11.677  0.00  0.00    +0.046 A 
ATOM      7  C   UNL     1      -3.660   2.426  10.352  0.00  0.00    +0.016 A 
ATOM      8  C   UNL     1      -2.855   1.742   9.437  0.00  0.00    +0.037 A 
ATOM      9  C   UNL     1      -2.061   0.677   9.871  0.00  0.00    +0.016 A 
ATOM     10  C   UNL     1      -2.066   0.313  11.199  0.00  0.00    +0.046 A 
BRANCH   5  11
ATOM     11  O   UNL     1      -2.874   0.631  13.413  0.00  0.00    -0.492 OA
BRANCH  11  12
ATOM     12  C   UNL     1      -2.034  -0.463  13.784  0.00  0.00    +0.233 C 
BRANCH  12  13
ATOM     13  C   UNL     1      -2.173  -0.726  15.285  0.00  0.00    +0.076 C 
BRANCH  13  17
ATOM     14  C   UNL     1       0.340  -3.997  16.397  0.00  0.00    +0.000 A 
ATOM     15  C   UNL     1       0.830  -2.704  16.435  0.00  0.00    +0.000 A 
ATOM     16  C   UNL     1       0.017  -1.646  16.075  0.00  0.00    +0.004 A 
ATOM     17  C   UNL     1      -1.286  -1.880  15.677  0.00  0.00    -0.044 A 
ATOM     18  C   UNL     1      -1.778  -3.172  15.646  0.00  0.00    +0.004 A 
ATOM     19  C   UNL     1      -0.963  -4.230  16.001  0.00  0.00    +0.000 A 
ENDBRANCH  13  17
ENDBRANCH  12  13
ENDBRANCH  11  12
ENDBRANCH   5  11
ENDBRANCH   1   8
BRANCH   3  20
ATOM     20  C   UNL     1      -2.066   1.840   5.837  0.00  0.00    +0.141 C 
ATOM     21  S   UNL     1      -3.045   3.140   5.307  0.00  0.00    -0.018 S 
BRANCH  20  22
ATOM     22  N   UNL     1      -1.289   1.179   4.957  0.00  0.00    -0.291 N 
ATOM     23  H   UNL     1      -0.735   0.442   5.257  0.00  0.00    +0.154 HD
BRANCH  22  24
ATOM     24  C   UNL     1      -1.283   1.551   3.622  0.00  0.00    +0.084 A 
ATOM     25  C   UNL     1      -0.558   0.998   2.575  0.00  0.00    +0.068 A 
ATOM     26  C   UNL     1      -0.732   1.580   1.257  0.00  0.00    -0.023 A 
ATOM     27  C   UNL     1      -1.601   2.615   1.194  0.00  0.00    -0.004 A 
ATOM     28  S   UNL     1      -2.179   2.821   2.855  0.00  0.00    -0.077 S 
ATOM     29  C   UNL     1      -1.979   3.405  -0.021  0.00  0.00    +0.043 C 
ATOM     30  C   UNL     1      -0.956   3.111  -1.127  0.00  0.00    +0.005 C 
ATOM     31  C   UNL     1      -0.758   1.595  -1.227  0.00  0.00    +0.005 C 
ATOM     32  C   UNL     1      -0.013   1.086   0.008  0.00  0.00    +0.037 C 
BRANCH  25  33
ATOM     33  C   UNL     1       0.351  -0.131   2.793  0.00  0.00    +0.244 C 
ATOM     34  O   UNL     1      -0.061  -1.272   2.693  0.00  0.00    -0.270 OA
ATOM     35  N   UNL     1       1.643   0.095   3.104  0.00  0.00    -0.325 N 
ATOM     36  H   UNL     1       1.971   1.004   3.184  0.00  0.00    +0.145 HD
ATOM     37  H   UNL     1       2.244  -0.652   3.249  0.00  0.00    +0.145 HD
ENDBRANCH  25  33
ENDBRANCH  22  24
ENDBRANCH  20  22
ENDBRANCH   3  20
TORSDOF 9
