REMARK  Name = ZINC20830696
REMARK  12 active torsions:
REMARK  status: ('A' for Active; 'I' for Inactive)
REMARK    1  A    between atoms: C_1  and  C_2
REMARK    2  A    between atoms: C_5  and  N_9
REMARK    3  A    between atoms: C_6  and  C_8
REMARK    4  A    between atoms: N_9  and  S_10
REMARK    5  A    between atoms: S_10  and  C_13
REMARK    6  A    between atoms: C_16  and  N_19
REMARK    7  A    between atoms: C_20  and  C_22
REMARK    8  A    between atoms: C_22  and  C_23
REMARK    9  A    between atoms: C_23  and  S_24
REMARK   10  A    between atoms: S_24  and  C_25
REMARK   11  A    between atoms: C_28  and  C_31
REMARK   12  A    between atoms: N_29  and  N_30
REMARK                            x       y       z     vdW  Elec       q    Type
REMARK                         _______ _______ _______ _____ _____    ______ ____
ROOT
ATOM      1  N   UNL     1       2.058   5.003   4.313  0.00  0.00    -0.285 N 
ATOM      2  C   UNL     1       3.090   5.046   5.179  0.00  0.00    +0.218 C 
ATOM      3  O   UNL     1       4.023   4.281   5.049  0.00  0.00    -0.275 OA
ATOM      4  H   UNL     1       1.178   5.643   4.474  0.00  0.00    +0.155 HD
ENDROOT
BRANCH   1   8
ATOM      5  C   UNL     1       2.201   2.449   1.025  0.00  0.00    +0.109 A 
ATOM      6  C   UNL     1       1.593   3.686   0.912  0.00  0.00    +0.030 A 
ATOM      7  C   UNL     1       1.540   4.533   2.002  0.00  0.00    +0.025 A 
ATOM      8  C   UNL     1       2.107   4.146   3.209  0.00  0.00    +0.033 A 
ATOM      9  C   UNL     1       2.721   2.905   3.317  0.00  0.00    +0.025 A 
ATOM     10  C   UNL     1       2.767   2.061   2.226  0.00  0.00    +0.030 A 
BRANCH   5  11
ATOM     11  S   UNL     1       2.262   1.368  -0.365  0.00  0.00    +0.072 S 
ATOM     12  O   UNL     1       3.367   0.500  -0.158  0.00  0.00    -0.150 OA
ATOM     13  O   UNL     1       2.142   2.187  -1.521  0.00  0.00    -0.150 OA
BRANCH  11  14
ATOM     14  N   UNL     1       0.902   0.424  -0.311  0.00  0.00    -0.216 N 
ATOM     15  H   UNL     1       0.994  -0.669  -0.231  0.00  0.00    +0.174 HD
BRANCH  14  20
ATOM     16  C   UNL     1      -4.230   2.826  -0.542  0.00  0.00    +0.044 C 
ATOM     17  C   UNL     1      -2.866   2.188  -0.480  0.00  0.00    -0.050 A 
ATOM     18  C   UNL     1      -1.819   2.726  -1.206  0.00  0.00    +0.005 A 
ATOM     19  C   UNL     1      -0.568   2.144  -1.153  0.00  0.00    +0.025 A 
ATOM     20  C   UNL     1      -0.362   1.016  -0.368  0.00  0.00    +0.051 A 
ATOM     21  C   UNL     1      -1.417   0.475   0.356  0.00  0.00    -0.028 A 
ATOM     22  C   UNL     1      -2.664   1.066   0.302  0.00  0.00    +0.008 A 
ATOM     23  C   UNL     1      -1.199  -0.751   1.204  0.00  0.00    +0.046 C 
ENDBRANCH  14  20
ENDBRANCH  11  14
ENDBRANCH   5  11
ENDBRANCH   1   8
BRANCH   2  24
ATOM     24  C   UNL     1       3.085   6.043   6.309  0.00  0.00    +0.107 C 
BRANCH  24  25
ATOM     25  C   UNL     1       4.361   5.881   7.138  0.00  0.00    +0.086 C 
BRANCH  25  26
ATOM     26  S   UNL     1       4.355   7.079   8.495  0.00  0.00    -0.084 S 
BRANCH  26  27
ATOM     27  C   UNL     1       5.891   6.682   9.261  0.00  0.00    +0.209 A 
ATOM     28  N   UNL     1       6.735   5.748   8.878  0.00  0.00    -0.121 NA
ATOM     29  N   UNL     1       7.756   5.730   9.658  0.00  0.00    -0.127 NA
ATOM     30  C   UNL     1       7.623   6.644  10.591  0.00  0.00    +0.182 A 
ATOM     31  N   UNL     1       6.424   7.281  10.364  0.00  0.00    -0.224 N 
BRANCH  30  32
ATOM     32  C   UNL     1       8.579   6.934  11.680  0.00  0.00    +0.024 A 
ATOM     33  C   UNL     1       9.900   6.472  11.619  0.00  0.00    +0.031 A 
ATOM     34  C   UNL     1      10.761   6.771  12.654  0.00  0.00    +0.111 A 
ATOM     35  N   UNL     1      10.352   7.471  13.695  0.00  0.00    -0.263 NA
ATOM     36  C   UNL     1       9.115   7.921  13.795  0.00  0.00    +0.111 A 
ATOM     37  C   UNL     1       8.189   7.673  12.803  0.00  0.00    +0.031 A 
ENDBRANCH  30  32
BRANCH  31  38
ATOM     38  N   UNL     1       5.881   8.302  11.092  0.00  0.00    -0.295 N 
ATOM     39  H   UNL     1       6.417   8.698  11.968  0.00  0.00    +0.163 HD
ATOM     40  H   UNL     1       4.909   8.727  10.803  0.00  0.00    +0.163 HD
ENDBRANCH  31  38
ENDBRANCH  26  27
ENDBRANCH  25  26
ENDBRANCH  24  25
ENDBRANCH   2  24
TORSDOF 10
