REMARK  Name = ZINC59385791
REMARK  6 active torsions:
REMARK  status: ('A' for Active; 'I' for Inactive)
REMARK    1  A    between atoms: C_1  and  C_2
REMARK    2  A    between atoms: C_3  and  C_17
REMARK    3  A    between atoms: C_4  and  C_10
REMARK    4  A    between atoms: C_13  and  O_16
REMARK    5  A    between atoms: N_19  and  N_20
REMARK    6  A    between atoms: C_21  and  C_22
REMARK                            x       y       z     vdW  Elec       q    Type
REMARK                         _______ _______ _______ _____ _____    ______ ____
ROOT
ATOM      1  C   UNL     1       0.654   1.353   0.049  0.00  0.00    +0.061 C 
ATOM      2  C   UNL     1       0.363  -0.126   0.026  0.00  0.00    +0.019 C 
ATOM      3  C   UNL     1      -0.916  -0.549  -0.037  0.00  0.00    +0.057 C 
ATOM      4  C   UNL     1      -1.165  -2.044  -0.058  0.00  0.00    +0.142 C 
ATOM      5  N   UNL     1       0.019  -2.918  -0.006  0.00  0.00    -0.288 N 
ATOM      6  C   UNL     1       1.237  -2.345   0.055  0.00  0.00    +0.304 C 
ATOM      7  O   UNL     1       2.221  -3.058   0.098  0.00  0.00    -0.252 OA
ATOM      8  N   UNL     1       1.400  -1.016   0.065  0.00  0.00    -0.273 N 
ATOM      9  H   UNL     1      -0.076  -3.883  -0.016  0.00  0.00    +0.151 HD
ATOM     10  H   UNL     1       2.303  -0.665   0.106  0.00  0.00    +0.156 HD
ENDROOT
BRANCH   4  11
ATOM     11  C   UNL     1      -1.928  -2.371  -1.315  0.00  0.00    -0.022 A 
ATOM     12  C   UNL     1      -1.282  -2.361  -2.537  0.00  0.00    +0.009 A 
ATOM     13  C   UNL     1      -1.980  -2.660  -3.691  0.00  0.00    +0.046 A 
ATOM     14  C   UNL     1      -3.330  -2.971  -3.623  0.00  0.00    +0.117 A 
ATOM     15  C   UNL     1      -3.976  -2.980  -2.396  0.00  0.00    +0.046 A 
ATOM     16  C   UNL     1      -3.273  -2.685  -1.244  0.00  0.00    +0.009 A 
BRANCH  14  17
ATOM     17  O   UNL     1      -4.019  -3.264  -4.758  0.00  0.00    -0.507 OA
ATOM     18  H   UNL     1      -4.017  -4.204  -4.987  0.00  0.00    +0.292 HD
ENDBRANCH  14  17
ENDBRANCH   4  11
BRANCH   3  19
ATOM     19  C   UNL     1      -1.991   0.372  -0.083  0.00  0.00    +0.263 C 
ATOM     20  O   UNL     1      -2.655   0.583   0.916  0.00  0.00    -0.269 OA
ATOM     21  N   UNL     1      -2.279   1.016  -1.232  0.00  0.00    -0.203 N 
ATOM     22  H   UNL     1      -1.799   0.794  -2.045  0.00  0.00    +0.178 HD
BRANCH  21  23
ATOM     23  N   UNL     1      -3.271   2.005  -1.251  0.00  0.00    -0.187 NA
ATOM     24  C   UNL     1      -3.548   2.625  -2.357  0.00  0.00    +0.139 C 
BRANCH  24  25
ATOM     25  C   UNL     1      -4.592   3.666  -2.377  0.00  0.00    +0.013 A 
ATOM     26  C   UNL     1      -4.896   4.331  -3.567  0.00  0.00    +0.012 A 
ATOM     27  C   UNL     1      -5.874   5.303  -3.580  0.00  0.00    +0.021 A 
ATOM     28  C   UNL     1      -6.554   5.622  -2.416  0.00  0.00    +0.042 A 
ATOM     29  C   UNL     1      -6.258   4.967  -1.232  0.00  0.00    +0.040 A 
ATOM     30  C   UNL     1      -5.285   3.988  -1.207  0.00  0.00    +0.051 A 
ATOM     31 CL   UNL     1      -4.920   3.162   0.276  0.00  0.00    -0.083 Cl
ATOM     32 CL   UNL     1      -7.782   6.848  -2.441  0.00  0.00    -0.083 Cl
ENDBRANCH  24  25
ENDBRANCH  21  23
ENDBRANCH   3  19
TORSDOF 5
