REMARK  Name = ZINC20907511
REMARK  8 active torsions:
REMARK  status: ('A' for Active; 'I' for Inactive)
REMARK    1  A    between atoms: C_4  and  N_7
REMARK    2  A    between atoms: C_8  and  C_10
REMARK    3  A    between atoms: C_10  and  C_11
REMARK    4  A    between atoms: C_11  and  S_12
REMARK    5  A    between atoms: S_12  and  C_13
REMARK    6  A    between atoms: N_18  and  N_19
REMARK    7  A    between atoms: C_20  and  C_21
REMARK    8  A    between atoms: C_30  and  O_31
REMARK                            x       y       z     vdW  Elec       q    Type
REMARK                         _______ _______ _______ _____ _____    ______ ____
ROOT
ATOM      1  C   UNL     1      -3.235  11.553   0.087  0.00  0.00    +0.210 A 
ATOM      2  N   UNL     1      -3.665  10.256   0.078  0.00  0.00    -0.186 NA
ATOM      3  C   UNL     1      -2.564   9.445   0.071  0.00  0.00    +0.232 A 
ATOM      4  N   UNL     1      -1.499  10.209   0.080  0.00  0.00    -0.245 N 
ATOM      5  N   UNL     1      -1.923  11.544   0.084  0.00  0.00    -0.144 NA
ATOM      6  N   UNL     1      -2.574   8.059   0.062  0.00  0.00    -0.205 N 
ATOM      7  H   UNL     1      -3.530   7.515   0.060  0.00  0.00    +0.177 HD
ATOM      8  H   UNL     1      -0.497   9.755   0.082  0.00  0.00    +0.192 HD
ENDROOT
BRANCH   6   9
ATOM      9  N   UNL     1      -1.365   7.350   0.055  0.00  0.00    -0.187 NA
ATOM     10  C   UNL     1      -1.374   6.050   0.046  0.00  0.00    +0.142 C 
BRANCH  10  11
ATOM     11  C   UNL     1      -0.106   5.306   0.039  0.00  0.00    +0.044 A 
ATOM     12  C   UNL     1      -0.097   3.845   0.029  0.00  0.00    -0.006 A 
ATOM     13  C   UNL     1      -1.287   3.107   0.027  0.00  0.00    +0.009 A 
ATOM     14  C   UNL     1      -1.236   1.745   0.012  0.00  0.00    +0.001 A 
ATOM     15  C   UNL     1      -0.014   1.075   0.011  0.00  0.00    +0.001 A 
ATOM     16  C   UNL     1       1.162   1.762   0.013  0.00  0.00    +0.008 A 
ATOM     17  C   UNL     1       1.146   3.167   0.022  0.00  0.00    -0.017 A 
ATOM     18  C   UNL     1       2.340   3.910   0.024  0.00  0.00    +0.012 A 
ATOM     19  C   UNL     1       2.314   5.269   0.034  0.00  0.00    +0.046 A 
ATOM     20  C   UNL     1       1.115   5.980   0.041  0.00  0.00    +0.126 A 
BRANCH  20  21
ATOM     21  O   UNL     1       1.136   7.338   0.050  0.00  0.00    -0.506 OA
ATOM     22  H   UNL     1       2.097   7.873   0.051  0.00  0.00    +0.292 HD
ENDBRANCH  20  21
ENDBRANCH  10  11
ENDBRANCH   6   9
BRANCH   1  23
ATOM     23  S   UNL     1      -4.261  12.985   0.099  0.00  0.00    -0.084 S 
BRANCH  23  24
ATOM     24  C   UNL     1      -3.086  14.367   0.106  0.00  0.00    +0.086 C 
BRANCH  24  25
ATOM     25  C   UNL     1      -3.854  15.690   0.117  0.00  0.00    +0.107 C 
BRANCH  25  27
ATOM     26  N   UNL     1      -3.330  18.107   0.133  0.00  0.00    -0.285 N 
ATOM     27  C   UNL     1      -2.878  16.838   0.123  0.00  0.00    +0.218 C 
ATOM     28  O   UNL     1      -1.685  16.619   0.119  0.00  0.00    -0.275 OA
ATOM     29  H   UNL     1      -4.410  18.307   0.059  0.00  0.00    +0.155 HD
BRANCH  26  33
ATOM     30  C   UNL     1      -0.642  21.275   0.440  0.00  0.00    +0.000 A 
ATOM     31  C   UNL     1      -0.290  20.138  -0.264  0.00  0.00    +0.002 A 
ATOM     32  C   UNL     1      -1.179  19.086  -0.367  0.00  0.00    +0.023 A 
ATOM     33  C   UNL     1      -2.427  19.171   0.236  0.00  0.00    +0.033 A 
ATOM     34  C   UNL     1      -2.779  20.317   0.937  0.00  0.00    +0.023 A 
ATOM     35  C   UNL     1      -1.884  21.363   1.042  0.00  0.00    +0.002 A 
ENDBRANCH  26  33
ENDBRANCH  25  27
ENDBRANCH  24  25
ENDBRANCH  23  24
ENDBRANCH   1  23
TORSDOF 8
