REMARK  Name = ZINC13637733
REMARK  7 active torsions:
REMARK  status: ('A' for Active; 'I' for Inactive)
REMARK    1  A    between atoms: C_4  and  S_7
REMARK    2  A    between atoms: S_7  and  C_8
REMARK    3  A    between atoms: C_13  and  N_14
REMARK    4  A    between atoms: C_15  and  C_17
REMARK    5  A    between atoms: C_17  and  S_18
REMARK    6  A    between atoms: S_18  and  C_19
REMARK    7  A    between atoms: C_21  and  N_26
REMARK                            x       y       z     vdW  Elec       q    Type
REMARK                         _______ _______ _______ _____ _____    ______ ____
ROOT
ATOM      1  N   UNL     1       5.821  -3.144   0.238  0.00  0.00    -0.284 N 
ATOM      2  C   UNL     1       6.738  -3.955  -0.324  0.00  0.00    +0.228 C 
ATOM      3  O   UNL     1       6.405  -5.038  -0.758  0.00  0.00    -0.275 OA
ATOM      4  H   UNL     1       6.097  -2.307   0.643  0.00  0.00    +0.155 HD
ENDROOT
BRANCH   1  10
ATOM      5  C   UNL     1       3.479  -2.531   0.120  0.00  0.00    +0.034 A 
ATOM      6  C   UNL     1       2.142  -2.901   0.115  0.00  0.00    +0.017 A 
ATOM      7  C   UNL     1       1.792  -4.233   0.232  0.00  0.00    +0.001 A 
ATOM      8  C   UNL     1       2.773  -5.201   0.354  0.00  0.00    +0.002 A 
ATOM      9  C   UNL     1       4.108  -4.842   0.360  0.00  0.00    +0.024 A 
ATOM     10  C   UNL     1       4.468  -3.509   0.238  0.00  0.00    +0.047 A 
BRANCH   5  11
ATOM     11  S   UNL     1       3.928  -0.834  -0.029  0.00  0.00    -0.088 S 
BRANCH  11  15
ATOM     12  C   UNL     1      -0.035   1.357   0.033  0.00  0.00    +0.000 A 
ATOM     13  C   UNL     1       0.585   1.019   1.222  0.00  0.00    +0.001 A 
ATOM     14  C   UNL     1       1.793   0.351   1.207  0.00  0.00    +0.015 A 
ATOM     15  C   UNL     1       2.386   0.018  -0.005  0.00  0.00    +0.013 A 
ATOM     16  C   UNL     1       1.760   0.359  -1.198  0.00  0.00    +0.015 A 
ATOM     17  C   UNL     1       0.552   1.028  -1.175  0.00  0.00    +0.001 A 
ENDBRANCH  11  15
ENDBRANCH   5  11
ENDBRANCH   1  10
BRANCH   2  18
ATOM     18  C   UNL     1       8.177  -3.518  -0.414  0.00  0.00    +0.173 C 
BRANCH  18  19
ATOM     19  S   UNL     1       9.156  -4.819  -1.215  0.00  0.00    -0.078 S 
BRANCH  19  20
ATOM     20  C   UNL     1      10.792  -4.164  -1.244  0.00  0.00    +0.171 A 
ATOM     21  N   UNL     1      11.019  -2.972  -0.732  0.00  0.00    -0.209 NA
ATOM     22  C   UNL     1      12.246  -2.440  -0.735  0.00  0.00    +0.124 A 
ATOM     23  C   UNL     1      13.304  -3.152  -1.286  0.00  0.00    +0.113 A 
ATOM     24  C   UNL     1      13.054  -4.416  -1.827  0.00  0.00    +0.254 A 
ATOM     25  N   UNL     1      11.796  -4.904  -1.791  0.00  0.00    -0.302 N 
ATOM     26  O   UNL     1      13.960  -5.071  -2.319  0.00  0.00    -0.268 OA
ATOM     27  H   UNL     1      11.607  -5.782  -2.158  0.00  0.00    +0.171 HD
BRANCH  22  28
ATOM     28  N   UNL     1      12.461  -1.189  -0.194  0.00  0.00    -0.343 N 
ATOM     29  H   UNL     1      11.720  -0.693   0.190  0.00  0.00    +0.144 HD
ATOM     30  H   UNL     1      13.351  -0.805  -0.197  0.00  0.00    +0.144 HD
ENDBRANCH  22  28
ENDBRANCH  19  20
ENDBRANCH  18  19
ENDBRANCH   2  18
TORSDOF 7
