REMARK  Name = ZINC20696470
REMARK  7 active torsions:
REMARK  status: ('A' for Active; 'I' for Inactive)
REMARK    1  A    between atoms: C_1  and  C_2
REMARK    2  A    between atoms: C_2  and  C_3
REMARK    3  A    between atoms: C_2  and  C_4
REMARK    4  A    between atoms: C_4  and  C_5
REMARK    5  A    between atoms: N_7  and  C_8
REMARK    6  A    between atoms: C_21  and  C_24
REMARK    7  A    between atoms: C_29  and  O_30
REMARK                            x       y       z     vdW  Elec       q    Type
REMARK                         _______ _______ _______ _____ _____    ______ ____
ROOT
ATOM      1  C   UNL     1       0.796   3.678   0.290  0.00  0.00    +0.034 A 
ATOM      2  C   UNL     1       1.127   2.352   0.043  0.00  0.00    +0.025 A 
ATOM      3  C   UNL     1       0.123   1.415  -0.100  0.00  0.00    +0.025 A 
ATOM      4  C   UNL     1      -1.208   1.797  -0.001  0.00  0.00    +0.031 A 
ATOM      5  C   UNL     1      -1.545   3.118   0.254  0.00  0.00    -0.018 A 
ATOM      6  C   UNL     1      -0.532   4.056   0.395  0.00  0.00    +0.029 A 
ATOM      7  C   UNL     1      -2.965   3.571   0.380  0.00  0.00    +0.049 C 
ATOM      8  C   UNL     1      -3.411   4.328  -0.861  0.00  0.00    -0.023 C 
ATOM      9  C   UNL     1      -4.667   4.062  -1.126  0.00  0.00    -0.030 C 
ATOM     10  C   UNL     1      -5.232   3.095  -0.104  0.00  0.00    +0.033 C 
ATOM     11  C   UNL     1      -3.964   2.405   0.480  0.00  0.00    +0.029 C 
ATOM     12  C   UNL     1      -3.568   1.285  -0.486  0.00  0.00    +0.108 C 
ATOM     13  N   UNL     1      -2.212   0.832  -0.158  0.00  0.00    -0.336 N 
ATOM     14  H   UNL     1      -2.004  -0.241  -0.041  0.00  0.00    +0.147 HD
ENDROOT
BRANCH  12  15
ATOM     15  C   UNL     1      -3.598   1.804  -1.900  0.00  0.00    +0.015 A 
ATOM     16  C   UNL     1      -2.513   2.493  -2.407  0.00  0.00    +0.024 A 
ATOM     17  C   UNL     1      -2.541   2.971  -3.705  0.00  0.00    +0.018 A 
ATOM     18  C   UNL     1      -3.654   2.759  -4.499  0.00  0.00    +0.019 A 
ATOM     19  C   UNL     1      -4.741   2.071  -3.996  0.00  0.00    +0.047 A 
ATOM     20  C   UNL     1      -4.713   1.586  -2.696  0.00  0.00    +0.122 A 
ATOM     21 BR   UNL     1      -1.054   3.914  -4.396  0.00  0.00    -0.050 Br
BRANCH  20  22
ATOM     22  O   UNL     1      -5.779   0.903  -2.201  0.00  0.00    -0.506 OA
ATOM     23  H   UNL     1      -6.663   0.731  -2.833  0.00  0.00    +0.292 HD
ENDBRANCH  20  22
ENDBRANCH  12  15
BRANCH   1  26
ATOM     24  C   UNL     1       2.968   4.305   1.040  0.00  0.00    +0.217 C 
ATOM     25  O   UNL     1       3.168   3.159   1.382  0.00  0.00    -0.275 OA
ATOM     26  N   UNL     1       1.810   4.635   0.435  0.00  0.00    -0.285 N 
ATOM     27  H   UNL     1       1.659   5.656   0.055  0.00  0.00    +0.155 HD
BRANCH  24  28
ATOM     28  C   UNL     1       4.014   5.360   1.291  0.00  0.00    +0.099 C 
BRANCH  28  30
ATOM     29  C   UNL     1       6.333   5.768   2.128  0.00  0.00    +0.008 C 
ATOM     30  C   UNL     1       5.221   4.726   1.985  0.00  0.00    -0.008 C 
ATOM     31  C   UNL     1       4.809   4.226   3.371  0.00  0.00    +0.008 C 
ENDBRANCH  28  30
ENDBRANCH  24  28
ENDBRANCH   1  26
TORSDOF 5
