REMARK  Name = ZINC09243476
REMARK  11 active torsions:
REMARK  status: ('A' for Active; 'I' for Inactive)
REMARK    1  A    between atoms: C_1  and  C_2
REMARK    2  A    between atoms: C_4  and  C_33
REMARK    3  A    between atoms: C_5  and  O_32
REMARK    4  A    between atoms: C_6  and  C_8
REMARK    5  A    between atoms: N_16  and  C_29
REMARK    6  A    between atoms: C_17  and  C_19
REMARK    7  A    between atoms: C_21  and  O_27
REMARK    8  A    between atoms: C_22  and  O_26
REMARK    9  A    between atoms: O_27  and  C_28
REMARK   10  A    between atoms: C_29  and  C_30
REMARK   11  A    between atoms: C_30  and  O_31
REMARK                            x       y       z     vdW  Elec       q    Type
REMARK                         _______ _______ _______ _____ _____    ______ ____
ROOT
ATOM      1  C   UNL     1      -0.007  -2.912   2.427  0.00  0.00    +0.075 A 
ATOM      2  C   UNL     1       1.076  -3.543   2.950  0.00  0.00    +0.035 A 
ATOM      3  C   UNL     1       0.586  -4.352   4.000  0.00  0.00    +0.153 A 
ATOM      4  N   UNL     1      -0.719  -4.169   4.048  0.00  0.00    -0.168 NA
ATOM      5  N   UNL     1      -1.090  -3.331   3.147  0.00  0.00    -0.276 N 
ATOM      6  H   UNL     1      -2.003  -3.040   2.998  0.00  0.00    +0.189 HD
ATOM      7  C   UNL     1       1.732  -5.059   4.600  0.00  0.00    +0.268 C 
ATOM      8  O   UNL     1       1.656  -5.837   5.530  0.00  0.00    -0.268 OA
ATOM      9  N   UNL     1       2.872  -4.721   3.973  0.00  0.00    -0.283 N 
ATOM     10  C   UNL     1       2.564  -3.762   2.906  0.00  0.00    +0.141 C 
ENDROOT
BRANCH   1  16
ATOM     11  C   UNL     1      -1.303  -1.755  -2.251  0.00  0.00    +0.044 C 
ATOM     12  C   UNL     1      -0.633  -1.391  -0.951  0.00  0.00    -0.049 A 
ATOM     13  C   UNL     1      -0.022  -0.158  -0.812  0.00  0.00    +0.010 A 
ATOM     14  C   UNL     1       0.595   0.186   0.376  0.00  0.00    -0.008 A 
ATOM     15  C   UNL     1       0.605  -0.705   1.436  0.00  0.00    +0.129 A 
ATOM     16  C   UNL     1      -0.012  -1.953   1.300  0.00  0.00    +0.042 A 
ATOM     17  C   UNL     1      -0.637  -2.287   0.099  0.00  0.00    +0.017 A 
ATOM     18  C   UNL     1       1.259   1.532   0.517  0.00  0.00    +0.047 C 
BRANCH  15  19
ATOM     19  O   UNL     1       1.212  -0.368   2.604  0.00  0.00    -0.506 OA
ATOM     20  H   UNL     1       0.650   0.139   3.207  0.00  0.00    +0.292 HD
ENDBRANCH  15  19
ENDBRANCH   1  16
BRANCH  10  21
ATOM     21  C   UNL     1       2.965  -4.329   1.569  0.00  0.00    -0.018 A 
ATOM     22  C   UNL     1       2.427  -5.528   1.139  0.00  0.00    +0.055 A 
ATOM     23  C   UNL     1       2.794  -6.050  -0.091  0.00  0.00    +0.163 A 
ATOM     24  C   UNL     1       3.704  -5.366  -0.891  0.00  0.00    +0.173 A 
ATOM     25  C   UNL     1       4.239  -4.164  -0.454  0.00  0.00    +0.063 A 
ATOM     26  C   UNL     1       3.864  -3.646   0.772  0.00  0.00    +0.025 A 
ATOM     27 BR   UNL     1       5.476  -3.231  -1.538  0.00  0.00    -0.046 Br
BRANCH  24  28
ATOM     28  O   UNL     1       4.068  -5.875  -2.099  0.00  0.00    -0.503 OA
ATOM     29  H   UNL     1       3.508  -5.587  -2.832  0.00  0.00    +0.292 HD
ENDBRANCH  24  28
BRANCH  23  30
ATOM     30  O   UNL     1       2.267  -7.230  -0.515  0.00  0.00    -0.491 OA
ATOM     31  C   UNL     1       1.339  -7.877   0.359  0.00  0.00    +0.277 C 
ENDBRANCH  23  30
ENDBRANCH  10  21
BRANCH   9  32
ATOM     32  C   UNL     1       4.206  -5.229   4.303  0.00  0.00    +0.137 C 
BRANCH  32  33
ATOM     33  C   UNL     1       4.415  -6.588   3.631  0.00  0.00    +0.175 C 
BRANCH  33  34
ATOM     34  O   UNL     1       4.515  -6.410   2.217  0.00  0.00    -0.393 OA
ATOM     35  H   UNL     1       4.649  -7.232   1.726  0.00  0.00    +0.209 HD
ENDBRANCH  33  34
ENDBRANCH  32  33
ENDBRANCH   9  32
TORSDOF 8
