REMARK  Name = ZINC57531346
REMARK  8 active torsions:
REMARK  status: ('A' for Active; 'I' for Inactive)
REMARK    1  A    between atoms: C_1  and  C_2
REMARK    2  A    between atoms: C_2  and  O_3
REMARK    3  A    between atoms: O_3  and  C_4
REMARK    4  A    between atoms: C_4  and  C_6
REMARK    5  A    between atoms: C_8  and  C_20
REMARK    6  A    between atoms: C_14  and  C_15
REMARK    7  A    between atoms: C_14  and  O_19
REMARK    8  A    between atoms: C_29  and  O_30
REMARK                            x       y       z     vdW  Elec       q    Type
REMARK                         _______ _______ _______ _____ _____    ______ ____
ROOT
ATOM      1  C   UNL     1       0.778  -3.070  -2.604  0.00  0.00    +0.181 C 
ATOM      2  C   UNL     1       1.746  -4.258  -2.606  0.00  0.00    +0.125 C 
ATOM      3  N   UNL     1       1.018  -5.470  -2.984  0.00  0.00    -0.319 N 
ATOM      4  C   UNL     1      -0.055  -5.418  -3.788  0.00  0.00    +0.133 C 
ATOM      5  S   UNL     1      -0.848  -6.879  -4.198  0.00  0.00    -0.019 S 
ATOM      6  N   UNL     1      -0.531  -4.265  -4.282  0.00  0.00    -0.291 N 
ATOM      7  C   UNL     1       0.108  -2.979  -3.978  0.00  0.00    +0.244 C 
ATOM      8  H   UNL     1       1.317  -6.329  -2.647  0.00  0.00    +0.148 HD
ATOM      9  H   UNL     1      -1.316  -4.282  -4.853  0.00  0.00    +0.151 HD
ENDROOT
BRANCH   2  10
ATOM     10  C   UNL     1       2.334  -4.431  -1.229  0.00  0.00    +0.023 A 
ATOM     11  C   UNL     1       3.605  -3.911  -0.934  0.00  0.00    -0.009 A 
ATOM     12  C   UNL     1       4.354  -3.222  -1.904  0.00  0.00    +0.009 A 
ATOM     13  C   UNL     1       5.582  -2.731  -1.582  0.00  0.00    +0.001 A 
ATOM     14  C   UNL     1       6.111  -2.901  -0.304  0.00  0.00    +0.001 A 
ATOM     15  C   UNL     1       5.414  -3.562   0.660  0.00  0.00    +0.008 A 
ATOM     16  C   UNL     1       4.143  -4.083   0.366  0.00  0.00    -0.017 A 
ATOM     17  C   UNL     1       3.394  -4.771   1.338  0.00  0.00    +0.012 A 
ATOM     18  C   UNL     1       2.167  -5.263   1.020  0.00  0.00    +0.046 A 
ATOM     19  C   UNL     1       1.633  -5.090  -0.260  0.00  0.00    +0.122 A 
BRANCH  19  20
ATOM     20  O   UNL     1       0.401  -5.588  -0.546  0.00  0.00    -0.506 OA
ATOM     21  H   UNL     1       0.416  -6.462  -0.960  0.00  0.00    +0.292 HD
ENDBRANCH  19  20
ENDBRANCH   2  10
BRANCH   7  22
ATOM     22  C   UNL     1       1.163  -2.670  -5.043  0.00  0.00    +0.436 C 
ATOM     23  F   UNL     1       2.122  -3.688  -5.059  0.00  0.00    -0.166 F 
ATOM     24  F   UNL     1       0.549  -2.587  -6.297  0.00  0.00    -0.166 F 
ATOM     25  F   UNL     1       1.781  -1.451  -4.745  0.00  0.00    -0.166 F 
ENDBRANCH   7  22
BRANCH   1  26
ATOM     26  C   UNL     1      -0.271  -3.274  -1.541  0.00  0.00    +0.317 C 
ATOM     27  O   UNL     1      -1.239  -3.959  -1.772  0.00  0.00    -0.250 OA
BRANCH  26  28
ATOM     28  O   UNL     1      -0.130  -2.695  -0.339  0.00  0.00    -0.465 OA
BRANCH  28  30
ATOM     29  C   UNL     1      -0.829  -2.195   1.920  0.00  0.00    +0.048 C 
ATOM     30  C   UNL     1      -1.162  -2.931   0.621  0.00  0.00    +0.229 C 
ENDBRANCH  28  30
ENDBRANCH  26  28
ENDBRANCH   1  26
BRANCH   7  31
ATOM     31  O   UNL     1      -0.875  -1.943  -3.963  0.00  0.00    -0.364 OA
ATOM     32  H   UNL     1      -1.341  -1.829  -4.803  0.00  0.00    +0.212 HD
ENDBRANCH   7  31
TORSDOF 7
