REMARK  Name = ZINC43425484
REMARK  3 active torsions:
REMARK  status: ('A' for Active; 'I' for Inactive)
REMARK    1  A    between atoms: N_9  and  C_13
REMARK    2  A    between atoms: C_13  and  C_14
REMARK    3  A    between atoms: C_14  and  N_16
REMARK                            x       y       z     vdW  Elec       q    Type
REMARK                         _______ _______ _______ _____ _____    ______ ____
ROOT
ATOM      1  C   UNL     1       0.149   1.216   0.699  0.00  0.00    +0.002 C 
ATOM      2  C   UNL     1       1.585   1.742   0.669  0.00  0.00    +0.003 C 
ATOM      3  C   UNL     1       2.198   1.490  -0.711  0.00  0.00    +0.033 C 
ATOM      4  C   UNL     1       2.193  -0.012  -0.998  0.00  0.00    +0.135 C 
ATOM      5  C   UNL     1       0.751  -0.524  -0.984  0.00  0.00    +0.086 C 
ATOM      6  C   UNL     1       0.143  -0.285   0.398  0.00  0.00    +0.021 C 
ATOM      7  N   UNL     1       0.747  -1.960  -1.297  0.00  0.00    -0.289 NA
ATOM      8  C   UNL     1       1.352  -2.201  -2.616  0.00  0.00    +0.113 C 
ATOM      9  C   UNL     1       2.783  -1.658  -2.628  0.00  0.00    +0.175 C 
ATOM     10  O   UNL     1       2.768  -0.270  -2.280  0.00  0.00    -0.374 OA
ENDROOT
BRANCH   7  11
ATOM     11  C   UNL     1      -0.614  -2.509  -1.233  0.00  0.00    +0.143 C 
BRANCH  11  12
ATOM     12  C   UNL     1      -0.546  -4.011  -1.145  0.00  0.00    +0.060 C 
ATOM     13  S   UNL     1       0.870  -4.741  -1.003  0.00  0.00    -0.039 S 
BRANCH  12  14
ATOM     14  N   UNL     1      -1.678  -4.741  -1.185  0.00  0.00    -0.355 N 
ATOM     15  H   UNL     1      -2.537  -4.299  -1.272  0.00  0.00    +0.143 HD
ATOM     16  H   UNL     1      -1.635  -5.708  -1.129  0.00  0.00    +0.143 HD
ENDBRANCH  12  14
ENDBRANCH  11  12
ENDBRANCH   7  11
TORSDOF 3
