REMARK  Name = ZINC19832541
REMARK  7 active torsions:
REMARK  status: ('A' for Active; 'I' for Inactive)
REMARK    1  A    between atoms: C_1  and  C_2
REMARK    2  A    between atoms: C_2  and  O_3
REMARK    3  A    between atoms: O_3  and  C_4
REMARK    4  A    between atoms: C_6  and  C_11
REMARK    5  A    between atoms: C_9  and  O_10
REMARK    6  A    between atoms: C_13  and  C_20
REMARK    7  A    between atoms: C_16  and  C_17
REMARK                            x       y       z     vdW  Elec       q    Type
REMARK                         _______ _______ _______ _____ _____    ______ ____
ROOT
ATOM      1  C   UNL     1      -0.213  -4.960  -0.504  0.00  0.00    +0.005 A 
ATOM      2  C   UNL     1       0.543  -5.990  -1.062  0.00  0.00    +0.038 A 
ATOM      3  C   UNL     1      -0.040  -6.827  -2.007  0.00  0.00    +0.074 A 
ATOM      4  N   UNL     1      -1.299  -6.655  -2.394  0.00  0.00    -0.231 NA
ATOM      5  C   UNL     1      -2.057  -5.691  -1.901  0.00  0.00    +0.135 A 
ATOM      6  C   UNL     1      -1.548  -4.804  -0.936  0.00  0.00    +0.099 A 
ATOM      7  N   UNL     1      -3.364  -5.554  -2.337  0.00  0.00    -0.342 N 
ATOM      8  H   UNL     1      -3.999  -4.753  -1.929  0.00  0.00    +0.144 HD
ATOM      9  H   UNL     1      -3.767  -6.246  -3.091  0.00  0.00    +0.144 HD
ENDROOT
BRANCH   3  10
ATOM     10  C   UNL     1       0.759  -7.927  -2.598  0.00  0.00    +0.002 A 
ATOM     11  C   UNL     1       0.190  -8.771  -3.551  0.00  0.00    +0.011 A 
ATOM     12  C   UNL     1       0.938  -9.793  -4.099  0.00  0.00    +0.022 A 
ATOM     13  C   UNL     1       2.251  -9.982  -3.704  0.00  0.00    +0.059 A 
ATOM     14  C   UNL     1       2.822  -9.147  -2.757  0.00  0.00    +0.060 A 
ATOM     15  C   UNL     1       2.083  -8.118  -2.207  0.00  0.00    +0.031 A 
ATOM     16 CL   UNL     1       4.469  -9.390  -2.267  0.00  0.00    -0.082 Cl
ATOM     17 CL   UNL     1       3.186 -11.270  -4.397  0.00  0.00    -0.082 Cl
ENDBRANCH   3  10
BRANCH   1  20
ATOM     18  C   UNL     1       0.802  -1.825   1.306  0.00  0.00    +0.162 A 
ATOM     19  C   UNL     1       0.251  -2.670   0.360  0.00  0.00    +0.058 A 
ATOM     20  C   UNL     1       0.370  -4.052   0.510  0.00  0.00    -0.013 A 
ATOM     21  C   UNL     1       1.033  -4.577   1.619  0.00  0.00    +0.012 A 
ATOM     22  C   UNL     1       1.575  -3.729   2.563  0.00  0.00    +0.050 A 
ATOM     23  C   UNL     1       1.464  -2.355   2.412  0.00  0.00    +0.158 A 
BRANCH  23  24
ATOM     24  O   UNL     1       2.000  -1.524   3.344  0.00  0.00    -0.503 OA
ATOM     25  H   UNL     1       2.522  -1.941   4.217  0.00  0.00    +0.292 HD
ENDBRANCH  23  24
BRANCH  18  26
ATOM     26  O   UNL     1       0.693  -0.477   1.160  0.00  0.00    -0.489 OA
BRANCH  26  28
ATOM     27  C   UNL     1      -0.019   1.526   0.010  0.00  0.00    +0.048 C 
ATOM     28  C   UNL     1       0.002  -0.004   0.002  0.00  0.00    +0.226 C 
ENDBRANCH  26  28
ENDBRANCH  18  26
ENDBRANCH   1  20
BRANCH   6  29
ATOM     29  C   UNL     1      -2.369  -3.759  -0.402  0.00  0.00    +0.103 C 
ATOM     30  N   UNL     1      -3.020  -2.930   0.022  0.00  0.00    -0.191 NA
ENDBRANCH   6  29
TORSDOF 6
