REMARK  Name = ZINC39515058
REMARK  11 active torsions:
REMARK  status: ('A' for Active; 'I' for Inactive)
REMARK    1  A    between atoms: C_1  and  C_2
REMARK    2  A    between atoms: C_2  and  C_3
REMARK    3  A    between atoms: C_2  and  C_4
REMARK    4  A    between atoms: C_2  and  C_5
REMARK    5  A    between atoms: C_8  and  O_30
REMARK    6  A    between atoms: C_9  and  N_11
REMARK    7  A    between atoms: C_12  and  C_14
REMARK    8  A    between atoms: C_14  and  N_15
REMARK    9  A    between atoms: C_16  and  C_18
REMARK   10  A    between atoms: C_18  and  N_19
REMARK   11  A    between atoms: C_20  and  C_22
REMARK                            x       y       z     vdW  Elec       q    Type
REMARK                         _______ _______ _______ _____ _____    ______ ____
ROOT
ATOM      1  C   UNL     1       6.036   1.087  -2.309  0.00  0.00    +0.200 C 
ENDROOT
BRANCH   1   3
ATOM      2  N   UNL     1       4.013  -0.235  -2.833  0.00  0.00    -0.281 N 
ATOM      3  C   UNL     1       4.637   0.621  -2.000  0.00  0.00    +0.234 C 
ATOM      4  O   UNL     1       4.073   1.014  -1.001  0.00  0.00    -0.274 OA
ATOM      5  H   UNL     1       4.486  -0.601  -3.597  0.00  0.00    +0.155 HD
BRANCH   2  10
ATOM      6  C   UNL     1       0.901  -1.087  -1.066  0.00  0.00    -0.040 A 
ATOM      7  C   UNL     1       0.045  -1.312  -2.128  0.00  0.00    +0.008 A 
ATOM      8  C   UNL     1       0.500  -1.181  -3.427  0.00  0.00    +0.047 A 
ATOM      9  C   UNL     1       1.817  -0.824  -3.667  0.00  0.00    +0.138 A 
ATOM     10  C   UNL     1       2.680  -0.597  -2.597  0.00  0.00    +0.076 A 
ATOM     11  C   UNL     1       2.214  -0.724  -1.296  0.00  0.00    +0.031 A 
BRANCH   6  13
ATOM     12  C   UNL     1       0.549   0.102   1.082  0.00  0.00    +0.015 C 
ATOM     13  C   UNL     1       0.398  -1.231   0.348  0.00  0.00    -0.013 C 
ATOM     14  C   UNL     1       1.212  -2.306   1.071  0.00  0.00    +0.015 C 
ATOM     15  C   UNL     1      -1.077  -1.637   0.325  0.00  0.00    +0.015 C 
ENDBRANCH   6  13
BRANCH   9  16
ATOM     16  O   UNL     1       2.267  -0.696  -4.944  0.00  0.00    -0.505 OA
ATOM     17  H   UNL     1       2.167   0.194  -5.309  0.00  0.00    +0.292 HD
ENDBRANCH   9  16
ENDBRANCH   2  10
ENDBRANCH   1   3
BRANCH   1  18
ATOM     18  N   UNL     1       6.488   2.004  -1.259  0.00  0.00    -0.305 N 
ATOM     19  C   UNL     1       7.718   2.551  -1.326  0.00  0.00    +0.231 C 
ATOM     20  O   UNL     1       8.451   2.285  -2.255  0.00  0.00    -0.274 OA
ATOM     21  H   UNL     1       5.902   2.217  -0.516  0.00  0.00    +0.149 HD
BRANCH  19  22
ATOM     22  C   UNL     1       8.182   3.494  -0.246  0.00  0.00    +0.200 C 
BRANCH  22  23
ATOM     23  N   UNL     1       9.543   3.948  -0.546  0.00  0.00    -0.303 N 
ATOM     24  C   UNL     1      10.167   4.804   0.287  0.00  0.00    +0.246 C 
ATOM     25  O   UNL     1       9.601   5.199   1.288  0.00  0.00    -0.270 OA
ATOM     26  H   UNL     1       9.994   3.633  -1.345  0.00  0.00    +0.150 HD
BRANCH  24  27
ATOM     27  C   UNL     1      11.538   5.261  -0.015  0.00  0.00    +0.055 A 
ATOM     28  C   UNL     1      12.189   4.814  -1.167  0.00  0.00    +0.016 A 
ATOM     29  C   UNL     1      13.468   5.245  -1.445  0.00  0.00    +0.021 A 
ATOM     30  C   UNL     1      14.111   6.120  -0.583  0.00  0.00    +0.042 A 
ATOM     31  C   UNL     1      13.473   6.567   0.561  0.00  0.00    +0.040 A 
ATOM     32  C   UNL     1      12.188   6.149   0.847  0.00  0.00    +0.054 A 
ATOM     33 CL   UNL     1      11.386   6.716   2.278  0.00  0.00    -0.083 Cl
ATOM     34 CL   UNL     1      15.723   6.656  -0.940  0.00  0.00    -0.083 Cl
ENDBRANCH  24  27
ENDBRANCH  22  23
ENDBRANCH  19  22
ENDBRANCH   1  18
TORSDOF 8
