REMARK  Name = ZINC54043763
REMARK  6 active torsions:
REMARK  status: ('A' for Active; 'I' for Inactive)
REMARK    1  A    between atoms: C_3  and  C_6
REMARK    2  A    between atoms: C_6  and  C_8
REMARK    3  A    between atoms: C_6  and  N_23
REMARK    4  A    between atoms: C_8  and  N_9
REMARK    5  A    between atoms: N_12  and  N_13
REMARK    6  A    between atoms: C_14  and  C_16
REMARK                            x       y       z     vdW  Elec       q    Type
REMARK                         _______ _______ _______ _____ _____    ______ ____
ROOT
ATOM      1  N   UNL     1       5.744   2.231   1.339  0.00  0.00    -0.299 N 
ATOM      2  C   UNL     1       6.460   2.277   2.480  0.00  0.00    +0.316 C 
ATOM      3  O   UNL     1       5.910   2.096   3.550  0.00  0.00    -0.251 OA
ATOM      4  N   UNL     1       7.784   2.522   2.436  0.00  0.00    -0.218 N 
ATOM      5  H   UNL     1       6.183   2.376   0.486  0.00  0.00    +0.150 HD
ATOM      6  H   UNL     1       8.299   2.555   3.258  0.00  0.00    +0.174 HD
ENDROOT
BRANCH   4   7
ATOM      7  N   UNL     1       8.417   2.731   1.204  0.00  0.00    -0.229 N 
ATOM      8  C   UNL     1       9.742   2.976   1.160  0.00  0.00    +0.260 C 
ATOM      9  O   UNL     1      10.387   3.017   2.190  0.00  0.00    -0.269 OA
ATOM     10  H   UNL     1       7.903   2.698   0.383  0.00  0.00    +0.173 HD
BRANCH   8  11
ATOM     11  C   UNL     1      10.410   3.196  -0.140  0.00  0.00    +0.038 A 
ATOM     12  C   UNL     1       9.671   3.155  -1.323  0.00  0.00    +0.014 A 
ATOM     13  C   UNL     1      10.300   3.361  -2.533  0.00  0.00    +0.021 A 
ATOM     14  C   UNL     1      11.662   3.607  -2.576  0.00  0.00    +0.041 A 
ATOM     15  C   UNL     1      12.401   3.648  -1.405  0.00  0.00    +0.021 A 
ATOM     16  C   UNL     1      11.782   3.451  -0.188  0.00  0.00    +0.014 A 
ATOM     17 CL   UNL     1      12.447   3.865  -4.103  0.00  0.00    -0.084 Cl
ENDBRANCH   8  11
ENDBRANCH   4   7
BRANCH   1  18
ATOM     18  C   UNL     1       4.305   1.964   1.387  0.00  0.00    +0.095 C 
BRANCH  18  19
ATOM     19  C   UNL     1       3.714   2.098  -0.018  0.00  0.00    -0.013 C 
BRANCH  19  20
ATOM     20  N   UNL     1       2.298   1.707   0.006  0.00  0.00    +0.386 N 
ATOM     21  C   UNL     1       1.714   1.814  -1.355  0.00  0.00    -0.078 C 
ATOM     22  C   UNL     1       0.483   0.876  -1.287  0.00  0.00    -0.020 C 
ATOM     23  C   UNL     1       0.987  -0.293  -0.410  0.00  0.00    -0.020 C 
ATOM     24  C   UNL     1       2.169   0.285   0.390  0.00  0.00    -0.078 C 
ATOM     25  H   UNL     1       1.787   2.290   0.652  0.00  0.00    -0.081 HD
ENDBRANCH  19  20
BRANCH  19  28
ATOM     26  C   UNL     1       4.661   5.435  -1.594  0.00  0.00    +0.008 A 
ATOM     27  C   UNL     1       4.749   4.085  -1.308  0.00  0.00    +0.009 A 
ATOM     28  C   UNL     1       3.833   3.529  -0.479  0.00  0.00    -0.022 A 
ATOM     29  S   UNL     1       2.802   4.929  -0.073  0.00  0.00    -0.103 S 
ATOM     30  C   UNL     1       3.662   6.162  -1.037  0.00  0.00    +0.045 A 
ENDBRANCH  19  28
ENDBRANCH  18  19
ENDBRANCH   1  18
TORSDOF 6
