REMARK  Name = ZINC39096161
REMARK  6 active torsions:
REMARK  status: ('A' for Active; 'I' for Inactive)
REMARK    1  A    between atoms: C_3  and  O_17
REMARK    2  A    between atoms: C_5  and  O_16
REMARK    3  A    between atoms: C_7  and  C_9
REMARK    4  A    between atoms: C_9  and  C_10
REMARK    5  A    between atoms: C_10  and  C_12
REMARK    6  A    between atoms: C_10  and  O_15
REMARK                            x       y       z     vdW  Elec       q    Type
REMARK                         _______ _______ _______ _____ _____    ______ ____
ROOT
ATOM      1  C   UNL     1      -0.018   1.466   0.010  0.00  0.00    -0.002 C 
ATOM      2  C   UNL     1       1.123   2.144   0.003  0.00  0.00    +0.007 C 
ATOM      3  C   UNL     1       2.440   1.413   0.014  0.00  0.00    +0.170 C 
ATOM      4  C   UNL     1       2.326   0.119  -0.791  0.00  0.00    +0.173 C 
ATOM      5  C   UNL     1       1.103  -0.650  -0.360  0.00  0.00    -0.036 C 
ATOM      6  C   UNL     1       0.002  -0.004   0.002  0.00  0.00    +0.002 C 
ENDROOT
BRANCH   4   7
ATOM      7  O   UNL     1       2.221   0.432  -2.181  0.00  0.00    -0.385 OA
ATOM      8  H   UNL     1       2.977   0.922  -2.532  0.00  0.00    +0.210 HD
ENDBRANCH   4   7
BRANCH   3   9
ATOM      9  O   UNL     1       2.798   1.101   1.361  0.00  0.00    -0.385 OA
ATOM     10  H   UNL     1       2.896   1.875   1.932  0.00  0.00    +0.210 HD
ENDBRANCH   3   9
BRANCH   5  11
ATOM     11  C   UNL     1       1.131  -2.156  -0.342  0.00  0.00    +0.076 C 
BRANCH  11  12
ATOM     12  C   UNL     1       0.796  -2.689  -1.737  0.00  0.00    +0.231 C 
BRANCH  12  13
ATOM     13  C   UNL     1       0.944  -4.189  -1.750  0.00  0.00    +0.384 C 
ATOM     14  O   UNL     1      -0.033  -4.896  -1.930  0.00  0.00    -0.243 OA
ATOM     15  O   UNL     1       2.040  -4.695  -1.581  0.00  0.00    -0.243 OA
ENDBRANCH  12  13
BRANCH  12  16
ATOM     16  O   UNL     1      -0.548  -2.340  -2.070  0.00  0.00    -0.380 OA
ATOM     17  H   UNL     1      -1.210  -2.697  -1.462  0.00  0.00    +0.211 HD
ENDBRANCH  12  16
ENDBRANCH  11  12
ENDBRANCH   5  11
TORSDOF 6
