REMARK  Name = ZINC06844429
REMARK  10 active torsions:
REMARK  status: ('A' for Active; 'I' for Inactive)
REMARK    1  A    between atoms: C_1  and  C_2
REMARK    2  A    between atoms: C_5  and  C_28
REMARK    3  A    between atoms: C_6  and  N_8
REMARK    4  A    between atoms: C_9  and  C_11
REMARK    5  A    between atoms: C_11  and  C_12
REMARK    6  A    between atoms: C_12  and  C_13
REMARK    7  A    between atoms: N_15  and  N_16
REMARK    8  A    between atoms: N_16  and  C_17
REMARK    9  A    between atoms: C_17  and  N_19
REMARK   10  A    between atoms: C_20  and  C_22
REMARK                            x       y       z     vdW  Elec       q    Type
REMARK                         _______ _______ _______ _____ _____    ______ ____
ROOT
ATOM      1  C   UNL     1       0.504  -2.683   7.314  0.00  0.00    +0.230 C 
ATOM      2  O   UNL     1       0.520  -3.895   7.301  0.00  0.00    -0.274 OA
ATOM      3  N   UNL     1       0.602  -2.020   8.483  0.00  0.00    -0.235 N 
ATOM      4  H   UNL     1       0.589  -1.050   8.493  0.00  0.00    +0.173 HD
ENDROOT
BRANCH   3   5
ATOM      5  N   UNL     1       0.723  -2.732   9.684  0.00  0.00    -0.246 N 
ATOM      6  H   UNL     1       0.736  -3.701   9.673  0.00  0.00    +0.172 HD
BRANCH   5   7
ATOM      7  C   UNL     1       0.821  -2.069  10.853  0.00  0.00    +0.153 C 
ATOM      8  S   UNL     1       0.969  -2.938  12.320  0.00  0.00    -0.017 S 
BRANCH   7   9
ATOM      9  N   UNL     1       0.803  -0.721  10.867  0.00  0.00    -0.266 N 
ATOM     10  C   UNL     1       0.901  -0.058  12.037  0.00  0.00    +0.222 C 
ATOM     11  O   UNL     1       1.006  -0.674  13.076  0.00  0.00    -0.275 OA
ATOM     12  H   UNL     1       0.719  -0.228  10.036  0.00  0.00    +0.157 HD
BRANCH  10  13
ATOM     13  C   UNL     1       0.881   1.448  12.053  0.00  0.00    +0.075 C 
ATOM     14  C   UNL     1       2.051   1.983  11.225  0.00  0.00    +0.013 C 
ATOM     15  C   UNL     1       2.031   3.513  11.242  0.00  0.00    +0.001 C 
ATOM     16  C   UNL     1       2.157   4.009  12.684  0.00  0.00    +0.000 C 
ATOM     17  C   UNL     1       0.986   3.475  13.511  0.00  0.00    +0.001 C 
ATOM     18  C   UNL     1       1.006   1.945  13.495  0.00  0.00    +0.013 C 
ENDBRANCH  10  13
ENDBRANCH   7   9
ENDBRANCH   5   7
ENDBRANCH   3   5
BRANCH   1  19
ATOM     19  C   UNL     1       0.374  -1.917   6.022  0.00  0.00    +0.106 C 
BRANCH  19  20
ATOM     20  C   UNL     1       0.280  -2.900   4.854  0.00  0.00    +0.105 C 
BRANCH  20  22
ATOM     21  N   UNL     1       0.052  -2.797   2.393  0.00  0.00    -0.285 N 
ATOM     22  C   UNL     1       0.150  -2.135   3.562  0.00  0.00    +0.218 C 
ATOM     23  O   UNL     1       0.134  -0.922   3.575  0.00  0.00    -0.275 OA
ATOM     24  H   UNL     1      -0.016  -3.765   2.388  0.00  0.00    +0.155 HD
BRANCH  21  30
ATOM     25  C   UNL     1       1.264   1.227  -0.158  0.00  0.00    +0.044 C 
ATOM     26  C   UNL     1       0.628  -0.137  -0.079  0.00  0.00    -0.049 A 
ATOM     27  C   UNL     1       0.039  -0.690  -1.201  0.00  0.00    +0.004 A 
ATOM     28  C   UNL     1      -0.546  -1.941  -1.133  0.00  0.00    +0.005 A 
ATOM     29  C   UNL     1      -0.543  -2.643   0.057  0.00  0.00    -0.029 A 
ATOM     30  C   UNL     1       0.048  -2.090   1.185  0.00  0.00    +0.037 A 
ATOM     31  C   UNL     1       0.639  -0.835   1.112  0.00  0.00    +0.027 A 
ATOM     32  C   UNL     1      -1.181  -4.006   0.131  0.00  0.00    +0.045 C 
ENDBRANCH  21  30
ENDBRANCH  20  22
ENDBRANCH  19  20
ENDBRANCH   1  19
TORSDOF 8
