REMARK  Name = ZINC16320875
REMARK  9 active torsions:
REMARK  status: ('A' for Active; 'I' for Inactive)
REMARK    1  A    between atoms: C_1  and  C_2
REMARK    2  A    between atoms: N_4  and  C_5
REMARK    3  A    between atoms: C_5  and  N_7
REMARK    4  A    between atoms: N_7  and  C_8
REMARK    5  A    between atoms: C_11  and  N_14
REMARK    6  A    between atoms: N_14  and  C_15
REMARK    7  A    between atoms: C_15  and  N_17
REMARK    8  A    between atoms: C_18  and  C_20
REMARK    9  A    between atoms: C_22  and  N_27
REMARK                            x       y       z     vdW  Elec       q    Type
REMARK                         _______ _______ _______ _____ _____    ______ ____
ROOT
ATOM      1  N   UNL     1      -4.272   4.367   0.356  0.00  0.00    -0.297 N 
ATOM      2  H   UNL     1      -4.531   4.811  -0.466  0.00  0.00    +0.154 HD
ENDROOT
BRANCH   1   6
ATOM      3  C   UNL     1      -1.096   1.666   0.359  0.00  0.00    +0.033 A 
ATOM      4  C   UNL     1      -0.968   2.888  -0.288  0.00  0.00    +0.025 A 
ATOM      5  C   UNL     1      -2.021   3.780  -0.293  0.00  0.00    +0.025 A 
ATOM      6  C   UNL     1      -3.205   3.460   0.358  0.00  0.00    +0.033 A 
ATOM      7  C   UNL     1      -3.332   2.240   1.010  0.00  0.00    +0.025 A 
ATOM      8  C   UNL     1      -2.280   1.346   1.010  0.00  0.00    +0.025 A 
BRANCH   3   9
ATOM      9  N   UNL     1      -0.029   0.758   0.359  0.00  0.00    -0.297 N 
ATOM     10  H   UNL     1       0.871   1.068   0.547  0.00  0.00    +0.154 HD
BRANCH   9  11
ATOM     11  C   UNL     1      -0.254  -0.546   0.104  0.00  0.00    +0.141 C 
ATOM     12  S   UNL     1      -1.855  -1.111  -0.120  0.00  0.00    -0.018 S 
BRANCH  11  16
ATOM     13  C   UNL     1       1.714  -3.671  -0.317  0.00  0.00    +0.109 C 
ATOM     14  C   UNL     1       0.556  -2.710  -0.229  0.00  0.00    +0.215 C 
ATOM     15  O   UNL     1      -0.577  -3.110  -0.388  0.00  0.00    -0.276 OA
ATOM     16  N   UNL     1       0.781  -1.405   0.026  0.00  0.00    -0.268 N 
ATOM     17  H   UNL     1       1.688  -1.085   0.153  0.00  0.00    +0.156 HD
ENDBRANCH  11  16
ENDBRANCH   9  11
ENDBRANCH   3   9
ENDBRANCH   1   6
BRANCH   1  18
ATOM     18  C   UNL     1      -4.941   4.623   1.499  0.00  0.00    +0.141 C 
ATOM     19  S   UNL     1      -4.556   3.761   2.927  0.00  0.00    -0.018 S 
BRANCH  18  20
ATOM     20  N   UNL     1      -5.911   5.558   1.517  0.00  0.00    -0.264 N 
ATOM     21  C   UNL     1      -6.579   5.814   2.659  0.00  0.00    +0.251 C 
ATOM     22  O   UNL     1      -6.306   5.202   3.673  0.00  0.00    -0.270 OA
ATOM     23  H   UNL     1      -6.128   6.047   0.708  0.00  0.00    +0.157 HD
BRANCH  21  24
ATOM     24  C   UNL     1      -7.643   6.839   2.678  0.00  0.00    +0.057 A 
ATOM     25  C   UNL     1      -7.955   7.549   1.517  0.00  0.00    +0.047 A 
ATOM     26  C   UNL     1      -8.952   8.501   1.541  0.00  0.00    +0.127 A 
ATOM     27  C   UNL     1      -9.637   8.762   2.715  0.00  0.00    +0.034 A 
ATOM     28  C   UNL     1      -9.331   8.067   3.871  0.00  0.00    +0.023 A 
ATOM     29  C   UNL     1      -8.337   7.107   3.861  0.00  0.00    +0.053 A 
ATOM     30 CL   UNL     1      -7.954   6.236   5.312  0.00  0.00    -0.083 Cl
BRANCH  26  31
ATOM     31  N   UNL     1      -9.287   9.250   0.309  0.00  0.00    +0.056 N 
ATOM     32  O   UNL     1     -10.164  10.095   0.329  0.00  0.00    -0.126 OA
ATOM     33  O   UNL     1      -8.685   9.022  -0.725  0.00  0.00    -0.126 OA
ENDBRANCH  26  31
ENDBRANCH  21  24
ENDBRANCH  18  20
ENDBRANCH   1  18
TORSDOF 8
