REMARK  Name = ZINC48570067
REMARK  6 active torsions:
REMARK  status: ('A' for Active; 'I' for Inactive)
REMARK    1  A    between atoms: C_1  and  C_2
REMARK    2  A    between atoms: C_2  and  C_3
REMARK    3  A    between atoms: N_5  and  C_6
REMARK    4  A    between atoms: C_9  and  N_12
REMARK    5  A    between atoms: C_13  and  C_15
REMARK    6  A    between atoms: N_17  and  C_18
REMARK                            x       y       z     vdW  Elec       q    Type
REMARK                         _______ _______ _______ _____ _____    ______ ____
ROOT
ATOM      1  N   UNL     1      -6.719  -4.122   0.247  0.00  0.00    -0.278 N 
ATOM      2  C   UNL     1      -6.856  -5.452   0.422  0.00  0.00    +0.303 C 
ATOM      3  O   UNL     1      -5.875  -6.166   0.436  0.00  0.00    -0.265 OA
ATOM      4  H   UNL     1      -7.506  -3.560   0.168  0.00  0.00    +0.155 HD
ENDROOT
BRANCH   1   8
ATOM      5  C   UNL     1      -2.917  -2.427   0.042  0.00  0.00    +0.033 A 
ATOM      6  C   UNL     1      -3.144  -3.690  -0.490  0.00  0.00    +0.025 A 
ATOM      7  C   UNL     1      -4.403  -4.252  -0.422  0.00  0.00    +0.025 A 
ATOM      8  C   UNL     1      -5.444  -3.554   0.178  0.00  0.00    +0.034 A 
ATOM      9  C   UNL     1      -5.216  -2.291   0.710  0.00  0.00    +0.025 A 
ATOM     10  C   UNL     1      -3.956  -1.732   0.647  0.00  0.00    +0.025 A 
BRANCH   5  13
ATOM     11  C   UNL     1      -1.191  -1.086   0.983  0.00  0.00    +0.217 C 
ATOM     12  O   UNL     1      -1.922  -0.817   1.912  0.00  0.00    -0.275 OA
ATOM     13  N   UNL     1      -1.640  -1.858  -0.027  0.00  0.00    -0.286 N 
ATOM     14  H   UNL     1      -1.079  -2.018  -0.801  0.00  0.00    +0.155 HD
BRANCH  11  16
ATOM     15  C   UNL     1       0.474   0.281   2.211  0.00  0.00    +0.013 C 
ATOM     16  C   UNL     1       0.221  -0.559   0.958  0.00  0.00    +0.093 C 
ENDBRANCH  11  16
ENDBRANCH   5  13
ENDBRANCH   1   8
BRANCH   2  17
ATOM     17  C   UNL     1      -8.214  -6.046   0.598  0.00  0.00    +0.300 C 
ATOM     18  O   UNL     1      -9.196  -5.332   0.584  0.00  0.00    -0.265 OA
ATOM     19  N   UNL     1      -8.351  -7.375   0.773  0.00  0.00    -0.302 N 
ATOM     20  H   UNL     1      -7.567  -7.946   0.784  0.00  0.00    +0.150 HD
BRANCH  19  21
ATOM     21  C   UNL     1      -9.684  -7.958   0.946  0.00  0.00    +0.036 C 
ATOM     22  C   UNL     1     -10.349  -7.352   2.183  0.00  0.00    +0.029 C 
ATOM     23  C   UNL     1     -11.741  -7.961   2.364  0.00  0.00    -0.008 C 
ATOM     24  C   UNL     1     -11.616  -9.475   2.542  0.00  0.00    +0.007 C 
ATOM     25  C   UNL     1     -10.951 -10.081   1.305  0.00  0.00    -0.008 C 
ATOM     26  C   UNL     1      -9.559  -9.473   1.124  0.00  0.00    +0.029 C 
ATOM     27  C   UNL     1     -11.803  -9.781   0.070  0.00  0.00    +0.007 C 
ATOM     28  C   UNL     1     -11.928  -8.267  -0.108  0.00  0.00    -0.008 C 
ATOM     29  C   UNL     1     -12.593  -7.661   1.129  0.00  0.00    +0.007 C 
ATOM     30  C   UNL     1     -10.536  -7.658  -0.289  0.00  0.00    +0.029 C 
ENDBRANCH  19  21
ENDBRANCH   2  17
TORSDOF 5
