REMARK  Name = ZINC39280365
REMARK  5 active torsions:
REMARK  status: ('A' for Active; 'I' for Inactive)
REMARK    1  A    between atoms: C_1  and  C_2
REMARK    2  A    between atoms: C_5  and  C_8
REMARK    3  A    between atoms: C_10  and  C_14
REMARK    4  A    between atoms: C_18  and  S_22
REMARK    5  A    between atoms: N_20  and  N_21
REMARK                            x       y       z     vdW  Elec       q    Type
REMARK                         _______ _______ _______ _____ _____    ______ ____
ROOT
ATOM      1  C   UNL     1       0.061  -4.256  -0.021  0.00  0.00    +0.091 C 
ATOM      2  C   UNL     1       0.071  -5.030   1.081  0.00  0.00    +0.034 C 
ATOM      3  C   UNL     1       0.090  -6.445   0.530  0.00  0.00    +0.187 C 
ATOM      4  N   UNL     1       0.087  -6.239  -0.927  0.00  0.00    -0.176 NA
ATOM      5  N   UNL     1       0.065  -5.025  -1.142  0.00  0.00    -0.154 NA
ENDROOT
BRANCH   1  10
ATOM      6  C   UNL     1      -0.018   1.503   0.010  0.00  0.00    +0.044 C 
ATOM      7  C   UNL     1       0.002  -0.004   0.002  0.00  0.00    -0.050 A 
ATOM      8  C   UNL     1       0.006  -0.686  -1.201  0.00  0.00    +0.004 A 
ATOM      9  C   UNL     1       0.025  -2.066  -1.215  0.00  0.00    +0.010 A 
ATOM     10  C   UNL     1       0.041  -2.772  -0.013  0.00  0.00    +0.002 A 
ATOM     11  C   UNL     1       0.037  -2.080   1.196  0.00  0.00    +0.010 A 
ATOM     12  C   UNL     1       0.023  -0.700   1.198  0.00  0.00    +0.004 A 
ENDBRANCH   1  10
BRANCH   3  13
ATOM     13  C   UNL     1      -1.156  -7.214   0.974  0.00  0.00    +0.185 C 
ATOM     14  N   UNL     1      -2.370  -6.656   0.322  0.00  0.00    -0.234 NA
ATOM     15  N   UNL     1      -3.314  -7.784   0.358  0.00  0.00    -0.228 NA
ATOM     16  C   UNL     1      -2.476  -8.977   0.102  0.00  0.00    +0.211 C 
ATOM     17  N   UNL     1      -1.097  -8.616   0.498  0.00  0.00    -0.197 NA
ATOM     18  H   UNL     1      -2.728  -5.868   0.840  0.00  0.00    +0.143 HD
ATOM     19  H   UNL     1      -3.768  -7.847   1.257  0.00  0.00    +0.143 HD
BRANCH  17  20
ATOM     20  N   UNL     1      -0.181  -8.748  -0.624  0.00  0.00    -0.264 NA
ATOM     21  H   UNL     1      -0.141  -9.702  -0.947  0.00  0.00    +0.137 HD
ATOM     22  H   UNL     1      -0.436  -8.122  -1.373  0.00  0.00    +0.137 HD
ENDBRANCH  17  20
BRANCH  16  23
ATOM     23  S   UNL     1      -3.062 -10.374   1.099  0.00  0.00    -0.142 S 
ATOM     24  H   UNL     1      -4.319 -10.577   0.667  0.00  0.00    +0.105 HD
ENDBRANCH  16  23
ENDBRANCH   3  13
TORSDOF 4
