REMARK  Name = ZINC09647694
REMARK  6 active torsions:
REMARK  status: ('A' for Active; 'I' for Inactive)
REMARK    1  A    between atoms: C_1  and  C_2
REMARK    2  A    between atoms: C_2  and  C_4
REMARK    3  A    between atoms: C_2  and  S_15
REMARK    4  A    between atoms: N_6  and  C_7
REMARK    5  A    between atoms: C_10  and  C_13
REMARK    6  A    between atoms: S_15  and  C_16
REMARK                            x       y       z     vdW  Elec       q    Type
REMARK                         _______ _______ _______ _____ _____    ______ ____
ROOT
ATOM      1  C   UNL     1      -3.452   6.139  -1.175  0.00  0.00    +0.029 C 
ATOM      2  C   UNL     1      -4.059   6.085   0.228  0.00  0.00    +0.137 C 
ENDROOT
BRANCH   2   3
ATOM      3  C   UNL     1      -5.075   7.188   0.379  0.00  0.00    +0.230 C 
ATOM      4  O   UNL     1      -6.257   6.943   0.266  0.00  0.00    -0.274 OA
ATOM      5  N   UNL     1      -4.669   8.447   0.639  0.00  0.00    -0.285 N 
ATOM      6  H   UNL     1      -3.731   8.630   0.805  0.00  0.00    +0.155 HD
BRANCH   5   7
ATOM      7  C   UNL     1      -5.599   9.487   0.669  0.00  0.00    +0.033 A 
ATOM      8  C   UNL     1      -6.700   9.459  -0.180  0.00  0.00    +0.024 A 
ATOM      9  C   UNL     1      -7.622  10.481  -0.150  0.00  0.00    +0.020 A 
ATOM     10  C   UNL     1      -7.444  11.554   0.728  0.00  0.00    +0.052 A 
ATOM     11  C   UNL     1      -6.334  11.582   1.577  0.00  0.00    +0.020 A 
ATOM     12  C   UNL     1      -5.419  10.553   1.544  0.00  0.00    +0.024 A 
BRANCH  10  13
ATOM     13  C   UNL     1      -8.398  12.621   0.759  0.00  0.00    +0.099 C 
ATOM     14  N   UNL     1      -9.155  13.468   0.784  0.00  0.00    -0.191 NA
ENDBRANCH  10  13
ENDBRANCH   5   7
ENDBRANCH   2   3
BRANCH   2  15
ATOM     15  S   UNL     1      -4.866   4.484   0.476  0.00  0.00    -0.073 S 
BRANCH  15  16
ATOM     16  C   UNL     1      -3.464   3.420   0.399  0.00  0.00    +0.192 A 
ATOM     17  N   UNL     1      -3.632   2.110   0.540  0.00  0.00    -0.207 NA
ATOM     18  C   UNL     1      -2.618   1.263   0.491  0.00  0.00    +0.129 A 
ATOM     19  C   UNL     1      -1.303   1.761   0.276  0.00  0.00    +0.047 A 
ATOM     20  C   UNL     1      -0.041   1.044   0.192  0.00  0.00    +0.021 A 
ATOM     21  C   UNL     1       1.091   1.733  -0.012  0.00  0.00    +0.048 A 
ATOM     22  S   UNL     1       0.538   3.426  -0.099  0.00  0.00    -0.077 S 
ATOM     23  C   UNL     1      -1.199   3.162   0.141  0.00  0.00    +0.114 A 
ATOM     24  N   UNL     1      -2.261   3.942   0.201  0.00  0.00    -0.215 NA
ATOM     25  N   UNL     1      -2.834  -0.095   0.643  0.00  0.00    -0.343 N 
ATOM     26  H   UNL     1      -3.734  -0.430   0.785  0.00  0.00    +0.144 HD
ATOM     27  H   UNL     1      -2.087  -0.712   0.606  0.00  0.00    +0.144 HD
ENDBRANCH  15  16
ENDBRANCH   2  15
TORSDOF 5
