REMARK  Name = ZINC16011536
REMARK  4 active torsions:
REMARK  status: ('A' for Active; 'I' for Inactive)
REMARK    1  A    between atoms: C_12  and  C_15
REMARK    2  A    between atoms: C_15  and  C_16
REMARK    3  A    between atoms: C_19  and  O_22
REMARK    4  A    between atoms: N_25  and  C_28
REMARK                            x       y       z     vdW  Elec       q    Type
REMARK                         _______ _______ _______ _____ _____    ______ ____
ROOT
ATOM      1  C   UNL     1      -0.017   1.379   0.010  0.00  0.00    +0.000 A 
ATOM      2  C   UNL     1       1.173   2.083   0.002  0.00  0.00    +0.002 A 
ATOM      3  C   UNL     1       2.378   1.412  -0.014  0.00  0.00    +0.023 A 
ATOM      4  C   UNL     1       2.405   0.019  -0.022  0.00  0.00    +0.039 A 
ATOM      5  C   UNL     1       1.201  -0.681  -0.013  0.00  0.00    +0.003 A 
ATOM      6  C   UNL     1       0.002  -0.004   0.002  0.00  0.00    +0.008 A 
ATOM      7  C   UNL     1       1.574  -2.134  -0.028  0.00  0.00    +0.136 C 
ATOM      8  C   UNL     1       1.001  -2.917   1.135  0.00  0.00    +0.123 C 
ATOM      9  C   UNL     1      -0.460  -3.080   0.561  0.00  0.00    +0.108 C 
ATOM     10  C   UNL     1      -0.242  -3.517  -0.824  0.00  0.00    +0.072 C 
ATOM     11  N   UNL     1       1.030  -2.813  -1.236  0.00  0.00    -0.295 NA
ATOM     12  C   UNL     1      -1.202  -3.462   1.738  0.00  0.00    +0.232 C 
ATOM     13  O   UNL     1      -2.152  -4.213   1.801  0.00  0.00    -0.274 OA
ATOM     14  N   UNL     1      -0.597  -2.790   2.771  0.00  0.00    -0.210 N 
ATOM     15  C   UNL     1       0.623  -2.251   2.423  0.00  0.00    +0.233 C 
ATOM     16  O   UNL     1       1.260  -1.413   3.024  0.00  0.00    -0.274 OA
ATOM     17  C   UNL     1       3.079  -2.155  -0.046  0.00  0.00    +0.243 C 
ATOM     18  O   UNL     1       3.790  -3.138  -0.063  0.00  0.00    -0.273 OA
ATOM     19  N   UNL     1       3.482  -0.870  -0.039  0.00  0.00    -0.283 N 
ATOM     20  H   UNL     1       0.861  -2.151  -1.978  0.00  0.00    +0.124 HD
ATOM     21  H   UNL     1       4.412  -0.594  -0.046  0.00  0.00    +0.155 HD
ENDROOT
BRANCH  14  22
ATOM     22  C   UNL     1      -1.155  -2.672   4.053  0.00  0.00    +0.044 A 
ATOM     23  C   UNL     1      -0.480  -1.969   5.042  0.00  0.00    +0.027 A 
ATOM     24  C   UNL     1      -1.031  -1.853   6.303  0.00  0.00    +0.040 A 
ATOM     25  C   UNL     1      -2.255  -2.438   6.581  0.00  0.00    +0.124 A 
ATOM     26  C   UNL     1      -2.929  -3.139   5.596  0.00  0.00    +0.040 A 
ATOM     27  C   UNL     1      -2.384  -3.252   4.332  0.00  0.00    +0.027 A 
ATOM     28  F   UNL     1      -2.792  -2.324   7.816  0.00  0.00    -0.205 F 
ENDBRANCH  14  22
BRANCH  10  29
ATOM     29  C   UNL     1      -0.085  -5.037  -0.886  0.00  0.00    +0.054 C 
BRANCH  29  30
ATOM     30  C   UNL     1       0.015  -5.474  -2.325  0.00  0.00    -0.046 A 
ATOM     31  C   UNL     1      -1.131  -5.789  -3.032  0.00  0.00    +0.007 A 
ATOM     32  C   UNL     1      -1.043  -6.190  -4.351  0.00  0.00    +0.045 A 
ATOM     33  C   UNL     1       0.197  -6.275  -4.967  0.00  0.00    +0.117 A 
ATOM     34  C   UNL     1       1.345  -5.958  -4.256  0.00  0.00    +0.045 A 
ATOM     35  C   UNL     1       1.251  -5.553  -2.939  0.00  0.00    +0.007 A 
BRANCH  33  36
ATOM     36  O   UNL     1       0.287  -6.669  -6.264  0.00  0.00    -0.507 OA
ATOM     37  H   UNL     1       0.241  -5.942  -6.900  0.00  0.00    +0.292 HD
ENDBRANCH  33  36
ENDBRANCH  29  30
ENDBRANCH  10  29
TORSDOF 4
