REMARK  Name = ZINC52011579
REMARK  5 active torsions:
REMARK  status: ('A' for Active; 'I' for Inactive)
REMARK    1  A    between atoms: CB_1  and  CA_2
REMARK    2  A    between atoms: CA_2  and  C_4
REMARK    3  A    between atoms: CA_2  and  N_7
REMARK    4  A    between atoms: N_10  and  C_11
REMARK    5  A    between atoms: C_17  and  O_19
REMARK                            x       y       z     vdW  Elec       q    Type
REMARK                         _______ _______ _______ _____ _____    ______ ____
ROOT
ATOM      1  N   ALA A   1      -1.372  -0.511   0.012  0.00  0.00    -0.286 N 
ATOM      2  C   UNK A   0      -2.029  -0.655   1.181  0.00  0.00    +0.301 C 
ATOM      3  O   UNK A   0      -1.480  -0.364   2.226  0.00  0.00    -0.253 OA
ATOM      4  N   UNK A   0      -3.293  -1.122   1.190  0.00  0.00    -0.294 N 
ATOM      5  H   ALA A   1      -1.810  -0.743  -0.822  0.00  0.00    +0.151 HD
ATOM      6  H   UNK A   0      -3.731  -1.354   0.356  0.00  0.00    +0.151 HD
ENDROOT
BRANCH   4   7
ATOM      7  C   UNK A   0      -4.006  -1.278   2.460  0.00  0.00    +0.103 C 
ATOM      8  C   UNK A   0      -3.657  -2.634   3.078  0.00  0.00    +0.025 C 
ATOM      9  C   UNK A   0      -4.071  -3.752   2.119  0.00  0.00    +0.002 C 
ATOM     10  C   UNK A   0      -5.579  -3.679   1.869  0.00  0.00    +0.003 C 
ATOM     11  C   UNK A   0      -5.928  -2.323   1.252  0.00  0.00    +0.033 C 
ATOM     12  C   UNK A   0      -5.514  -1.205   2.211  0.00  0.00    +0.135 C 
BRANCH  12  13
ATOM     13  O   UNK A   0      -5.840   0.062   1.634  0.00  0.00    -0.390 OA
ATOM     14  H   UNK A   0      -6.782   0.178   1.449  0.00  0.00    +0.210 HD
ENDBRANCH  12  13
ENDBRANCH   4   7
BRANCH   1  16
ATOM     15  CB  ALA A   1      -0.019   1.526   0.010  0.00  0.00    +0.040 C 
ATOM     16  CA  ALA A   1       0.002  -0.004   0.002  0.00  0.00    +0.184 C 
BRANCH  16  17
ATOM     17  C   ALA A   1       0.707  -0.490  -1.238  0.00  0.00    +0.376 C 
ATOM     18  O   ALA A   1       1.911  -0.336  -1.354  0.00  0.00    -0.244 OA
ATOM     19  OXT ALA A   1       0.074  -1.038  -2.124  0.00  0.00    -0.244 OA
ENDBRANCH  16  17
ENDBRANCH   1  16
TORSDOF 4
