REMARK  Name = ZINC27469177
REMARK  8 active torsions:
REMARK  status: ('A' for Active; 'I' for Inactive)
REMARK    1  A    between atoms: C_10  and  C_11
REMARK    2  A    between atoms: N_13  and  C_14
REMARK    3  A    between atoms: C_14  and  C_16
REMARK    4  A    between atoms: C_14  and  N_20
REMARK    5  A    between atoms: N_20  and  C_21
REMARK    6  A    between atoms: C_21  and  N_23
REMARK    7  A    between atoms: N_23  and  C_24
REMARK    8  A    between atoms: C_29  and  N_30
REMARK                            x       y       z     vdW  Elec       q    Type
REMARK                         _______ _______ _______ _____ _____    ______ ____
ROOT
ATOM      1  C   UNL     1       1.251   1.843   0.475  0.00  0.00    +0.211 C 
ENDROOT
BRANCH   1   4
ATOM      2  C   UNL     1       1.520   2.616   2.771  0.00  0.00    +0.246 C 
ATOM      3  O   UNL     1       0.978   3.657   2.452  0.00  0.00    -0.270 OA
ATOM      4  N   UNL     1       1.704   1.644   1.855  0.00  0.00    -0.289 N 
ATOM      5  H   UNL     1       2.193   0.702   2.143  0.00  0.00    +0.151 HD
BRANCH   2  15
ATOM      6  C   UNL     1       1.759   5.511   6.975  0.00  0.00    +0.001 A 
ATOM      7  C   UNL     1       1.323   5.723   5.669  0.00  0.00    +0.001 A 
ATOM      8  C   UNL     1       1.386   4.729   4.739  0.00  0.00    +0.009 A 
ATOM      9  C   UNL     1       1.895   3.474   5.099  0.00  0.00    -0.006 A 
ATOM     10  C   UNL     1       2.338   3.256   6.426  0.00  0.00    -0.017 A 
ATOM     11  C   UNL     1       2.260   4.304   7.359  0.00  0.00    +0.008 A 
ATOM     12  C   UNL     1       2.848   1.997   6.788  0.00  0.00    +0.008 A 
ATOM     13  C   UNL     1       2.915   0.995   5.867  0.00  0.00    +0.001 A 
ATOM     14  C   UNL     1       2.481   1.188   4.561  0.00  0.00    +0.013 A 
ATOM     15  C   UNL     1       1.975   2.416   4.159  0.00  0.00    +0.044 A 
ENDBRANCH   2  15
ENDBRANCH   1   4
BRANCH   1  16
ATOM     16  C   UNL     1       2.344   1.382  -0.491  0.00  0.00    +0.225 C 
ATOM     17 CL   UNL     1       1.788   1.626  -2.188  0.00  0.00    -0.080 Cl
ATOM     18 CL   UNL     1       3.843   2.342  -0.206  0.00  0.00    -0.080 Cl
ATOM     19 CL   UNL     1       2.690  -0.366  -0.218  0.00  0.00    -0.080 Cl
ENDBRANCH   1  16
BRANCH   1  20
ATOM     20  N   UNL     1       0.034   1.063   0.244  0.00  0.00    -0.305 N 
ATOM     21  H   UNL     1       0.094  -0.029   0.123  0.00  0.00    +0.150 HD
BRANCH  20  22
ATOM     22  C   UNL     1      -1.162   1.682   0.178  0.00  0.00    +0.136 C 
ATOM     23  S   UNL     1      -1.257   3.380   0.373  0.00  0.00    -0.019 S 
BRANCH  22  24
ATOM     24  N   UNL     1      -2.281   0.965  -0.041  0.00  0.00    -0.295 N 
ATOM     25  H   UNL     1      -2.232  -0.133  -0.082  0.00  0.00    +0.154 HD
BRANCH  24  26
ATOM     26  C   UNL     1      -3.507   1.617  -0.216  0.00  0.00    +0.063 A 
ATOM     27  C   UNL     1      -3.591   2.731  -1.041  0.00  0.00    +0.025 A 
ATOM     28  C   UNL     1      -4.803   3.369  -1.215  0.00  0.00    +0.002 A 
ATOM     29  C   UNL     1      -5.930   2.907  -0.561  0.00  0.00    +0.002 A 
ATOM     30  C   UNL     1      -5.849   1.801   0.265  0.00  0.00    +0.034 A 
ATOM     31  C   UNL     1      -4.641   1.155   0.440  0.00  0.00    +0.147 A 
BRANCH  31  32
ATOM     32  N   UNL     1      -4.554  -0.028   1.325  0.00  0.00    +0.058 N 
ATOM     33  O   UNL     1      -5.528  -0.381   1.966  0.00  0.00    -0.126 OA
ATOM     34  O   UNL     1      -3.509  -0.647   1.414  0.00  0.00    -0.126 OA
ENDBRANCH  31  32
ENDBRANCH  24  26
ENDBRANCH  22  24
ENDBRANCH  20  22
ENDBRANCH   1  20
TORSDOF 8
