REMARK  Name = ZINC19529617
REMARK  9 active torsions:
REMARK  status: ('A' for Active; 'I' for Inactive)
REMARK    1  A    between atoms: C_1  and  C_2
REMARK    2  A    between atoms: C_2  and  O_3
REMARK    3  A    between atoms: O_3  and  C_4
REMARK    4  A    between atoms: C_4  and  C_6
REMARK    5  A    between atoms: C_6  and  C_27
REMARK    6  A    between atoms: C_11  and  C_14
REMARK    7  A    between atoms: C_17  and  O_20
REMARK    8  A    between atoms: N_23  and  C_26
REMARK    9  A    between atoms: C_27  and  O_28
REMARK                            x       y       z     vdW  Elec       q    Type
REMARK                         _______ _______ _______ _____ _____    ______ ____
ROOT
ATOM      1  C   UNL     1      -0.887   1.682  -3.629  0.00  0.00    +0.153 C 
ATOM      2  C   UNL     1       0.077   1.725  -4.740  0.00  0.00    +0.122 C 
ATOM      3  C   UNL     1      -0.539   2.827  -5.694  0.00  0.00    +0.111 C 
ATOM      4  C   UNL     1      -0.741   3.889  -4.607  0.00  0.00    +0.098 C 
ATOM      5  N   UNL     1      -1.352   3.101  -3.487  0.00  0.00    -0.292 NA
ATOM      6  C   UNL     1       0.653   2.922  -6.606  0.00  0.00    +0.227 C 
ATOM      7  O   UNL     1       1.081   3.917  -7.150  0.00  0.00    -0.275 OA
ATOM      8  N   UNL     1       1.154   1.653  -6.692  0.00  0.00    -0.245 N 
ATOM      9  C   UNL     1       0.686   0.830  -5.699  0.00  0.00    +0.228 C 
ATOM     10  O   UNL     1       0.766  -0.379  -5.638  0.00  0.00    -0.275 OA
ATOM     11  C   UNL     1       2.089   1.220  -7.733  0.00  0.00    +0.141 C 
ATOM     12  H   UNL     1      -2.450   3.135  -3.547  0.00  0.00    +0.124 HD
ENDROOT
BRANCH   4  13
ATOM     13  C   UNL     1      -1.684   4.966  -5.080  0.00  0.00    -0.029 A 
ATOM     14  C   UNL     1      -3.049   4.747  -5.055  0.00  0.00    +0.009 A 
ATOM     15  C   UNL     1      -3.916   5.733  -5.482  0.00  0.00    +0.046 A 
ATOM     16  C   UNL     1      -3.416   6.941  -5.947  0.00  0.00    +0.117 A 
ATOM     17  C   UNL     1      -2.045   7.156  -5.976  0.00  0.00    +0.046 A 
ATOM     18  C   UNL     1      -1.183   6.168  -5.542  0.00  0.00    +0.009 A 
BRANCH  16  19
ATOM     19  O   UNL     1      -4.266   7.912  -6.373  0.00  0.00    -0.507 OA
ATOM     20  H   UNL     1      -3.868   8.868  -6.742  0.00  0.00    +0.292 HD
ENDBRANCH  16  19
ENDBRANCH   4  13
BRANCH   1  21
ATOM     21  C   UNL     1      -0.211   1.220  -2.363  0.00  0.00    +0.331 C 
ATOM     22  O   UNL     1       0.783   0.536  -2.424  0.00  0.00    -0.249 OA
BRANCH  21  23
ATOM     23  O   UNL     1      -0.715   1.567  -1.168  0.00  0.00    -0.464 OA
BRANCH  23  25
ATOM     24  C   UNL     1      -0.729   1.579   1.267  0.00  0.00    +0.048 C 
ATOM     25  C   UNL     1      -0.013   1.086   0.008  0.00  0.00    +0.229 C 
ENDBRANCH  23  25
ENDBRANCH  21  23
ENDBRANCH   1  21
BRANCH   1  26
ATOM     26  C   UNL     1      -2.060   0.763  -3.974  0.00  0.00    +0.190 C 
BRANCH  26  27
ATOM     27  O   UNL     1      -3.056   0.859  -2.953  0.00  0.00    -0.393 OA
ATOM     28  H   UNL     1      -3.980   0.266  -3.029  0.00  0.00    +0.209 HD
ENDBRANCH  26  27
ENDBRANCH   1  26
TORSDOF 7
