REMARK  Name = ZINC06792518
REMARK  6 active torsions:
REMARK  status: ('A' for Active; 'I' for Inactive)
REMARK    1  A    between atoms: C_1  and  N_2
REMARK    2  A    between atoms: N_2  and  S_3
REMARK    3  A    between atoms: S_3  and  C_6
REMARK    4  A    between atoms: C_9  and  N_12
REMARK    5  A    between atoms: N_12  and  C_13
REMARK    6  A    between atoms: N_20  and  C_23
REMARK                            x       y       z     vdW  Elec       q    Type
REMARK                         _______ _______ _______ _____ _____    ______ ____
ROOT
ATOM      1  C   UNL     1      -3.302  -0.532   6.566  0.00  0.00    +0.090 C 
ATOM      2  C   UNL     1      -3.967  -0.317   7.760  0.00  0.00    +0.113 C 
ATOM      3  C   UNL     1      -5.035  -1.222   8.219  0.00  0.00    +0.258 C 
ATOM      4  O   UNL     1      -5.362  -2.189   7.557  0.00  0.00    -0.270 OA
ATOM      5  N   UNL     1      -5.641  -0.950   9.393  0.00  0.00    -0.235 N 
ATOM      6  C   UNL     1      -5.290   0.112  10.133  0.00  0.00    +0.320 C 
ATOM      7  O   UNL     1      -5.875   0.301  11.181  0.00  0.00    -0.251 OA
ATOM      8  N   UNL     1      -4.329   0.975   9.777  0.00  0.00    -0.190 N 
ATOM      9  C   UNL     1      -3.635   0.825   8.630  0.00  0.00    +0.265 C 
ATOM     10  O   UNL     1      -2.761   1.613   8.321  0.00  0.00    -0.269 OA
ATOM     11  H   UNL     1      -6.346  -1.536   9.710  0.00  0.00    +0.159 HD
ENDROOT
BRANCH   8  12
ATOM     12  C   UNL     1      -4.035   2.057  10.618  0.00  0.00    +0.046 A 
ATOM     13  C   UNL     1      -4.301   3.354  10.202  0.00  0.00    +0.024 A 
ATOM     14  C   UNL     1      -4.010   4.418  11.034  0.00  0.00    +0.002 A 
ATOM     15  C   UNL     1      -3.455   4.192  12.280  0.00  0.00    +0.000 A 
ATOM     16  C   UNL     1      -3.189   2.901  12.697  0.00  0.00    +0.002 A 
ATOM     17  C   UNL     1      -3.482   1.832  11.872  0.00  0.00    +0.024 A 
ENDBRANCH   8  12
BRANCH   1  18
ATOM     18  N   UNL     1      -2.239   0.232   6.239  0.00  0.00    -0.320 N 
ATOM     19  H   UNL     1      -1.989   0.982   6.802  0.00  0.00    +0.152 HD
BRANCH  18  23
ATOM     20  C   UNL     1      -0.033  -0.628   2.813  0.00  0.00    +0.105 A 
ATOM     21  C   UNL     1       0.325   0.441   3.614  0.00  0.00    +0.030 A 
ATOM     22  C   UNL     1      -0.404   0.729   4.751  0.00  0.00    +0.025 A 
ATOM     23  C   UNL     1      -1.499  -0.056   5.089  0.00  0.00    +0.031 A 
ATOM     24  C   UNL     1      -1.856  -1.129   4.282  0.00  0.00    +0.025 A 
ATOM     25  C   UNL     1      -1.125  -1.409   3.144  0.00  0.00    +0.030 A 
BRANCH  20  26
ATOM     26  S   UNL     1       0.901  -0.992   1.364  0.00  0.00    +0.058 S 
ATOM     27  O   UNL     1       0.688  -2.367   1.078  0.00  0.00    -0.153 OA
ATOM     28  O   UNL     1       2.198  -0.449   1.569  0.00  0.00    -0.153 OA
BRANCH  26  30
ATOM     29  C   UNL     1       0.255   1.326   0.130  0.00  0.00    +0.127 C 
ATOM     30  N   UNL     1       0.223  -0.139   0.117  0.00  0.00    -0.193 NA
ATOM     31  H   UNL     1      -0.196  -0.609  -0.621  0.00  0.00    +0.148 HD
ENDBRANCH  26  30
ENDBRANCH  20  26
ENDBRANCH  18  23
ENDBRANCH   1  18
TORSDOF 5
