REMARK  Name = ZINC11592217
REMARK  6 active torsions:
REMARK  status: ('A' for Active; 'I' for Inactive)
REMARK    1  A    between atoms: C_3  and  C_6
REMARK    2  A    between atoms: C_9  and  S_12
REMARK    3  A    between atoms: N_10  and  N_11
REMARK    4  A    between atoms: S_12  and  C_13
REMARK    5  A    between atoms: C_13  and  C_14
REMARK    6  A    between atoms: N_16  and  C_17
REMARK                            x       y       z     vdW  Elec       q    Type
REMARK                         _______ _______ _______ _____ _____    ______ ____
ROOT
ATOM      1  S   UNL     1       3.363   7.617  -1.055  0.00  0.00    -0.075 S 
ENDROOT
BRANCH   1   5
ATOM      2  C   UNL     1       6.769   9.513  -1.348  0.00  0.00    +0.188 A 
ATOM      3  N   UNL     1       7.136   8.315  -0.951  0.00  0.00    -0.126 NA
ATOM      4  N   UNL     1       6.103   7.565  -0.803  0.00  0.00    -0.121 NA
ATOM      5  C   UNL     1       5.013   8.233  -1.105  0.00  0.00    +0.209 A 
ATOM      6  N   UNL     1       5.396   9.497  -1.459  0.00  0.00    -0.223 N 
BRANCH   2   9
ATOM      7  C   UNL     1       9.603  11.996  -1.646  0.00  0.00    +0.008 A 
ATOM      8  C   UNL     1       8.970  10.832  -1.271  0.00  0.00    +0.019 A 
ATOM      9  C   UNL     1       7.656  10.655  -1.622  0.00  0.00    +0.058 A 
ATOM     10  S   UNL     1       7.300  12.173  -2.492  0.00  0.00    -0.093 S 
ATOM     11  C   UNL     1       8.908  12.934  -2.340  0.00  0.00    +0.046 A 
ENDBRANCH   2   9
BRANCH   6  12
ATOM     12  N   UNL     1       4.587  10.528  -1.842  0.00  0.00    -0.295 N 
ATOM     13  H   UNL     1       4.296  11.076  -1.046  0.00  0.00    +0.163 HD
ATOM     14  H   UNL     1       5.041  11.107  -2.533  0.00  0.00    +0.163 HD
ENDBRANCH   6  12
ENDBRANCH   1   5
BRANCH   1  15
ATOM     15  C   UNL     1       3.677   5.920  -0.510  0.00  0.00    +0.173 C 
BRANCH  15  16
ATOM     16  C   UNL     1       2.370   5.180  -0.393  0.00  0.00    +0.228 C 
ATOM     17  O   UNL     1       1.328   5.744  -0.653  0.00  0.00    -0.275 OA
ATOM     18  N   UNL     1       2.358   3.890  -0.001  0.00  0.00    -0.282 N 
ATOM     19  H   UNL     1       3.182   3.461   0.277  0.00  0.00    +0.155 HD
BRANCH  18  20
ATOM     20  C   UNL     1       1.156   3.171   0.007  0.00  0.00    +0.071 A 
ATOM     21  C   UNL     1       0.749   2.485  -1.130  0.00  0.00    +0.065 A 
ATOM     22  C   UNL     1      -0.438   1.776  -1.120  0.00  0.00    +0.042 A 
ATOM     23  C   UNL     1      -1.223   1.755   0.019  0.00  0.00    +0.044 A 
ATOM     24  C   UNL     1      -0.818   2.433   1.155  0.00  0.00    +0.042 A 
ATOM     25  C   UNL     1       0.368   3.144   1.151  0.00  0.00    +0.065 A 
ATOM     26 CL   UNL     1       0.874   3.999   2.575  0.00  0.00    -0.082 Cl
ATOM     27 CL   UNL     1      -2.717   0.870   0.026  0.00  0.00    -0.083 Cl
ATOM     28 CL   UNL     1       1.729   2.517  -2.562  0.00  0.00    -0.082 Cl
ENDBRANCH  18  20
ENDBRANCH  15  16
ENDBRANCH   1  15
TORSDOF 6
