REMARK  Name = ZINC36136648
REMARK  8 active torsions:
REMARK  status: ('A' for Active; 'I' for Inactive)
REMARK    1  A    between atoms: C_4  and  C_7
REMARK    2  A    between atoms: C_7  and  C_8
REMARK    3  A    between atoms: C_7  and  C_14
REMARK    4  A    between atoms: C_7  and  O_29
REMARK    5  A    between atoms: N_16  and  N_17
REMARK    6  A    between atoms: C_18  and  C_19
REMARK    7  A    between atoms: C_22  and  O_28
REMARK    8  A    between atoms: C_23  and  N_25
REMARK                            x       y       z     vdW  Elec       q    Type
REMARK                         _______ _______ _______ _____ _____    ______ ____
ROOT
ATOM      1  C   UNL     1       4.324  -1.025  -1.377  0.00  0.00    +0.273 C 
ATOM      2  O   UNL     1       4.221  -2.141  -1.841  0.00  0.00    -0.270 OA
ATOM      3  N   UNL     1       4.986  -0.070  -2.059  0.00  0.00    -0.204 N 
ATOM      4  H   UNL     1       5.068   0.823  -1.688  0.00  0.00    +0.177 HD
ENDROOT
BRANCH   3   5
ATOM      5  N   UNL     1       5.556  -0.365  -3.305  0.00  0.00    -0.188 NA
ATOM      6  C   UNL     1       6.193   0.555  -3.962  0.00  0.00    +0.138 C 
BRANCH   6   7
ATOM      7  C   UNL     1       6.792   0.244  -5.272  0.00  0.00    -0.003 A 
ATOM      8  C   UNL     1       6.671  -1.040  -5.811  0.00  0.00    +0.013 A 
ATOM      9  C   UNL     1       7.232  -1.326  -7.037  0.00  0.00    +0.048 A 
ATOM     10  C   UNL     1       7.920  -0.341  -7.735  0.00  0.00    +0.147 A 
ATOM     11  C   UNL     1       8.044   0.935  -7.203  0.00  0.00    +0.168 A 
ATOM     12  C   UNL     1       7.479   1.233  -5.981  0.00  0.00    +0.046 A 
BRANCH  11  13
ATOM     13  N   UNL     1       8.777   1.980  -7.951  0.00  0.00    +0.060 N 
ATOM     14  O   UNL     1       8.886   3.092  -7.489  0.00  0.00    -0.126 OA
ATOM     15  O   UNL     1       9.268   1.722  -9.026  0.00  0.00    -0.126 OA
ENDBRANCH  11  13
BRANCH  10  16
ATOM     16  O   UNL     1       8.473  -0.628  -8.942  0.00  0.00    -0.504 OA
ATOM     17  H   UNL     1       7.882  -0.471  -9.692  0.00  0.00    +0.292 HD
ENDBRANCH  10  16
ENDBRANCH   6   7
ENDBRANCH   3   5
BRANCH   1  18
ATOM     18  C   UNL     1       3.711  -0.707  -0.038  0.00  0.00    +0.194 C 
BRANCH  18  22
ATOM     19  C   UNL     1      -0.165   0.994  -0.614  0.00  0.00    +0.000 A 
ATOM     20  C   UNL     1       0.674   1.499   0.362  0.00  0.00    +0.000 A 
ATOM     21  C   UNL     1       1.928   0.949   0.549  0.00  0.00    +0.007 A 
ATOM     22  C   UNL     1       2.344  -0.107  -0.240  0.00  0.00    -0.003 A 
ATOM     23  C   UNL     1       1.505  -0.613  -1.216  0.00  0.00    +0.007 A 
ATOM     24  C   UNL     1       0.251  -0.061  -1.404  0.00  0.00    +0.000 A 
ENDBRANCH  18  22
BRANCH  18  25
ATOM     25  C   UNL     1       3.590  -1.972   0.772  0.00  0.00    -0.003 A 
ATOM     26  C   UNL     1       4.326  -2.123   1.933  0.00  0.00    +0.007 A 
ATOM     27  C   UNL     1       4.215  -3.284   2.676  0.00  0.00    +0.000 A 
ATOM     28  C   UNL     1       3.367  -4.293   2.259  0.00  0.00    +0.000 A 
ATOM     29  C   UNL     1       2.631  -4.141   1.099  0.00  0.00    +0.000 A 
ATOM     30  C   UNL     1       2.739  -2.979   0.358  0.00  0.00    +0.007 A 
ENDBRANCH  18  25
BRANCH  18  31
ATOM     31  O   UNL     1       4.542   0.225   0.657  0.00  0.00    -0.371 OA
ATOM     32  H   UNL     1       5.439  -0.095   0.822  0.00  0.00    +0.212 HD
ENDBRANCH  18  31
ENDBRANCH   1  18
TORSDOF 8
