REMARK  Name = ZINC60374856
REMARK  4 active torsions:
REMARK  status: ('A' for Active; 'I' for Inactive)
REMARK    1  A    between atoms: C_1  and  C_2
REMARK    2  A    between atoms: C_2  and  C_18
REMARK    3  A    between atoms: N_5  and  C_9
REMARK    4  A    between atoms: C_9  and  C_10
REMARK                            x       y       z     vdW  Elec       q    Type
REMARK                         _______ _______ _______ _____ _____    ______ ____
ROOT
ATOM      1  C   UNL     1      -0.110   1.530  -0.110  0.00  0.00    +0.047 C 
ATOM      2  C   UNL     1      -0.050   0.001  -0.066  0.00  0.00    +0.141 C 
ATOM      3  C   UNL     1      -1.442  -0.584   0.072  0.00  0.00    +0.252 C 
ATOM      4  O   UNL     1      -2.365  -0.468  -0.705  0.00  0.00    -0.272 OA
ATOM      5  N   UNL     1      -1.438  -1.259   1.238  0.00  0.00    -0.220 N 
ATOM      6  C   UNL     1      -0.251  -1.184   1.849  0.00  0.00    +0.310 C 
ATOM      7  O   UNL     1      -0.004  -1.714   2.915  0.00  0.00    -0.252 OA
ATOM      8  N   UNL     1       0.640  -0.456   1.152  0.00  0.00    -0.281 N 
ATOM      9  H   UNL     1       1.559  -0.269   1.402  0.00  0.00    +0.152 HD
ENDROOT
BRANCH   2  10
ATOM     10  C   UNL     1       0.634  -0.536  -1.297  0.00  0.00    +0.023 A 
ATOM     11  C   UNL     1       1.951  -0.782  -1.502  0.00  0.00    +0.015 A 
ATOM     12  C   UNL     1       2.357  -1.281  -2.726  0.00  0.00    +0.028 A 
ATOM     13  C   UNL     1       1.425  -1.508  -3.685  0.00  0.00    +0.078 A 
ATOM     14  S   UNL     1      -0.081  -1.019  -2.860  0.00  0.00    -0.079 S 
ATOM     15 CL   UNL     1       1.640  -2.121  -5.295  0.00  0.00    -0.076 Cl
ENDBRANCH   2  10
BRANCH   5  16
ATOM     16  C   UNL     1      -2.593  -1.987   1.771  0.00  0.00    +0.154 C 
BRANCH  16  17
ATOM     17  C   UNL     1      -3.323  -1.115   2.761  0.00  0.00    -0.011 A 
ATOM     18  C   UNL     1      -3.065  -1.240   4.113  0.00  0.00    +0.009 A 
ATOM     19  C   UNL     1      -3.733  -0.441   5.021  0.00  0.00    +0.039 A 
ATOM     20  C   UNL     1      -4.662   0.485   4.577  0.00  0.00    +0.125 A 
ATOM     21  C   UNL     1      -4.920   0.610   3.223  0.00  0.00    +0.058 A 
ATOM     22  C   UNL     1      -4.246  -0.186   2.314  0.00  0.00    +0.048 A 
ATOM     23 CL   UNL     1      -4.564  -0.026   0.616  0.00  0.00    -0.083 Cl
ATOM     24  F   UNL     1      -5.316   1.266   5.465  0.00  0.00    -0.205 F 
ENDBRANCH  16  17
ENDBRANCH   5  16
TORSDOF 3
