REMARK  Name = ZINC27248950
REMARK  10 active torsions:
REMARK  status: ('A' for Active; 'I' for Inactive)
REMARK    1  A    between atoms: C_1  and  C_2
REMARK    2  A    between atoms: C_2  and  C_3
REMARK    3  A    between atoms: C_2  and  C_4
REMARK    4  A    between atoms: C_4  and  C_6
REMARK    5  A    between atoms: C_4  and  N_18
REMARK    6  A    between atoms: N_8  and  N_9
REMARK    7  A    between atoms: N_9  and  C_10
REMARK    8  A    between atoms: C_10  and  N_12
REMARK    9  A    between atoms: N_12  and  C_13
REMARK   10  A    between atoms: C_19  and  C_21
REMARK                            x       y       z     vdW  Elec       q    Type
REMARK                         _______ _______ _______ _____ _____    ______ ____
ROOT
ATOM      1  C   UNL     1       4.277   3.297   4.847  0.00  0.00    +0.163 C 
ENDROOT
BRANCH   1   2
ATOM      2  C   UNL     1       2.849   3.077   5.274  0.00  0.00    +0.250 C 
ATOM      3  O   UNL     1       2.461   3.508   6.339  0.00  0.00    -0.272 OA
ATOM      4  N   UNL     1       2.002   2.402   4.472  0.00  0.00    -0.234 N 
ATOM      5  H   UNL     1       2.329   2.083   3.471  0.00  0.00    +0.173 HD
BRANCH   4   6
ATOM      6  N   UNL     1       0.705   2.107   4.912  0.00  0.00    -0.246 N 
ATOM      7  H   UNL     1       0.378   2.425   5.913  0.00  0.00    +0.172 HD
BRANCH   6   8
ATOM      8  C   UNL     1      -0.141   1.431   4.110  0.00  0.00    +0.147 C 
ATOM      9  S   UNL     1      -1.726   1.070   4.648  0.00  0.00    -0.017 S 
BRANCH   8  10
ATOM     10  N   UNL     1       0.259   1.040   2.884  0.00  0.00    -0.323 N 
ATOM     11  H   UNL     1       1.277   1.272   2.538  0.00  0.00    +0.148 HD
BRANCH  10  12
ATOM     12  C   UNL     1      -0.661   0.307   2.012  0.00  0.00    +0.072 C 
ATOM     13  C   UNL     1       0.124  -0.551   0.998  0.00  0.00    +0.022 C 
ATOM     14  C   UNL     1      -0.654  -0.488  -0.328  0.00  0.00    +0.002 C 
ATOM     15  C   UNL     1      -1.885   0.406  -0.075  0.00  0.00    +0.002 C 
ATOM     16  C   UNL     1      -1.473   1.288   1.129  0.00  0.00    +0.022 C 
ENDBRANCH  10  12
ENDBRANCH   8  10
ENDBRANCH   6   8
ENDBRANCH   4   6
ENDBRANCH   1   2
BRANCH   1  17
ATOM     17  N   UNL     1       5.119   3.477   6.033  0.00  0.00    -0.300 N 
ATOM     18  C   UNL     1       6.435   3.191   5.975  0.00  0.00    +0.245 C 
ATOM     19  O   UNL     1       6.923   2.783   4.939  0.00  0.00    -0.270 OA
ATOM     20  H   UNL     1       4.677   3.846   6.970  0.00  0.00    +0.150 HD
BRANCH  18  21
ATOM     21  C   UNL     1       7.283   3.372   7.170  0.00  0.00    +0.037 A 
ATOM     22  C   UNL     1       6.726   3.846   8.360  0.00  0.00    +0.016 A 
ATOM     23  C   UNL     1       7.521   4.007   9.474  0.00  0.00    +0.039 A 
ATOM     24  C   UNL     1       8.874   3.712   9.412  0.00  0.00    +0.123 A 
ATOM     25  C   UNL     1       9.434   3.248   8.232  0.00  0.00    +0.039 A 
ATOM     26  C   UNL     1       8.647   3.077   7.113  0.00  0.00    +0.016 A 
ATOM     27  F   UNL     1       9.650   3.878  10.505  0.00  0.00    -0.205 F 
ENDBRANCH  18  21
ENDBRANCH   1  17
BRANCH   1  29
ATOM     28  C   UNL     1       4.005   5.780   4.800  0.00  0.00    +0.009 C 
ATOM     29  C   UNL     1       4.361   4.546   3.968  0.00  0.00    +0.012 C 
ATOM     30  C   UNL     1       5.783   4.691   3.422  0.00  0.00    +0.009 C 
ENDBRANCH   1  29
TORSDOF 8
