REMARK  Name = ZINC15746420
REMARK  5 active torsions:
REMARK  status: ('A' for Active; 'I' for Inactive)
REMARK    1  A    between atoms: C_4  and  O_26
REMARK    2  A    between atoms: C_5  and  C_7
REMARK    3  A    between atoms: N_8  and  N_9
REMARK    4  A    between atoms: C_14  and  C_17
REMARK    5  A    between atoms: C_17  and  C_18
REMARK                            x       y       z     vdW  Elec       q    Type
REMARK                         _______ _______ _______ _____ _____    ______ ____
ROOT
ATOM      1  N   UNL     1       2.419  -4.075  -0.046  0.00  0.00    -0.127 NA
ATOM      2  C   UNL     1       3.572  -4.711  -0.061  0.00  0.00    +0.183 C 
ATOM      3  N   UNL     1       4.841  -4.173  -0.065  0.00  0.00    -0.263 N 
ATOM      4  C   UNL     1       5.930  -4.923  -0.081  0.00  0.00    +0.232 C 
ATOM      5  O   UNL     1       7.043  -4.443  -0.084  0.00  0.00    -0.274 OA
ATOM      6  C   UNL     1       5.698  -6.426  -0.096  0.00  0.00    +0.144 C 
ATOM      7  S   UNL     1       3.858  -6.475  -0.075  0.00  0.00    -0.075 S 
ATOM      8  H   UNL     1       4.940  -3.208  -0.055  0.00  0.00    +0.157 HD
ENDROOT
BRANCH   1  10
ATOM      9  C   UNL     1       1.252  -2.155  -0.023  0.00  0.00    +0.146 C 
ATOM     10  N   UNL     1       2.395  -2.785  -0.038  0.00  0.00    -0.155 NA
BRANCH   9  15
ATOM     11  C   UNL     1      -0.017   1.375   0.010  0.00  0.00    +0.001 A 
ATOM     12  C   UNL     1       1.169   2.089   0.002  0.00  0.00    +0.004 A 
ATOM     13  C   UNL     1       2.384   1.429  -0.013  0.00  0.00    +0.046 A 
ATOM     14  C   UNL     1       2.422   0.045  -0.021  0.00  0.00    +0.125 A 
ATOM     15  C   UNL     1       1.224  -0.684  -0.014  0.00  0.00    +0.036 A 
ATOM     16  C   UNL     1       0.002  -0.004   0.002  0.00  0.00    +0.013 A 
BRANCH  14  17
ATOM     17  O   UNL     1       3.615  -0.604  -0.037  0.00  0.00    -0.506 OA
ATOM     18  H   UNL     1       3.970  -0.797   0.842  0.00  0.00    +0.292 HD
ENDBRANCH  14  17
ENDBRANCH   9  15
ENDBRANCH   1  10
BRANCH   6  19
ATOM     19  C   UNL     1       6.261  -7.061  -1.369  0.00  0.00    +0.060 C 
BRANCH  19  20
ATOM     20  C   UNL     1       6.121  -8.560  -1.287  0.00  0.00    -0.027 A 
ATOM     21  C   UNL     1       7.174  -9.328  -0.826  0.00  0.00    +0.006 A 
ATOM     22  C   UNL     1       7.046 -10.702  -0.750  0.00  0.00    +0.020 A 
ATOM     23  C   UNL     1       5.863 -11.309  -1.136  0.00  0.00    +0.042 A 
ATOM     24  C   UNL     1       4.810 -10.541  -1.597  0.00  0.00    +0.040 A 
ATOM     25  C   UNL     1       4.937  -9.165  -1.667  0.00  0.00    +0.046 A 
ATOM     26 CL   UNL     1       3.613  -8.199  -2.240  0.00  0.00    -0.083 Cl
ATOM     27 CL   UNL     1       5.703 -13.035  -1.041  0.00  0.00    -0.083 Cl
ENDBRANCH  19  20
ENDBRANCH   6  19
TORSDOF 5
