REMARK  Name = ZINC39267577
REMARK  4 active torsions:
REMARK  status: ('A' for Active; 'I' for Inactive)
REMARK    1  A    between atoms: C_3  and  N_18
REMARK    2  A    between atoms: C_6  and  C_7
REMARK    3  A    between atoms: N_9  and  C_10
REMARK    4  A    between atoms: C_21  and  N_26
REMARK                            x       y       z     vdW  Elec       q    Type
REMARK                         _______ _______ _______ _____ _____    ______ ____
ROOT
ATOM      1  C   UNL     1       0.054   1.104  -0.253  0.00  0.00    +0.015 A 
ATOM      2  C   UNL     1       1.162   1.898  -0.065  0.00  0.00    +0.024 A 
ATOM      3  C   UNL     1       2.438   1.349  -0.160  0.00  0.00    +0.032 A 
ATOM      4  C   UNL     1       2.597  -0.004  -0.445  0.00  0.00    +0.024 A 
ATOM      5  C   UNL     1       1.493  -0.804  -0.633  0.00  0.00    +0.015 A 
ATOM      6  C   UNL     1       0.210  -0.256  -0.538  0.00  0.00    +0.037 A 
ENDROOT
BRANCH   3   7
ATOM      7  N   UNL     1       3.557   2.155   0.030  0.00  0.00    -0.299 N 
ATOM      8  C   UNL     1       4.674   1.650   0.680  0.00  0.00    +0.130 A 
ATOM      9  C   UNL     1       5.840   2.404   0.768  0.00  0.00    +0.087 A 
ATOM     10  C   UNL     1       6.935   1.856   1.430  0.00  0.00    +0.128 A 
ATOM     11  N   UNL     1       6.831   0.637   1.955  0.00  0.00    -0.200 NA
ATOM     12  C   UNL     1       5.705  -0.051   1.853  0.00  0.00    +0.216 A 
ATOM     13  N   UNL     1       4.641   0.440   1.234  0.00  0.00    -0.199 NA
ATOM     14  N   UNL     1       5.635  -1.315   2.412  0.00  0.00    -0.327 N 
ATOM     15  H   UNL     1       3.556   3.070  -0.293  0.00  0.00    +0.154 HD
ATOM     16  H   UNL     1       6.405  -1.686   2.871  0.00  0.00    +0.145 HD
ATOM     17  H   UNL     1       4.816  -1.831   2.345  0.00  0.00    +0.145 HD
BRANCH  10  18
ATOM     18  N   UNL     1       8.118   2.570   1.541  0.00  0.00    -0.311 N 
ATOM     19  C   UNL     1       9.338   1.937   2.065  0.00  0.00    +0.134 C 
ATOM     20  C   UNL     1      10.485   2.212   1.085  0.00  0.00    +0.178 C 
ATOM     21  O   UNL     1      10.558   3.617   0.829  0.00  0.00    -0.377 OA
ATOM     22  C   UNL     1       9.392   4.159   0.203  0.00  0.00    +0.178 C 
ATOM     23  C   UNL     1       8.191   3.982   1.133  0.00  0.00    +0.134 C 
ENDBRANCH  10  18
ENDBRANCH   3   7
BRANCH   6  24
ATOM     24  C   UNL     1      -0.976  -1.110  -0.739  0.00  0.00    +0.244 C 
ATOM     25  O   UNL     1      -2.090  -0.632  -0.656  0.00  0.00    -0.270 OA
ATOM     26  N   UNL     1      -0.823  -2.421  -1.014  0.00  0.00    -0.308 N 
ATOM     27  H   UNL     1       0.066  -2.802  -1.080  0.00  0.00    +0.149 HD
BRANCH  26  28
ATOM     28  C   UNL     1      -2.001  -3.269  -1.213  0.00  0.00    +0.073 C 
ATOM     29  C   UNL     1      -2.463  -3.167  -2.668  0.00  0.00    +0.022 C 
ATOM     30  C   UNL     1      -3.415  -4.322  -2.983  0.00  0.00    +0.002 C 
ATOM     31  C   UNL     1      -4.784  -4.039  -2.360  0.00  0.00    +0.000 C 
ATOM     32  C   UNL     1      -4.719  -4.290  -0.853  0.00  0.00    +0.000 C 
ATOM     33  C   UNL     1      -3.964  -5.593  -0.584  0.00  0.00    +0.000 C 
ATOM     34  C   UNL     1      -2.643  -5.281   0.122  0.00  0.00    +0.002 C 
ATOM     35  C   UNL     1      -1.643  -4.721  -0.892  0.00  0.00    +0.022 C 
ENDBRANCH  26  28
ENDBRANCH   6  24
TORSDOF 4
