REMARK  Name = ZINC66784176
REMARK  5 active torsions:
REMARK  status: ('A' for Active; 'I' for Inactive)
REMARK    1  A    between atoms: C_4  and  C_7
REMARK    2  A    between atoms: C_7  and  C_8
REMARK    3  A    between atoms: N_10  and  N_11
REMARK    4  A    between atoms: C_12  and  C_14
REMARK    5  A    between atoms: C_16  and  C_20
REMARK                            x       y       z     vdW  Elec       q    Type
REMARK                         _______ _______ _______ _____ _____    ______ ____
ROOT
ATOM      1  N   UNL     1       3.721  -4.016  -3.438  0.00  0.00    -0.229 N 
ATOM      2  C   UNL     1       4.322  -4.676  -4.447  0.00  0.00    +0.279 C 
ATOM      3  O   UNL     1       4.761  -4.059  -5.400  0.00  0.00    -0.267 OA
ATOM      4  H   UNL     1       3.371  -4.508  -2.678  0.00  0.00    +0.173 HD
ENDROOT
BRANCH   2   5
ATOM      5  C   UNL     1       4.448  -6.140  -4.397  0.00  0.00    +0.136 A 
ATOM      6  C   UNL     1       5.041  -6.957  -5.347  0.00  0.00    +0.071 A 
ATOM      7  C   UNL     1       4.910  -8.256  -4.849  0.00  0.00    +0.081 A 
ATOM      8  N   UNL     1       4.289  -8.186  -3.700  0.00  0.00    -0.177 NA
ATOM      9  N   UNL     1       4.010  -6.968  -3.402  0.00  0.00    -0.271 N 
ATOM     10  H   UNL     1       3.554  -6.680  -2.595  0.00  0.00    +0.189 HD
ATOM     11 BR   UNL     1       5.853  -6.426  -6.970  0.00  0.00    -0.046 Br
BRANCH   7  12
ATOM     12  C   UNL     1       5.399  -9.515  -5.518  0.00  0.00    +0.041 C 
ATOM     13  C   UNL     1       4.977 -10.851  -4.903  0.00  0.00    +0.010 C 
ATOM     14  C   UNL     1       6.421 -10.366  -4.763  0.00  0.00    +0.010 C 
ENDBRANCH   7  12
ENDBRANCH   2   5
BRANCH   1  17
ATOM     15  C   UNL     1       2.999  -1.962  -2.475  0.00  0.00    +0.229 C 
ATOM     16  O   UNL     1       2.561  -2.576  -1.526  0.00  0.00    -0.274 OA
ATOM     17  N   UNL     1       3.601  -2.621  -3.485  0.00  0.00    -0.234 N 
ATOM     18  H   UNL     1       3.951  -2.130  -4.245  0.00  0.00    +0.173 HD
BRANCH  15  19
ATOM     19  C   UNL     1       2.870  -0.461  -2.526  0.00  0.00    +0.101 C 
BRANCH  19  23
ATOM     20  C   UNL     1      -0.019   1.526   0.010  0.00  0.00    +0.000 C 
ATOM     21  C   UNL     1       1.417   2.055  -0.000  0.00  0.00    +0.000 C 
ATOM     22  C   UNL     1       2.133   1.562  -1.259  0.00  0.00    +0.004 C 
ATOM     23  C   UNL     1       2.154   0.032  -1.268  0.00  0.00    -0.002 C 
ATOM     24  C   UNL     1       0.718  -0.497  -1.257  0.00  0.00    +0.004 C 
ATOM     25  C   UNL     1       0.002  -0.004   0.002  0.00  0.00    +0.000 C 
ENDBRANCH  19  23
ENDBRANCH  15  19
ENDBRANCH   1  17
TORSDOF 5
