REMARK  Name = ZINC07333359
REMARK  4 active torsions:
REMARK  status: ('A' for Active; 'I' for Inactive)
REMARK    1  A    between atoms: C_3  and  C_9
REMARK    2  A    between atoms: C_10  and  C_11
REMARK    3  A    between atoms: C_11  and  C_13
REMARK    4  A    between atoms: C_16  and  C_18
REMARK                            x       y       z     vdW  Elec       q    Type
REMARK                         _______ _______ _______ _____ _____    ______ ____
ROOT
ATOM      1  C   UNL     1      -0.018   1.465   0.010  0.00  0.00    +0.014 C 
ATOM      2  C   UNL     1       1.143   2.157   0.003  0.00  0.00    +0.052 C 
ENDROOT
BRANCH   1   5
ATOM      3  C   UNL     1       1.232  -2.069  -0.022  0.00  0.00    +0.016 A 
ATOM      4  C   UNL     1       1.221  -0.691  -0.019  0.00  0.00    +0.012 A 
ATOM      5  C   UNL     1       0.002  -0.004   0.002  0.00  0.00    +0.010 A 
ATOM      6  C   UNL     1      -1.200  -0.726   0.010  0.00  0.00    +0.132 A 
ATOM      7  C   UNL     1      -1.171  -2.106   0.001  0.00  0.00    +0.054 A 
ATOM      8  C   UNL     1       0.040  -2.776  -0.014  0.00  0.00    +0.021 A 
ATOM      9 BR   UNL     1       0.069  -4.667  -0.025  0.00  0.00    -0.050 Br
ATOM     10  F   UNL     1      -2.383  -0.072   0.024  0.00  0.00    -0.205 F 
ENDBRANCH   1   5
BRANCH   2  11
ATOM     11  C   UNL     1       1.124   3.619   0.011  0.00  0.00    +0.193 C 
ATOM     12  O   UNL     1       0.060   4.213   0.024  0.00  0.00    -0.287 OA
BRANCH  11  13
ATOM     13  C   UNL     1       2.389   4.372   0.003  0.00  0.00    +0.060 A 
ATOM     14  C   UNL     1       2.585   5.747   0.003  0.00  0.00    +0.020 A 
ATOM     15  C   UNL     1       3.863   6.226  -0.002  0.00  0.00    +0.023 A 
ATOM     16  C   UNL     1       4.916   5.321  -0.018  0.00  0.00    +0.101 A 
ATOM     17  S   UNL     1       4.063   3.753  -0.017  0.00  0.00    -0.078 S 
BRANCH  16  18
ATOM     18  C   UNL     1       6.361   5.586  -0.031  0.00  0.00    +0.393 C 
ATOM     19  O   UNL     1       6.769   6.731  -0.030  0.00  0.00    -0.240 OA
ATOM     20  O   UNL     1       7.234   4.559  -0.045  0.00  0.00    -0.240 OA
ENDBRANCH  16  18
ENDBRANCH  11  13
ENDBRANCH   2  11
TORSDOF 4
