REMARK  Name = ZINC13123395
REMARK  6 active torsions:
REMARK  status: ('A' for Active; 'I' for Inactive)
REMARK    1  A    between atoms: C_3  and  N_8
REMARK    2  A    between atoms: C_5  and  O_7
REMARK    3  A    between atoms: N_8  and  C_9
REMARK    4  A    between atoms: C_9  and  N_11
REMARK    5  A    between atoms: N_12  and  C_13
REMARK    6  A    between atoms: C_22  and  O_23
REMARK                            x       y       z     vdW  Elec       q    Type
REMARK                         _______ _______ _______ _____ _____    ______ ____
ROOT
ATOM      1  N   UNL     1       4.718   4.159  -0.225  0.00  0.00    -0.217 N 
ATOM      2  N   UNL     1       5.843   3.528  -0.239  0.00  0.00    -0.175 NA
ATOM      3  H   UNL     1       4.704   5.127  -0.293  0.00  0.00    +0.176 HD
ENDROOT
BRANCH   2   4
ATOM      4  C   UNL     1       6.991   4.209  -0.348  0.00  0.00    +0.150 A 
ATOM      5  C   UNL     1       8.356   3.646  -0.385  0.00  0.00    +0.031 A 
ATOM      6  C   UNL     1       8.865   2.352  -0.326  0.00  0.00    +0.027 A 
ATOM      7  C   UNL     1      10.228   2.150  -0.387  0.00  0.00    +0.019 A 
ATOM      8  C   UNL     1      11.089   3.232  -0.506  0.00  0.00    +0.017 A 
ATOM      9  C   UNL     1      10.596   4.518  -0.566  0.00  0.00    +0.027 A 
ATOM     10  C   UNL     1       9.225   4.741  -0.506  0.00  0.00    +0.051 A 
ATOM     11  N   UNL     1       8.458   5.894  -0.541  0.00  0.00    -0.324 N 
ATOM     12  H   UNL     1       8.815   6.792  -0.621  0.00  0.00    +0.169 HD
ATOM     13  C   UNL     1       7.139   5.593  -0.455  0.00  0.00    +0.219 A 
ATOM     14 BR   UNL     1      10.926   0.395  -0.307  0.00  0.00    -0.050 Br
BRANCH  13  15
ATOM     15  O   UNL     1       6.130   6.489  -0.466  0.00  0.00    -0.492 OA
ATOM     16  H   UNL     1       5.881   6.813   0.410  0.00  0.00    +0.294 HD
ENDBRANCH  13  15
ENDBRANCH   2   4
BRANCH   1  17
ATOM     17  C   UNL     1       3.563   3.475  -0.116  0.00  0.00    +0.154 C 
ATOM     18  S   UNL     1       2.070   4.312  -0.098  0.00  0.00    -0.017 S 
BRANCH  17  19
ATOM     19  N   UNL     1       3.582   2.130  -0.021  0.00  0.00    -0.296 N 
ATOM     20  H   UNL     1       4.429   1.661   0.049  0.00  0.00    +0.154 HD
BRANCH  19  23
ATOM     21  C   UNL     1       0.180   1.052  -0.904  0.00  0.00    +0.005 A 
ATOM     22  C   UNL     1       1.365   1.763  -0.901  0.00  0.00    +0.023 A 
ATOM     23  C   UNL     1       2.384   1.412  -0.024  0.00  0.00    +0.036 A 
ATOM     24  C   UNL     1       2.209   0.346   0.848  0.00  0.00    +0.068 A 
ATOM     25  C   UNL     1       1.020  -0.364   0.841  0.00  0.00    +0.119 A 
ATOM     26  C   UNL     1       0.005  -0.009  -0.037  0.00  0.00    +0.045 A 
BRANCH  25  27
ATOM     27  O   UNL     1       0.846  -1.409   1.694  0.00  0.00    -0.507 OA
ATOM     28  H   UNL     1       0.464  -1.161   2.547  0.00  0.00    +0.292 HD
ENDBRANCH  25  27
ENDBRANCH  19  23
ENDBRANCH  17  19
ENDBRANCH   1  17
TORSDOF 6
