REMARK  Name = ZINC24773963
REMARK  10 active torsions:
REMARK  status: ('A' for Active; 'I' for Inactive)
REMARK    1  A    between atoms: C_1  and  C_2
REMARK    2  A    between atoms: C_3  and  C_28
REMARK    3  A    between atoms: C_7  and  N_27
REMARK    4  A    between atoms: C_9  and  S_11
REMARK    5  A    between atoms: S_11  and  C_12
REMARK    6  A    between atoms: C_12  and  C_14
REMARK    7  A    between atoms: C_12  and  C_15
REMARK    8  A    between atoms: N_17  and  C_18
REMARK    9  A    between atoms: C_21  and  C_24
REMARK   10  A    between atoms: C_24  and  C_26
REMARK                            x       y       z     vdW  Elec       q    Type
REMARK                         _______ _______ _______ _____ _____    ______ ____
ROOT
ATOM      1  S   UNL     1       4.477  -5.048   0.845  0.00  0.00    -0.073 S 
ENDROOT
BRANCH   1  10
ATOM      2  C   UNL     1       2.118 -11.068  -1.653  0.00  0.00    +0.045 C 
ATOM      3  C   UNL     1       3.313 -10.181  -1.891  0.00  0.00    -0.028 A 
ATOM      4  C   UNL     1       4.244 -10.525  -2.793  0.00  0.00    -0.008 A 
ATOM      5  S   UNL     1       5.422  -9.191  -2.706  0.00  0.00    -0.073 S 
ATOM      6  C   UNL     1       4.633  -8.206  -1.460  0.00  0.00    +0.115 A 
ATOM      7  C   UNL     1       3.471  -8.944  -1.145  0.00  0.00    +0.050 A 
ATOM      8  C   UNL     1       2.633  -8.371  -0.149  0.00  0.00    +0.129 A 
ATOM      9  N   UNL     1       2.978  -7.221   0.405  0.00  0.00    -0.207 NA
ATOM     10  C   UNL     1       4.087  -6.577   0.061  0.00  0.00    +0.192 A 
ATOM     11  N   UNL     1       4.904  -7.061  -0.865  0.00  0.00    -0.214 NA
ATOM     12  C   UNL     1       4.284 -11.749  -3.671  0.00  0.00    +0.052 C 
BRANCH   8  13
ATOM     13  N   UNL     1       1.469  -9.011   0.237  0.00  0.00    -0.343 N 
ATOM     14  H   UNL     1       0.825  -8.563   1.008  0.00  0.00    +0.144 HD
ATOM     15  H   UNL     1       1.188  -9.968  -0.227  0.00  0.00    +0.144 HD
ENDBRANCH   8  13
ENDBRANCH   1  10
BRANCH   1  16
ATOM     16  C   UNL     1       3.059  -4.896   1.960  0.00  0.00    +0.137 C 
ATOM     17  C   UNL     1       3.099  -6.025   2.993  0.00  0.00    +0.029 C 
BRANCH  16  18
ATOM     18  C   UNL     1       3.117  -3.567   2.668  0.00  0.00    +0.230 C 
ATOM     19  O   UNL     1       4.166  -2.961   2.735  0.00  0.00    -0.274 OA
ATOM     20  N   UNL     1       2.004  -3.051   3.225  0.00  0.00    -0.285 N 
ATOM     21  H   UNL     1       1.059  -3.613   3.187  0.00  0.00    +0.155 HD
BRANCH  20  22
ATOM     22  C   UNL     1       2.050  -1.807   3.850  0.00  0.00    +0.033 A 
ATOM     23  C   UNL     1       2.858  -0.799   3.331  0.00  0.00    +0.024 A 
ATOM     24  C   UNL     1       2.906   0.427   3.942  0.00  0.00    +0.013 A 
ATOM     25  C   UNL     1       2.141   0.665   5.091  0.00  0.00    +0.017 A 
ATOM     26  C   UNL     1       1.329  -0.352   5.610  0.00  0.00    +0.013 A 
ATOM     27  C   UNL     1       1.287  -1.575   4.992  0.00  0.00    +0.024 A 
BRANCH  25  28
ATOM     28  C   UNL     1       2.190   1.976   5.750  0.00  0.00    +0.160 C 
ATOM     29  O   UNL     1       2.825   2.881   5.253  0.00  0.00    -0.292 OA
ATOM     30  C   UNL     1       1.450   2.197   7.045  0.00  0.00    +0.091 C 
ENDBRANCH  25  28
ENDBRANCH  20  22
ENDBRANCH  16  18
ENDBRANCH   1  16
TORSDOF 6
