REMARK  Name = ZINC35337324
REMARK  6 active torsions:
REMARK  status: ('A' for Active; 'I' for Inactive)
REMARK    1  A    between atoms: C_1  and  C_2
REMARK    2  A    between atoms: C_4  and  C_12
REMARK    3  A    between atoms: C_22  and  N_28
REMARK    4  A    between atoms: O_24  and  C_25
REMARK    5  A    between atoms: C_25  and  C_27
REMARK    6  A    between atoms: C_32  and  C_34
REMARK                            x       y       z     vdW  Elec       q    Type
REMARK                         _______ _______ _______ _____ _____    ______ ____
ROOT
ATOM      1  C   UNL     1       0.363  -2.323  -2.228  0.00  0.00    +0.318 C 
ATOM      2  N   UNL     1       0.720  -1.886  -3.588  0.00  0.00    -0.155 N 
ATOM      3  N   UNL     1      -0.397  -2.187  -4.382  0.00  0.00    -0.105 NA
ATOM      4  C   UNL     1      -1.347  -2.747  -3.621  0.00  0.00    +0.232 C 
ATOM      5  O   UNL     1      -0.962  -2.857  -2.343  0.00  0.00    -0.449 OA
ATOM      6  C   UNL     1      -2.608  -3.173  -4.110  0.00  0.00    +0.081 C 
ATOM      7  C   UNL     1      -3.427  -4.000  -3.327  0.00  0.00    +0.032 C 
ATOM      8  C   UNL     1      -4.649  -4.409  -3.808  0.00  0.00    +0.021 C 
ATOM      9  C   UNL     1      -5.081  -4.010  -5.067  0.00  0.00    +0.051 C 
ATOM     10  C   UNL     1      -4.295  -3.199  -5.854  0.00  0.00    +0.170 C 
ATOM     11  C   UNL     1      -3.053  -2.764  -5.387  0.00  0.00    +0.174 C 
ATOM     12  O   UNL     1      -2.287  -1.969  -6.147  0.00  0.00    -0.423 OA
ATOM     13 BR   UNL     1      -5.749  -5.524  -2.749  0.00  0.00    -0.050 Br
ATOM     14  C   UNL     1       1.874  -1.316  -3.986  0.00  0.00    +0.233 C 
ATOM     15  O   UNL     1       2.735  -1.056  -3.171  0.00  0.00    -0.274 OA
ATOM     16  C   UNL     1       2.097  -1.002  -5.443  0.00  0.00    +0.111 C 
ENDROOT
BRANCH   1  20
ATOM     17  C   UNL     1       0.466   2.606  -1.395  0.00  0.00    +0.063 C 
ATOM     18  C   UNL     1       0.424   1.199  -0.856  0.00  0.00    +0.014 A 
ATOM     19  C   UNL     1       0.414   0.131  -1.751  0.00  0.00    +0.030 A 
ATOM     20  C   UNL     1       0.375  -1.151  -1.281  0.00  0.00    +0.024 A 
ATOM     21  C   UNL     1       0.347  -1.347   0.113  0.00  0.00    +0.007 A 
ATOM     22  C   UNL     1       0.307  -2.635   0.670  0.00  0.00    +0.010 A 
ATOM     23  C   UNL     1       0.281  -2.783   2.023  0.00  0.00    +0.001 A 
ATOM     24  C   UNL     1       0.293  -1.672   2.864  0.00  0.00    +0.002 A 
ATOM     25  C   UNL     1       0.331  -0.409   2.358  0.00  0.00    +0.026 A 
ATOM     26  C   UNL     1       0.359  -0.215   0.966  0.00  0.00    +0.047 A 
ATOM     27  N   UNL     1       0.402   1.013   0.441  0.00  0.00    -0.358 N 
ATOM     28  H   UNL     1       0.415   1.782   1.032  0.00  0.00    +0.166 HD
ENDBRANCH   1  20
BRANCH  12  29
ATOM     29  C   UNL     1      -1.828  -1.007  -5.553  0.00  0.00    +0.309 C 
ATOM     30  O   UNL     1      -2.183  -0.770  -4.415  0.00  0.00    -0.251 OA
ATOM     31  C   UNL     1      -0.821  -0.114  -6.230  0.00  0.00    +0.136 C 
ENDBRANCH  12  29
BRANCH  10  32
ATOM     32  N   UNL     1      -4.769  -2.783  -7.193  0.00  0.00    +0.060 N 
ATOM     33  O   UNL     1      -5.846  -3.155  -7.595  0.00  0.00    -0.126 OA
ATOM     34  O   UNL     1      -4.079  -2.070  -7.884  0.00  0.00    -0.126 OA
ENDBRANCH  10  32
TORSDOF 3
