REMARK  Name = ZINC01565494
REMARK  8 active torsions:
REMARK  status: ('A' for Active; 'I' for Inactive)
REMARK    1  A    between atoms: C_2  and  C_3
REMARK    2  A    between atoms: C_7  and  O_9
REMARK    3  A    between atoms: O_9  and  C_10
REMARK    4  A    between atoms: C_10  and  C_11
REMARK    5  A    between atoms: C_11  and  C_12
REMARK    6  A    between atoms: C_12  and  O_13
REMARK    7  A    between atoms: O_13  and  C_14
REMARK    8  A    between atoms: C_18  and  C_20
REMARK                            x       y       z     vdW  Elec       q    Type
REMARK                         _______ _______ _______ _____ _____    ______ ____
ROOT
ATOM      1  O   UNL     1       3.115   9.454   0.017  0.00  0.00    -0.492 OA
ENDROOT
BRANCH   1   6
ATOM      2  C   UNL     1       4.606  12.782   0.018  0.00  0.00    +0.016 A 
ATOM      3  C   UNL     1       5.962  12.453   0.002  0.00  0.00    +0.011 A 
ATOM      4  C   UNL     1       6.349  11.129  -0.008  0.00  0.00    +0.004 A 
ATOM      5  C   UNL     1       5.398  10.125  -0.003  0.00  0.00    +0.045 A 
ATOM      6  C   UNL     1       4.047  10.444   0.013  0.00  0.00    +0.121 A 
ATOM      7  C   UNL     1       3.648  11.771   0.017  0.00  0.00    +0.056 A 
BRANCH   2   9
ATOM      8  H   UNL     1       2.547  15.409   0.050  0.00  0.00    +0.157 HD
ATOM      9  C   UNL     1       4.187  14.203   0.028  0.00  0.00    +0.094 C 
ATOM     10  N   UNL     1       5.136  15.201   0.022  0.00  0.00    -0.345 N 
ATOM     11  H   UNL     1       6.079  14.974   0.011  0.00  0.00    +0.144 HD
ATOM     12  H   UNL     1       4.862  16.131   0.028  0.00  0.00    +0.144 HD
ATOM     13  N   UNL     1       2.886  14.447   0.043  0.00  0.00    -0.387 N 
ATOM     14  H   UNL     1       2.217  13.667   0.046  0.00  0.00    +0.157 HD
ENDBRANCH   2   9
ENDBRANCH   1   6
BRANCH   1  15
ATOM     15  C   UNL     1       3.598   8.109   0.006  0.00  0.00    +0.232 C 
BRANCH  15  16
ATOM     16  C   UNL     1       2.412   7.142   0.013  0.00  0.00    +0.082 C 
BRANCH  16  17
ATOM     17  C   UNL     1       2.929   5.702   0.001  0.00  0.00    +0.232 C 
BRANCH  17  18
ATOM     18  O   UNL     1       1.821   4.799   0.008  0.00  0.00    -0.492 OA
BRANCH  18  19
ATOM     19  C   UNL     1       2.109   3.470  -0.002  0.00  0.00    +0.121 A 
ATOM     20  C   UNL     1       3.429   3.045  -0.017  0.00  0.00    +0.045 A 
ATOM     21  C   UNL     1       3.719   1.695  -0.027  0.00  0.00    +0.004 A 
ATOM     22  C   UNL     1       2.693   0.767  -0.022  0.00  0.00    +0.012 A 
ATOM     23  C   UNL     1       1.377   1.188  -0.012  0.00  0.00    +0.058 A 
ATOM     24  C   UNL     1       1.082   2.538   0.004  0.00  0.00    +0.058 A 
BRANCH  23  25
ATOM     25  C   UNL     1       0.262   0.174  -0.014  0.00  0.00    +0.418 C 
ATOM     26  F   UNL     1       0.804  -1.116  -0.025  0.00  0.00    -0.166 F 
ATOM     27  F   UNL     1      -0.521   0.340   1.134  0.00  0.00    -0.166 F 
ATOM     28  F   UNL     1      -0.532   0.356  -1.151  0.00  0.00    -0.166 F 
ENDBRANCH  23  25
ENDBRANCH  18  19
ENDBRANCH  17  18
ENDBRANCH  16  17
ENDBRANCH  15  16
ENDBRANCH   1  15
TORSDOF 8
