REMARK  Name = ZINC35991721
REMARK  14 active torsions:
REMARK  status: ('A' for Active; 'I' for Inactive)
REMARK    1  A    between atoms: C_1  and  C_2
REMARK    2  A    between atoms: C_2  and  N_3
REMARK    3  A    between atoms: C_4  and  C_26
REMARK    4  A    between atoms: C_5  and  C_21
REMARK    5  A    between atoms: C_6  and  C_11
REMARK    6  A    between atoms: C_16  and  C_17
REMARK    7  A    between atoms: C_21  and  O_23
REMARK    8  A    between atoms: O_23  and  C_24
REMARK    9  A    between atoms: C_24  and  C_25
REMARK   10  A    between atoms: C_26  and  N_27
REMARK   11  A    between atoms: C_31  and  C_34
REMARK   12  A    between atoms: C_34  and  O_36
REMARK   13  A    between atoms: O_36  and  C_37
REMARK   14  A    between atoms: C_37  and  C_38
REMARK                            x       y       z     vdW  Elec       q    Type
REMARK                         _______ _______ _______ _____ _____    ______ ____
ROOT
ATOM      1  N   UNL     1       0.846  -0.275  -1.254  0.00  0.00    -0.258 N 
ATOM      2  C   UNL     1       0.131  -0.680  -2.345  0.00  0.00    +0.041 C 
ATOM      3  C   UNL     1       0.749  -1.155  -3.447  0.00  0.00    +0.080 C 
ATOM      4  C   UNL     1       2.263  -1.223  -3.433  0.00  0.00    +0.144 C 
ATOM      5  N   UNL     1       2.939  -0.762  -2.209  0.00  0.00    -0.288 N 
ATOM      6  C   UNL     1       2.183  -0.309  -1.190  0.00  0.00    +0.307 C 
ATOM      7  O   UNL     1       2.733   0.078  -0.177  0.00  0.00    -0.252 OA
ATOM      8  H   UNL     1       3.907  -0.780  -2.140  0.00  0.00    +0.151 HD
ENDROOT
BRANCH   4   9
ATOM      9  C   UNL     1       2.775  -0.399  -4.585  0.00  0.00    -0.011 A 
ATOM     10  C   UNL     1       2.757   0.982  -4.510  0.00  0.00    +0.006 A 
ATOM     11  C   UNL     1       3.227   1.738  -5.567  0.00  0.00    +0.000 A 
ATOM     12  C   UNL     1       3.716   1.114  -6.700  0.00  0.00    +0.001 A 
ATOM     13  C   UNL     1       3.736  -0.266  -6.775  0.00  0.00    +0.013 A 
ATOM     14  C   UNL     1       3.269  -1.022  -5.716  0.00  0.00    +0.060 A 
BRANCH  14  15
ATOM     15  C   UNL     1       3.295  -2.527  -5.795  0.00  0.00    +0.418 C 
ATOM     16  F   UNL     1       3.846  -2.920  -7.020  0.00  0.00    -0.166 F 
ATOM     17  F   UNL     1       4.073  -3.036  -4.750  0.00  0.00    -0.166 F 
ATOM     18  F   UNL     1       1.991  -3.022  -5.690  0.00  0.00    -0.166 F 
ENDBRANCH  14  15
ENDBRANCH   4   9
BRANCH   1  20
ATOM     19  C   UNL     1      -0.087   1.740  -0.231  0.00  0.00    +0.025 C 
ATOM     20  C   UNL     1       0.110   0.230  -0.093  0.00  0.00    +0.111 C 
ENDBRANCH   1  20
BRANCH   3  21
ATOM     21  C   UNL     1       0.009  -1.576  -4.577  0.00  0.00    +0.339 C 
ATOM     22  O   UNL     1      -0.254  -2.755  -4.728  0.00  0.00    -0.245 OA
BRANCH  21  23
ATOM     23  O   UNL     1      -0.407  -0.670  -5.487  0.00  0.00    -0.462 OA
BRANCH  23  24
ATOM     24  C   UNL     1      -1.244  -1.148  -6.542  0.00  0.00    +0.229 C 
ATOM     25  C   UNL     1      -1.518  -0.012  -7.529  0.00  0.00    +0.048 C 
ENDBRANCH  23  24
ENDBRANCH  21  23
ENDBRANCH   3  21
BRANCH   2  26
ATOM     26  C   UNL     1      -1.374  -0.596  -2.317  0.00  0.00    +0.136 C 
BRANCH  26  27
ATOM     27  N   UNL     1      -1.897  -1.511  -1.293  0.00  0.00    -0.296 NA
ATOM     28  C   UNL     1      -1.626  -2.910  -1.650  0.00  0.00    +0.085 C 
ATOM     29  C   UNL     1      -2.052  -3.823  -0.498  0.00  0.00    +0.016 C 
ATOM     30  C   UNL     1      -3.546  -3.626  -0.223  0.00  0.00    +0.017 C 
ATOM     31  C   UNL     1      -3.808  -2.152   0.099  0.00  0.00    +0.112 C 
ATOM     32  C   UNL     1      -3.331  -1.288  -1.071  0.00  0.00    +0.099 C 
BRANCH  31  33
ATOM     33  C   UNL     1      -5.284  -1.939   0.314  0.00  0.00    +0.311 C 
ATOM     34  O   UNL     1      -5.893  -1.171  -0.393  0.00  0.00    -0.250 OA
BRANCH  33  35
ATOM     35  O   UNL     1      -5.923  -2.602   1.290  0.00  0.00    -0.465 OA
BRANCH  35  36
ATOM     36  C   UNL     1      -7.322  -2.352   1.438  0.00  0.00    +0.229 C 
ATOM     37  C   UNL     1      -7.872  -3.191   2.593  0.00  0.00    +0.048 C 
ENDBRANCH  35  36
ENDBRANCH  33  35
ENDBRANCH  31  33
ENDBRANCH  26  27
ENDBRANCH   2  26
TORSDOF 11
