REMARK  Name = ZINC03880314
REMARK  5 active torsions:
REMARK  status: ('A' for Active; 'I' for Inactive)
REMARK    1  A    between atoms: C_1  and  C_2
REMARK    2  A    between atoms: C_2  and  N_13
REMARK    3  A    between atoms: N_9  and  C_12
REMARK    4  A    between atoms: N_13  and  C_14
REMARK    5  A    between atoms: C_19  and  N_20
REMARK                            x       y       z     vdW  Elec       q    Type
REMARK                         _______ _______ _______ _____ _____    ______ ____
ROOT
ATOM      1  C   UNL     1      -0.401   1.685  -0.205  0.00  0.00    +0.061 C 
ATOM      2  C   UNL     1      -0.084   0.220  -0.050  0.00  0.00    +0.022 C 
ATOM      3  C   UNL     1       0.235  -0.290   1.196  0.00  0.00    +0.116 C 
ATOM      4  C   UNL     1       0.147   0.538   2.411  0.00  0.00    +0.258 C 
ATOM      5  O   UNL     1      -0.209   1.700   2.352  0.00  0.00    -0.270 OA
ATOM      6  N   UNL     1       0.473  -0.027   3.592  0.00  0.00    -0.235 N 
ATOM      7  C   UNL     1       0.867  -1.305   3.673  0.00  0.00    +0.315 C 
ATOM      8  O   UNL     1       1.146  -1.754   4.767  0.00  0.00    -0.252 OA
ATOM      9  N   UNL     1       0.969  -2.115   2.610  0.00  0.00    -0.225 N 
ATOM     10  C   UNL     1       0.670  -1.688   1.366  0.00  0.00    +0.260 C 
ATOM     11  O   UNL     1       0.762  -2.434   0.409  0.00  0.00    -0.269 OA
ATOM     12  C   UNL     1       1.409  -3.499   2.804  0.00  0.00    +0.143 C 
ATOM     13  H   UNL     1       0.421   0.505   4.402  0.00  0.00    +0.159 HD
ENDROOT
BRANCH   2  14
ATOM     14  N   UNL     1      -0.110  -0.593  -1.125  0.00  0.00    -0.316 N 
ATOM     15  H   UNL     1      -0.724  -1.344  -1.150  0.00  0.00    +0.152 HD
BRANCH  14  16
ATOM     16  C   UNL     1       0.747  -0.354  -2.205  0.00  0.00    +0.052 A 
ATOM     17  C   UNL     1       1.718   0.633  -2.117  0.00  0.00    +0.025 A 
ATOM     18  C   UNL     1       2.564   0.867  -3.184  0.00  0.00    +0.002 A 
ATOM     19  C   UNL     1       2.446   0.120  -4.342  0.00  0.00    +0.002 A 
ATOM     20  C   UNL     1       1.482  -0.865  -4.440  0.00  0.00    +0.024 A 
ATOM     21  C   UNL     1       0.632  -1.110  -3.371  0.00  0.00    +0.046 A 
BRANCH  21  22
ATOM     22  N   UNL     1      -0.342  -2.110  -3.465  0.00  0.00    -0.357 N 
ATOM     23  H   UNL     1      -0.938  -2.279  -2.719  0.00  0.00    +0.142 HD
ATOM     24  H   UNL     1      -0.421  -2.635  -4.277  0.00  0.00    +0.142 HD
ENDBRANCH  21  22
ENDBRANCH  14  16
ENDBRANCH   2  14
TORSDOF 3
