REMARK  Name = ZINC13640376
REMARK  9 active torsions:
REMARK  status: ('A' for Active; 'I' for Inactive)
REMARK    1  A    between atoms: C_1  and  C_2
REMARK    2  A    between atoms: C_2  and  C_3
REMARK    3  A    between atoms: C_3  and  C_5
REMARK    4  A    between atoms: C_3  and  N_6
REMARK    5  A    between atoms: N_6  and  S_7
REMARK    6  A    between atoms: S_7  and  C_10
REMARK    7  A    between atoms: C_23  and  C_26
REMARK    8  A    between atoms: C_29  and  O_33
REMARK    9  A    between atoms: C_31  and  O_32
REMARK                            x       y       z     vdW  Elec       q    Type
REMARK                         _______ _______ _______ _____ _____    ______ ____
ROOT
ATOM      1  C   UNL     1       1.177   1.780   0.000  0.00  0.00    +0.106 A 
ATOM      2  C   UNL     1       1.162   3.163   0.008  0.00  0.00    +0.030 A 
ATOM      3  C   UNL     1      -0.039   3.843   0.031  0.00  0.00    +0.025 A 
ATOM      4  C   UNL     1      -1.240   3.144   0.046  0.00  0.00    +0.031 A 
ATOM      5  C   UNL     1      -1.217   1.745   0.017  0.00  0.00    -0.018 A 
ATOM      6  C   UNL     1      -0.013   1.076   0.008  0.00  0.00    +0.034 A 
ATOM      7  C   UNL     1      -2.517   1.042  -0.019  0.00  0.00    +0.049 C 
ATOM      8  C   UNL     1      -2.684  -0.334   0.513  0.00  0.00    -0.023 C 
ATOM      9  C   UNL     1      -3.923  -0.464   0.971  0.00  0.00    -0.030 C 
ATOM     10  C   UNL     1      -4.683   0.853   0.806  0.00  0.00    +0.033 C 
ATOM     11  C   UNL     1      -3.530   1.859   0.838  0.00  0.00    +0.029 C 
ATOM     12  C   UNL     1      -3.749   3.156   0.079  0.00  0.00    +0.108 C 
ATOM     13  N   UNL     1      -2.445   3.855   0.105  0.00  0.00    -0.336 N 
ATOM     14  H   UNL     1      -2.425   4.823   0.153  0.00  0.00    +0.147 HD
ENDROOT
BRANCH  12  15
ATOM     15  C   UNL     1      -4.165   2.864  -1.340  0.00  0.00    +0.015 A 
ATOM     16  C   UNL     1      -3.218   2.836  -2.346  0.00  0.00    +0.012 A 
ATOM     17  C   UNL     1      -3.596   2.563  -3.646  0.00  0.00    +0.046 A 
ATOM     18  C   UNL     1      -4.931   2.329  -3.948  0.00  0.00    +0.120 A 
ATOM     19  C   UNL     1      -5.883   2.362  -2.942  0.00  0.00    +0.091 A 
ATOM     20  C   UNL     1      -5.501   2.630  -1.636  0.00  0.00    +0.125 A 
BRANCH  20  21
ATOM     21  O   UNL     1      -6.432   2.663  -0.647  0.00  0.00    -0.506 OA
ATOM     22  H   UNL     1      -6.822   3.536  -0.503  0.00  0.00    +0.292 HD
ENDBRANCH  20  21
BRANCH  18  23
ATOM     23  O   UNL     1      -5.302   2.066  -5.228  0.00  0.00    -0.507 OA
ATOM     24  H   UNL     1      -5.530   2.853  -5.741  0.00  0.00    +0.292 HD
ENDBRANCH  18  23
ENDBRANCH  12  15
BRANCH   1  25
ATOM     25  S   UNL     1       2.713   0.916  -0.020  0.00  0.00    +0.059 S 
ATOM     26  O   UNL     1       3.683   1.799   0.527  0.00  0.00    -0.153 OA
ATOM     27  O   UNL     1       2.461  -0.372   0.526  0.00  0.00    -0.153 OA
BRANCH  25  28
ATOM     28  N   UNL     1       3.124   0.685  -1.607  0.00  0.00    -0.187 NA
ATOM     29  H   UNL     1       3.167  -0.212  -1.972  0.00  0.00    +0.148 HD
BRANCH  28  30
ATOM     30  C   UNL     1       3.421   1.838  -2.462  0.00  0.00    +0.073 C 
ATOM     31  C   UNL     1       4.932   2.078  -2.485  0.00  0.00    +0.025 C 
BRANCH  30  33
ATOM     32  C   UNL     1       1.402   1.443  -3.879  0.00  0.00    +0.005 C 
ATOM     33  C   UNL     1       2.927   1.560  -3.883  0.00  0.00    +0.017 C 
ENDBRANCH  30  33
ENDBRANCH  28  30
ENDBRANCH  25  28
ENDBRANCH   1  25
TORSDOF 7
