REMARK  Name = ZINC09373809
REMARK  8 active torsions:
REMARK  status: ('A' for Active; 'I' for Inactive)
REMARK    1  A    between atoms: C_1  and  C_2
REMARK    2  A    between atoms: C_5  and  N_8
REMARK    3  A    between atoms: C_9  and  C_11
REMARK    4  A    between atoms: C_11  and  S_12
REMARK    5  A    between atoms: S_12  and  C_13
REMARK    6  A    between atoms: C_16  and  C_19
REMARK    7  A    between atoms: N_17  and  N_18
REMARK    8  A    between atoms: C_21  and  C_25
REMARK                            x       y       z     vdW  Elec       q    Type
REMARK                         _______ _______ _______ _____ _____    ______ ____
ROOT
ATOM      1  C   UNL     1       0.575  -8.708   2.611  0.00  0.00    +0.209 A 
ATOM      2  N   UNL     1       0.677  -9.389   1.492  0.00  0.00    -0.120 NA
ATOM      3  N   UNL     1       0.791 -10.643   1.746  0.00  0.00    -0.125 NA
ATOM      4  C   UNL     1       0.767 -10.841   3.045  0.00  0.00    +0.199 A 
ATOM      5  N   UNL     1       0.635  -9.606   3.639  0.00  0.00    -0.223 N 
ENDROOT
BRANCH   4   6
ATOM      6  C   UNL     1       0.871 -12.139   3.735  0.00  0.00    +0.105 A 
ATOM      7  C   UNL     1       1.306 -13.314   3.188  0.00  0.00    +0.061 A 
ATOM      8  C   UNL     1       1.246 -14.299   4.186  0.00  0.00    +0.093 A 
ATOM      9  N   UNL     1       0.793 -13.744   5.291  0.00  0.00    -0.173 NA
ATOM     10  N   UNL     1       0.554 -12.387   5.040  0.00  0.00    -0.273 N 
ATOM     11  H   UNL     1       0.221 -11.739   5.680  0.00  0.00    +0.189 HD
BRANCH   8  12
ATOM     12  C   UNL     1       1.627 -15.725   4.024  0.00  0.00    +0.002 A 
ATOM     13  C   UNL     1       2.099 -16.186   2.797  0.00  0.00    +0.011 A 
ATOM     14  C   UNL     1       2.453 -17.512   2.651  0.00  0.00    +0.020 A 
ATOM     15  C   UNL     1       2.339 -18.383   3.721  0.00  0.00    +0.041 A 
ATOM     16  C   UNL     1       1.871 -17.929   4.942  0.00  0.00    +0.020 A 
ATOM     17  C   UNL     1       1.520 -16.604   5.099  0.00  0.00    +0.011 A 
ATOM     18 CL   UNL     1       2.784 -20.050   3.530  0.00  0.00    -0.084 Cl
ENDBRANCH   8  12
ENDBRANCH   4   6
BRANCH   5  19
ATOM     19  N   UNL     1       0.572  -9.336   4.976  0.00  0.00    -0.295 N 
ATOM     20  H   UNL     1      -0.385  -9.297   5.293  0.00  0.00    +0.163 HD
ATOM     21  H   UNL     1       1.102 -10.011   5.507  0.00  0.00    +0.163 HD
ENDBRANCH   5  19
BRANCH   1  22
ATOM     22  S   UNL     1       0.401  -6.961   2.760  0.00  0.00    -0.075 S 
BRANCH  22  23
ATOM     23  C   UNL     1       0.391  -6.374   1.043  0.00  0.00    +0.173 C 
BRANCH  23  25
ATOM     24  N   UNL     1       0.213  -4.213  -0.148  0.00  0.00    -0.285 N 
ATOM     25  C   UNL     1       0.245  -4.874   1.026  0.00  0.00    +0.227 C 
ATOM     26  O   UNL     1       0.157  -4.261   2.070  0.00  0.00    -0.275 OA
ATOM     27  H   UNL     1       0.209  -4.707  -0.982  0.00  0.00    +0.155 HD
BRANCH  24  32
ATOM     28  C   UNL     1       0.101   1.459  -0.210  0.00  0.00    +0.044 C 
ATOM     29  C   UNL     1       0.131  -0.048  -0.194  0.00  0.00    -0.050 A 
ATOM     30  C   UNL     1       0.827  -0.713   0.799  0.00  0.00    +0.005 A 
ATOM     31  C   UNL     1       0.856  -2.094   0.817  0.00  0.00    +0.023 A 
ATOM     32  C   UNL     1       0.185  -2.814  -0.163  0.00  0.00    +0.033 A 
ATOM     33  C   UNL     1      -0.513  -2.143  -1.158  0.00  0.00    +0.023 A 
ATOM     34  C   UNL     1      -0.543  -0.762  -1.167  0.00  0.00    +0.005 A 
ENDBRANCH  24  32
ENDBRANCH  23  25
ENDBRANCH  22  23
ENDBRANCH   1  22
TORSDOF 7
