REMARK  Name = ZINC21535731
REMARK  10 active torsions:
REMARK  status: ('A' for Active; 'I' for Inactive)
REMARK    1  A    between atoms: C_1  and  C_2
REMARK    2  A    between atoms: C_5  and  C_8
REMARK    3  A    between atoms: C_8  and  N_9
REMARK    4  A    between atoms: C_10  and  C_12
REMARK    5  A    between atoms: C_12  and  C_14
REMARK    6  A    between atoms: C_12  and  N_17
REMARK    7  A    between atoms: C_14  and  C_15
REMARK    8  A    between atoms: C_14  and  C_16
REMARK    9  A    between atoms: N_17  and  S_18
REMARK   10  A    between atoms: S_18  and  C_21
REMARK                            x       y       z     vdW  Elec       q    Type
REMARK                         _______ _______ _______ _____ _____    ______ ____
ROOT
ATOM      1  N   UNL     1       4.272  -1.096  -1.762  0.00  0.00    -0.178 NA
ATOM      2  H   UNL     1       4.442  -2.067  -2.251  0.00  0.00    +0.149 HD
ENDROOT
BRANCH   1   3
ATOM      3  S   UNL     1       3.459  -1.048  -0.320  0.00  0.00    +0.059 S 
ATOM      4  O   UNL     1       4.136  -0.102   0.497  0.00  0.00    -0.153 OA
ATOM      5  O   UNL     1       3.263  -2.397   0.081  0.00  0.00    -0.153 OA
BRANCH   3   6
ATOM      6  C   UNL     1       1.861  -0.381  -0.644  0.00  0.00    +0.106 A 
ATOM      7  C   UNL     1       1.648   0.984  -0.572  0.00  0.00    +0.030 A 
ATOM      8  C   UNL     1       0.395   1.488  -0.823  0.00  0.00    +0.025 A 
ATOM      9  C   UNL     1      -0.682   0.646  -1.151  0.00  0.00    +0.037 A 
ATOM     10  C   UNL     1      -0.461  -0.712  -1.230  0.00  0.00    -0.024 A 
ATOM     11  C   UNL     1       0.815  -1.213  -0.970  0.00  0.00    +0.034 A 
ATOM     12  C   UNL     1      -1.492  -1.732  -1.591  0.00  0.00    +0.037 C 
ATOM     13  C   UNL     1      -2.499  -1.307  -2.613  0.00  0.00    +0.014 C 
ATOM     14  C   UNL     1      -3.575  -0.405  -2.057  0.00  0.00    +0.096 C 
ATOM     15  C   UNL     1      -3.065   0.965  -1.784  0.00  0.00    +0.217 C 
ATOM     16  O   UNL     1      -3.836   1.878  -1.988  0.00  0.00    -0.275 OA
ATOM     17  N   UNL     1      -1.881   1.291  -1.350  0.00  0.00    -0.285 N 
ATOM     18  H   UNL     1      -1.976   2.361  -1.113  0.00  0.00    +0.155 HD
ENDBRANCH   3   6
ENDBRANCH   1   3
BRANCH   1  19
ATOM     19  C   UNL     1       4.564   0.147  -2.480  0.00  0.00    +0.165 C 
BRANCH  19  21
ATOM     20  N   UNL     1       4.086   1.131  -4.698  0.00  0.00    -0.310 N 
ATOM     21  C   UNL     1       3.946   0.090  -3.853  0.00  0.00    +0.232 C 
ATOM     22  O   UNL     1       3.324  -0.892  -4.199  0.00  0.00    -0.274 OA
ATOM     23  H   UNL     1       4.650   2.022  -4.386  0.00  0.00    +0.149 HD
BRANCH  20  24
ATOM     24  C   UNL     1       3.485   1.076  -6.034  0.00  0.00    +0.139 C 
BRANCH  24  29
ATOM     25  C   UNL     1       4.636   5.980  -8.867  0.00  0.00    +0.044 C 
ATOM     26  C   UNL     1       4.335   4.701  -8.128  0.00  0.00    -0.050 A 
ATOM     27  C   UNL     1       5.204   3.629  -8.221  0.00  0.00    +0.003 A 
ATOM     28  C   UNL     1       4.928   2.456  -7.543  0.00  0.00    +0.005 A 
ATOM     29  C   UNL     1       3.785   2.355  -6.772  0.00  0.00    -0.030 A 
ATOM     30  C   UNL     1       2.915   3.425  -6.684  0.00  0.00    +0.005 A 
ATOM     31  C   UNL     1       3.192   4.600  -7.358  0.00  0.00    +0.003 A 
ENDBRANCH  24  29
ENDBRANCH  20  24
ENDBRANCH  19  21
BRANCH  19  32
ATOM     32  C   UNL     1       6.079   0.318  -2.608  0.00  0.00    +0.010 C 
ATOM     33  C   UNL     1       6.690   0.507  -1.219  0.00  0.00    +0.009 C 
ATOM     34  C   UNL     1       6.679  -0.926  -3.265  0.00  0.00    +0.009 C 
ENDBRANCH  19  32
ENDBRANCH   1  19
TORSDOF 7
