REMARK  Name = ZINC57531300
REMARK  5 active torsions:
REMARK  status: ('A' for Active; 'I' for Inactive)
REMARK    1  A    between atoms: C_3  and  C_9
REMARK    2  A    between atoms: C_11  and  C_23
REMARK    3  A    between atoms: C_13  and  C_18
REMARK    4  A    between atoms: C_13  and  O_22
REMARK    5  A    between atoms: C_23  and  C_25
REMARK                            x       y       z     vdW  Elec       q    Type
REMARK                         _______ _______ _______ _____ _____    ______ ____
ROOT
ATOM      1  C   UNL     1       3.671   2.186  -0.023  0.00  0.00    +0.121 C 
ATOM      2  C   UNL     1       4.159   2.351  -1.466  0.00  0.00    +0.145 C 
ATOM      3  C   UNL     1       3.144   3.207  -2.230  0.00  0.00    +0.243 C 
ATOM      4  N   UNL     1       2.956   4.475  -1.522  0.00  0.00    -0.264 N 
ATOM      5  C   UNL     1       3.111   4.561  -0.193  0.00  0.00    +0.302 C 
ATOM      6  O   UNL     1       2.932   5.636   0.347  0.00  0.00    -0.253 OA
ATOM      7  N   UNL     1       3.455   3.509   0.566  0.00  0.00    -0.292 N 
ATOM      8  H   UNL     1       2.714   5.268  -2.025  0.00  0.00    +0.153 HD
ATOM      9  H   UNL     1       3.563   3.626   1.523  0.00  0.00    +0.151 HD
ENDROOT
BRANCH   1  12
ATOM     10  C   UNL     1      -0.017   1.378   0.010  0.00  0.00    +0.002 A 
ATOM     11  C   UNL     1       1.171   2.086   0.002  0.00  0.00    +0.007 A 
ATOM     12  C   UNL     1       2.378   1.413  -0.013  0.00  0.00    -0.007 A 
ATOM     13  C   UNL     1       2.398   0.030  -0.021  0.00  0.00    +0.064 A 
ATOM     14  C   UNL     1       1.209  -0.679  -0.013  0.00  0.00    +0.060 A 
ATOM     15  C   UNL     1       0.002  -0.004   0.002  0.00  0.00    +0.021 A 
ATOM     16 CL   UNL     1       1.234  -2.415  -0.023  0.00  0.00    -0.082 Cl
ATOM     17 CL   UNL     1       3.914  -0.816  -0.041  0.00  0.00    -0.082 Cl
ENDBRANCH   1  12
BRANCH   3  18
ATOM     18  C   UNL     1       3.665   3.482  -3.642  0.00  0.00    +0.436 C 
ATOM     19  F   UNL     1       3.852   2.269  -4.314  0.00  0.00    -0.166 F 
ATOM     20  F   UNL     1       2.737   4.263  -4.338  0.00  0.00    -0.166 F 
ATOM     21  F   UNL     1       4.884   4.164  -3.564  0.00  0.00    -0.166 F 
ENDBRANCH   3  18
BRANCH   3  22
ATOM     22  O   UNL     1       1.897   2.514  -2.307  0.00  0.00    -0.364 OA
ATOM     23  H   UNL     1       1.205   2.999  -2.778  0.00  0.00    +0.212 HD
ENDBRANCH   3  22
BRANCH   2  24
ATOM     24  C   UNL     1       5.505   3.030  -1.471  0.00  0.00    +0.179 C 
ATOM     25  O   UNL     1       5.828   3.744  -0.543  0.00  0.00    -0.291 OA
BRANCH  24  26
ATOM     26  C   UNL     1       6.390   2.835  -2.554  0.00  0.00    +0.055 A 
ATOM     27  C   UNL     1       7.665   3.358  -2.750  0.00  0.00    +0.019 A 
ATOM     28  C   UNL     1       8.287   2.985  -3.914  0.00  0.00    +0.008 A 
ATOM     29  C   UNL     1       7.641   2.156  -4.774  0.00  0.00    +0.046 A 
ATOM     30  S   UNL     1       6.168   1.850  -4.024  0.00  0.00    -0.094 S 
ENDBRANCH  24  26
ENDBRANCH   2  24
TORSDOF 5
