REMARK  Name = ZINC59121697
REMARK  10 active torsions:
REMARK  status: ('A' for Active; 'I' for Inactive)
REMARK    1  A    between atoms: C_1  and  C_2
REMARK    2  A    between atoms: C_2  and  C_3
REMARK    3  A    between atoms: C_3  and  N_4
REMARK    4  A    between atoms: N_4  and  C_5
REMARK    5  A    between atoms: N_4  and  C_17
REMARK    6  A    between atoms: C_5  and  C_6
REMARK    7  A    between atoms: N_8  and  C_9
REMARK    8  A    between atoms: C_10  and  C_14
REMARK    9  A    between atoms: C_17  and  C_19
REMARK   10  A    between atoms: C_17  and  C_20
REMARK                            x       y       z     vdW  Elec       q    Type
REMARK                         _______ _______ _______ _____ _____    ______ ____
ROOT
ATOM      1  C   UNL     1       1.137  -2.778   2.289  0.00  0.00    +0.020 C 
ENDROOT
BRANCH   1   2
ATOM      2  C   UNL     1       0.062  -2.739   3.344  0.00  0.00    +0.201 C 
ATOM      3  O   UNL     1      -1.028  -2.278   3.082  0.00  0.00    -0.278 OA
ATOM      4  N   UNL     1       0.312  -3.217   4.580  0.00  0.00    -0.281 N 
ATOM      5  H   UNL     1       1.184  -3.586   4.790  0.00  0.00    +0.155 HD
BRANCH   4   6
ATOM      6  C   UNL     1      -0.678  -3.181   5.550  0.00  0.00    +0.084 A 
ATOM      7  C   UNL     1      -0.600  -3.617   6.864  0.00  0.00    +0.065 A 
ATOM      8  C   UNL     1      -1.790  -3.461   7.669  0.00  0.00    +0.022 A 
ATOM      9  C   UNL     1      -2.848  -2.906   7.050  0.00  0.00    +0.048 A 
ATOM     10  S   UNL     1      -2.242  -2.592   5.407  0.00  0.00    -0.081 S 
BRANCH   7  11
ATOM     11  C   UNL     1       0.627  -4.208   7.409  0.00  0.00    +0.244 C 
ATOM     12  O   UNL     1       1.612  -4.325   6.703  0.00  0.00    -0.270 OA
ATOM     13  N   UNL     1       0.665  -4.621   8.691  0.00  0.00    -0.325 N 
ATOM     14  H   UNL     1      -0.120  -4.527   9.254  0.00  0.00    +0.145 HD
ATOM     15  H   UNL     1       1.476  -5.011   9.051  0.00  0.00    +0.145 HD
ENDBRANCH   7  11
ENDBRANCH   4   6
ENDBRANCH   1   2
BRANCH   1  16
ATOM     16  N   UNL     1       0.620  -2.204   1.040  0.00  0.00    +0.390 N 
ATOM     17  H   UNL     1      -0.224  -2.687   0.772  0.00  0.00    -0.080 HD
BRANCH  16  18
ATOM     18  C   UNL     1       1.626  -2.350  -0.020  0.00  0.00    -0.039 C 
ATOM     19  C   UNL     1       1.142  -1.636  -1.284  0.00  0.00    -0.008 C 
BRANCH  18  20
ATOM     20  C   UNL     1       1.832  -3.813  -0.318  0.00  0.00    -0.047 A 
ATOM     21  C   UNL     1       0.824  -4.721  -0.054  0.00  0.00    +0.003 A 
ATOM     22  C   UNL     1       1.013  -6.063  -0.328  0.00  0.00    +0.000 A 
ATOM     23  C   UNL     1       2.211  -6.497  -0.865  0.00  0.00    +0.001 A 
ATOM     24  C   UNL     1       3.219  -5.590  -1.129  0.00  0.00    +0.015 A 
ATOM     25  C   UNL     1       3.028  -4.246  -0.860  0.00  0.00    +0.019 A 
ATOM     26 BR   UNL     1       4.405  -3.003  -1.228  0.00  0.00    -0.050 Br
ENDBRANCH  18  20
ENDBRANCH  16  18
BRANCH  16  27
ATOM     27  C   UNL     1       0.325  -0.779   1.242  0.00  0.00    -0.078 C 
BRANCH  27  29
ATOM     28  C   UNL     1       1.314   1.453   1.775  0.00  0.00    +0.002 C 
ATOM     29  C   UNL     1       1.625  -0.025   1.532  0.00  0.00    -0.022 C 
ENDBRANCH  27  29
ENDBRANCH  16  27
ENDBRANCH   1  16
TORSDOF 8
