REMARK  Name = ZINC56714280
REMARK  5 active torsions:
REMARK  status: ('A' for Active; 'I' for Inactive)
REMARK    1  A    between atoms: C_1  and  C_2
REMARK    2  A    between atoms: C_3  and  N_14
REMARK    3  A    between atoms: C_7  and  N_8
REMARK    4  A    between atoms: N_17  and  C_18
REMARK    5  A    between atoms: N_27  and  C_29
REMARK                            x       y       z     vdW  Elec       q    Type
REMARK                         _______ _______ _______ _____ _____    ______ ____
ROOT
ATOM      1  N   UNL     1      -0.010   0.011  -2.412  0.00  0.00    -0.269 N 
ATOM      2  C   UNL     1       0.095  -0.653  -3.580  0.00  0.00    +0.304 C 
ATOM      3  O   UNL     1       0.112  -1.869  -3.588  0.00  0.00    -0.253 OA
ATOM      4  N   UNL     1       0.182   0.030  -4.738  0.00  0.00    -0.296 N 
ATOM      5  H   UNL     1      -0.106   0.977  -2.410  0.00  0.00    +0.156 HD
ATOM      6  H   UNL     1       0.168   1.000  -4.732  0.00  0.00    +0.151 HD
ENDROOT
BRANCH   4   7
ATOM      7  C   UNL     1       0.296  -0.690  -6.005  0.00  0.00    +0.077 C 
ATOM      8  C   UNL     1      -1.092  -1.047  -6.542  0.00  0.00    -0.007 C 
ATOM      9  C   UNL     1      -0.945  -1.895  -7.800  0.00  0.00    +0.003 C 
ATOM     10  C   UNL     1      -0.102  -1.218  -8.869  0.00  0.00    +0.001 C 
ATOM     11  C   UNL     1       1.189  -0.623  -8.331  0.00  0.00    +0.003 C 
ATOM     12  C   UNL     1       0.980   0.187  -7.057  0.00  0.00    -0.007 C 
ATOM     13  C   UNL     1       0.155   1.438  -7.316  0.00  0.00    -0.073 C 
ATOM     14  N   UNL     1      -1.223   1.153  -7.701  0.00  0.00    +0.382 N 
ATOM     15  C   UNL     1      -1.896   0.217  -6.807  0.00  0.00    -0.073 C 
ATOM     16  H   UNL     1      -1.259   0.818  -8.651  0.00  0.00    -0.081 HD
BRANCH  14  17
ATOM     17  C   UNL     1      -1.971   2.417  -7.681  0.00  0.00    -0.069 C 
ATOM     18  C   UNL     1      -2.782   2.778  -8.927  0.00  0.00    -0.017 C 
ATOM     19  C   UNL     1      -1.492   3.536  -8.608  0.00  0.00    -0.017 C 
ENDBRANCH  14  17
ENDBRANCH   4   7
BRANCH   1  22
ATOM     20  C   UNL     1      -1.262   1.188  -0.145  0.00  0.00    +0.047 C 
ATOM     21  C   UNL     1      -0.580  -0.154  -0.072  0.00  0.00    -0.008 A 
ATOM     22  C   UNL     1       0.019  -0.692  -1.202  0.00  0.00    +0.039 A 
ATOM     23  C   UNL     1       0.647  -1.928  -1.131  0.00  0.00    +0.024 A 
ATOM     24  C   UNL     1       0.675  -2.623   0.062  0.00  0.00    +0.004 A 
ATOM     25  C   UNL     1       0.079  -2.091   1.189  0.00  0.00    +0.024 A 
ATOM     26  C   UNL     1      -0.545  -0.851   1.127  0.00  0.00    +0.041 A 
BRANCH  26  27
ATOM     27  N   UNL     1      -1.143  -0.309   2.270  0.00  0.00    -0.271 N 
ATOM     28  C   UNL     1      -2.538  -0.539   2.663  0.00  0.00    +0.114 C 
ATOM     29  C   UNL     1      -2.619  -0.133   4.151  0.00  0.00    +0.029 C 
ATOM     30  C   UNL     1      -1.456   0.879   4.266  0.00  0.00    +0.098 C 
ATOM     31  C   UNL     1      -0.511   0.484   3.153  0.00  0.00    +0.220 C 
ATOM     32  O   UNL     1       0.647   0.834   3.067  0.00  0.00    -0.275 OA
ENDBRANCH  26  27
ENDBRANCH   1  22
TORSDOF 4
