REMARK  Name = ZINC12914953
REMARK  6 active torsions:
REMARK  status: ('A' for Active; 'I' for Inactive)
REMARK    1  A    between atoms: C_1  and  C_2
REMARK    2  A    between atoms: C_4  and  C_7
REMARK    3  A    between atoms: C_7  and  C_9
REMARK    4  A    between atoms: C_7  and  S_10
REMARK    5  A    between atoms: S_10  and  C_11
REMARK    6  A    between atoms: C_19  and  C_21
REMARK                            x       y       z     vdW  Elec       q    Type
REMARK                         _______ _______ _______ _____ _____    ______ ____
ROOT
ATOM      1  C   UNL     1       2.370   3.960   0.000  0.00  0.00    +0.109 A 
ATOM      2  C   UNL     1       1.145   3.162   0.008  0.00  0.00    +0.032 A 
ATOM      3  C   UNL     1       1.166   1.765   0.000  0.00  0.00    +0.012 A 
ATOM      4  C   UNL     1      -0.013   1.076   0.008  0.00  0.00    +0.001 A 
ATOM      5  C   UNL     1      -1.232   1.746   0.017  0.00  0.00    +0.002 A 
ATOM      6  C   UNL     1      -1.286   3.108   0.031  0.00  0.00    +0.028 A 
ATOM      7  C   UNL     1      -0.096   3.848   0.024  0.00  0.00    +0.076 A 
ATOM      8  N   UNL     1      -0.090   5.187   0.030  0.00  0.00    -0.227 NA
ATOM      9  C   UNL     1       1.046   5.862   0.023  0.00  0.00    +0.168 A 
ATOM     10  N   UNL     1       2.245   5.281   0.008  0.00  0.00    -0.220 NA
ENDROOT
BRANCH   9  11
ATOM     11  C   UNL     1       0.983   7.336   0.031  0.00  0.00    +0.056 A 
ATOM     12  C   UNL     1       2.010   8.244   0.031  0.00  0.00    +0.019 A 
ATOM     13  C   UNL     1       1.707   9.586   0.034  0.00  0.00    +0.008 A 
ATOM     14  C   UNL     1       0.403   9.970   0.050  0.00  0.00    +0.046 A 
ATOM     15  S   UNL     1      -0.449   8.401   0.050  0.00  0.00    -0.094 S 
ENDBRANCH   9  11
BRANCH   1  16
ATOM     16  S   UNL     1       3.956   3.194  -0.018  0.00  0.00    -0.092 S 
BRANCH  16  17
ATOM     17  C   UNL     1       5.014   4.663  -0.022  0.00  0.00    +0.138 C 
ATOM     18  C   UNL     1       4.830   5.427   1.291  0.00  0.00    +0.029 C 
BRANCH  17  22
ATOM     19  C   UNL     1       9.812   4.322  -1.414  0.00  0.00    +0.091 C 
ATOM     20  C   UNL     1       8.485   4.088  -0.740  0.00  0.00    +0.169 A 
ATOM     21  N   UNL     1       7.352   4.782  -0.952  0.00  0.00    -0.195 NA
ATOM     22  C   UNL     1       6.455   4.244  -0.161  0.00  0.00    +0.240 A 
ATOM     23  O   UNL     1       7.064   3.256   0.501  0.00  0.00    -0.337 OA
ATOM     24  N   UNL     1       8.223   3.180   0.151  0.00  0.00    -0.062 NA
ENDBRANCH  17  22
ENDBRANCH  16  17
ENDBRANCH   1  16
TORSDOF 4
