REMARK  Name = ZINC26803007
REMARK  10 active torsions:
REMARK  status: ('A' for Active; 'I' for Inactive)
REMARK    1  A    between atoms: C_1  and  C_2
REMARK    2  A    between atoms: C_2  and  C_3
REMARK    3  A    between atoms: C_3  and  S_4
REMARK    4  A    between atoms: S_4  and  C_5
REMARK    5  A    between atoms: C_14  and  C_17
REMARK    6  A    between atoms: C_18  and  N_21
REMARK    7  A    between atoms: N_21  and  N_22
REMARK    8  A    between atoms: N_22  and  C_23
REMARK    9  A    between atoms: C_23  and  N_25
REMARK   10  A    between atoms: C_26  and  C_28
REMARK                            x       y       z     vdW  Elec       q    Type
REMARK                         _______ _______ _______ _____ _____    ______ ____
ROOT
ATOM      1  C   UNL     1       0.002  -0.004   0.002  0.00  0.00    +0.156 C 
ATOM      2  N   UNL     1       1.160  -0.644  -0.013  0.00  0.00    -0.219 NA
ATOM      3  C   UNL     1       1.138  -1.990   0.062  0.00  0.00    +0.110 A 
ATOM      4  C   UNL     1       0.026  -2.753   0.356  0.00  0.00    +0.025 A 
ATOM      5  C   UNL     1       0.179  -4.143   0.374  0.00  0.00    -0.029 A 
ATOM      6  C   UNL     1       1.423  -4.638   0.133  0.00  0.00    -0.005 A 
ATOM      7  S   UNL     1       2.418  -3.194  -0.142  0.00  0.00    -0.074 S 
ATOM      8  C   UNL     1       1.845  -6.072   0.108  0.00  0.00    +0.043 C 
ATOM      9  C   UNL     1       0.734  -6.914   0.753  0.00  0.00    +0.009 C 
ATOM     10  C   UNL     1      -0.612  -6.489   0.158  0.00  0.00    -0.009 C 
ATOM     11  C   UNL     1      -0.984  -5.092   0.655  0.00  0.00    +0.039 C 
ATOM     12  C   UNL     1      -1.693  -7.484   0.584  0.00  0.00    +0.008 C 
ATOM     13  C   UNL     1      -1.282  -2.020   0.653  0.00  0.00    +0.191 C 
ATOM     14  N   UNL     1      -1.183  -0.702   0.015  0.00  0.00    -0.303 N 
ATOM     15  H   UNL     1      -2.067  -0.255  -0.463  0.00  0.00    +0.150 HD
ENDROOT
BRANCH  13  16
ATOM     16  N   UNL     1      -1.450  -1.860   2.104  0.00  0.00    -0.217 NA
ATOM     17  H   UNL     1      -2.339  -1.436   2.320  0.00  0.00    +0.147 HD
BRANCH  16  18
ATOM     18  N   UNL     1      -0.420  -1.140   2.639  0.00  0.00    -0.260 N 
ATOM     19  H   UNL     1       0.387  -0.768   1.991  0.00  0.00    +0.168 HD
BRANCH  18  20
ATOM     20  C   UNL     1      -0.393  -0.885   3.962  0.00  0.00    +0.151 C 
ATOM     21  S   UNL     1       0.898   0.018   4.634  0.00  0.00    -0.017 S 
BRANCH  20  22
ATOM     22  N   UNL     1      -1.381  -1.340   4.757  0.00  0.00    -0.263 N 
ATOM     23  C   UNL     1      -1.354  -1.085   6.080  0.00  0.00    +0.250 C 
ATOM     24  O   UNL     1      -0.438  -0.444   6.557  0.00  0.00    -0.270 OA
ATOM     25  H   UNL     1      -2.211  -1.921   4.326  0.00  0.00    +0.157 HD
BRANCH  23  26
ATOM     26  C   UNL     1      -2.438  -1.585   6.952  0.00  0.00    +0.037 A 
ATOM     27  C   UNL     1      -3.495  -2.316   6.407  0.00  0.00    +0.013 A 
ATOM     28  C   UNL     1      -4.501  -2.784   7.226  0.00  0.00    +0.001 A 
ATOM     29  C   UNL     1      -4.470  -2.520   8.584  0.00  0.00    +0.000 A 
ATOM     30  C   UNL     1      -3.428  -1.791   9.130  0.00  0.00    +0.001 A 
ATOM     31  C   UNL     1      -2.413  -1.322   8.322  0.00  0.00    +0.013 A 
ENDBRANCH  23  26
ENDBRANCH  20  22
ENDBRANCH  18  20
ENDBRANCH  16  18
ENDBRANCH  13  16
BRANCH   1  32
ATOM     32  S   UNL     1      -0.022   1.758   0.012  0.00  0.00    -0.091 S 
BRANCH  32  33
ATOM     33  C   UNL     1       1.756   2.096  -0.004  0.00  0.00    +0.077 C 
BRANCH  33  35
ATOM     34  C   UNL     1       3.490   3.895  -0.010  0.00  0.00    +0.004 C 
ATOM     35  C   UNL     1       1.987   3.609   0.003  0.00  0.00    +0.008 C 
ENDBRANCH  33  35
ENDBRANCH  32  33
ENDBRANCH   1  32
TORSDOF 8
