REMARK  Name = ZINC63408819
REMARK  9 active torsions:
REMARK  status: ('A' for Active; 'I' for Inactive)
REMARK    1  A    between atoms: C_1  and  C_2
REMARK    2  A    between atoms: C_6  and  C_8
REMARK    3  A    between atoms: C_8  and  C_9
REMARK    4  A    between atoms: C_8  and  C_10
REMARK    5  A    between atoms: C_8  and  C_11
REMARK    6  A    between atoms: C_11  and  N_12
REMARK    7  A    between atoms: N_15  and  N_16
REMARK    8  A    between atoms: N_16  and  C_17
REMARK    9  A    between atoms: C_17  and  C_24
REMARK                            x       y       z     vdW  Elec       q    Type
REMARK                         _______ _______ _______ _____ _____    ______ ____
ROOT
ATOM      1  N   UNL     1       0.088  -5.086   3.465  0.00  0.00    -0.298 N 
ATOM      2  C   UNL     1       0.105  -6.434   3.458  0.00  0.00    +0.313 C 
ATOM      3  O   UNL     1       0.108  -7.036   2.402  0.00  0.00    -0.252 OA
ATOM      4  N   UNL     1       0.120  -7.114   4.621  0.00  0.00    -0.234 N 
ATOM      5  H   UNL     1       0.086  -4.606   4.308  0.00  0.00    +0.150 HD
ATOM      6  H   UNL     1       0.133  -8.084   4.616  0.00  0.00    +0.171 HD
ENDROOT
BRANCH   4   7
ATOM      7  N   UNL     1       0.117  -6.438   5.808  0.00  0.00    -0.232 NA
ATOM      8  H   UNL     1      -0.672  -5.812   5.866  0.00  0.00    +0.145 HD
BRANCH   7   9
ATOM      9  C   UNL     1       0.135  -7.368   6.944  0.00  0.00    +0.054 C 
ATOM     10  C   UNL     1      -1.054  -8.319   6.817  0.00  0.00    +0.047 C 
ATOM     11  C   UNL     1      -1.506  -8.808   8.222  0.00  0.00    +0.168 C 
ATOM     12  S   UNL     1      -1.309  -7.237   9.172  0.00  0.00    -0.029 S 
ATOM     13  O   UNL     1      -0.911  -7.542  10.502  0.00  0.00    -0.174 OA
ATOM     14  O   UNL     1      -2.443  -6.410   8.949  0.00  0.00    -0.174 OA
ATOM     15  C   UNL     1       0.131  -6.552   8.252  0.00  0.00    +0.189 C 
ATOM     16  C   UNL     1       1.425  -8.190   6.883  0.00  0.00    +0.031 C 
ENDBRANCH   7   9
ENDBRANCH   4   7
BRANCH   1  17
ATOM     17  C   UNL     1       0.072  -4.347   2.201  0.00  0.00    +0.116 C 
BRANCH  17  18
ATOM     18  C   UNL     1       0.054  -2.845   2.489  0.00  0.00    +0.006 C 
ATOM     19  C   UNL     1       1.302  -2.463   3.286  0.00  0.00    +0.017 C 
ATOM     20  C   UNL     1      -1.196  -2.495   3.299  0.00  0.00    +0.017 C 
BRANCH  18  26
ATOM     21  C   UNL     1      -0.018   1.503   0.010  0.00  0.00    +0.044 C 
ATOM     22  C   UNL     1       0.002  -0.004   0.002  0.00  0.00    -0.050 A 
ATOM     23  C   UNL     1       0.006  -0.689  -1.199  0.00  0.00    +0.003 A 
ATOM     24  C   UNL     1       0.025  -2.071  -1.207  0.00  0.00    +0.001 A 
ATOM     25  C   UNL     1       0.040  -2.768  -0.013  0.00  0.00    +0.004 A 
ATOM     26  C   UNL     1       0.037  -2.084   1.188  0.00  0.00    -0.040 A 
ATOM     27  C   UNL     1       0.023  -0.702   1.195  0.00  0.00    +0.007 A 
ENDBRANCH  18  26
ENDBRANCH  17  18
ENDBRANCH   1  17
TORSDOF 5
