REMARK  Name = ZINC08431933
REMARK  5 active torsions:
REMARK  status: ('A' for Active; 'I' for Inactive)
REMARK    1  A    between atoms: C_1  and  C_2
REMARK    2  A    between atoms: C_2  and  C_10
REMARK    3  A    between atoms: N_3  and  N_4
REMARK    4  A    between atoms: C_9  and  N_48
REMARK    5  A    between atoms: C_11  and  C_26
REMARK                            x       y       z     vdW  Elec       q    Type
REMARK                         _______ _______ _______ _____ _____    ______ ____
ROOT
ATOM      1  C   UNL     1       1.031   3.344   0.141  0.00  0.00    +0.093 A 
ATOM      2  C   UNL     1       1.968   4.334   0.193  0.00  0.00    +0.150 A 
ATOM      3  N   UNL     1       1.331   5.524   0.374  0.00  0.00    -0.284 N 
ATOM      4  H   UNL     1       1.768   6.388   0.443  0.00  0.00    +0.187 HD
ATOM      5  N   UNL     1      -0.048   5.308   0.452  0.00  0.00    -0.194 N 
ATOM      6  C   UNL     1      -0.279   3.986   0.315  0.00  0.00    +0.283 A 
ATOM      7  O   UNL     1      -1.363   3.433   0.331  0.00  0.00    -0.265 OA
ATOM      8  C   UNL     1      -1.012   6.284   0.639  0.00  0.00    +0.196 A 
ATOM      9  N   UNL     1      -2.316   6.150   0.715  0.00  0.00    -0.221 NA
ATOM     10  C   UNL     1      -3.143   7.200   0.906  0.00  0.00    +0.081 A 
ATOM     11  C   UNL     1      -4.554   7.193   1.011  0.00  0.00    +0.029 A 
ATOM     12  C   UNL     1      -5.248   8.359   1.199  0.00  0.00    +0.002 A 
ATOM     13  C   UNL     1      -4.599   9.582   1.293  0.00  0.00    +0.001 A 
ATOM     14  C   UNL     1      -3.221   9.626   1.196  0.00  0.00    +0.017 A 
ATOM     15  C   UNL     1      -2.517   8.463   1.007  0.00  0.00    +0.041 A 
ATOM     16  S   UNL     1      -0.798   8.049   0.829  0.00  0.00    -0.048 S 
ENDROOT
BRANCH   2  17
ATOM     17  C   UNL     1       3.458   4.144   0.068  0.00  0.00    +0.434 C 
ATOM     18  F   UNL     1       3.733   2.804  -0.227  0.00  0.00    -0.164 F 
ATOM     19  F   UNL     1       3.947   4.957  -0.960  0.00  0.00    -0.164 F 
ATOM     20  F   UNL     1       4.076   4.492   1.274  0.00  0.00    -0.164 F 
ENDBRANCH   2  17
BRANCH   1  22
ATOM     21  C   UNL     1       1.170   0.960   1.123  0.00  0.00    +0.068 C 
ATOM     22  C   UNL     1       1.284   1.904  -0.046  0.00  0.00    +0.070 C 
ATOM     23  N   UNL     1       1.606   1.449  -1.218  0.00  0.00    -0.189 NA
BRANCH  23  24
ATOM     24  N   UNL     1       1.718   0.068  -1.427  0.00  0.00    -0.259 N 
ATOM     25  C   UNL     1       3.023  -0.549  -1.710  0.00  0.00    +0.107 C 
ATOM     26  C   UNL     1       3.220  -1.726  -0.741  0.00  0.00    -0.058 C 
ATOM     27  C   UNL     1       0.828  -1.968  -0.425  0.00  0.00    -0.058 C 
ATOM     28  C   UNL     1       0.534  -0.802  -1.375  0.00  0.00    +0.107 C 
ATOM     29  C   UNL     1       2.296  -3.860  -0.064  0.00  0.00    -0.096 C 
ATOM     30  N   UNL     1       2.066  -2.643  -0.870  0.00  0.00    +0.380 N 
ATOM     31  H   UNL     1       1.963  -2.911  -1.856  0.00  0.00    -0.082 HD
ENDBRANCH  23  24
ENDBRANCH   1  22
TORSDOF 3
