REMARK  Name = ZINC32529549
REMARK  11 active torsions:
REMARK  status: ('A' for Active; 'I' for Inactive)
REMARK    1  A    between atoms: C_1  and  C_2
REMARK    2  A    between atoms: C_4  and  C_30
REMARK    3  A    between atoms: C_8  and  C_29
REMARK    4  A    between atoms: C_10  and  S_12
REMARK    5  A    between atoms: S_12  and  C_13
REMARK    6  A    between atoms: C_13  and  C_15
REMARK    7  A    between atoms: C_13  and  C_16
REMARK    8  A    between atoms: N_18  and  C_19
REMARK    9  A    between atoms: C_20  and  C_26
REMARK   10  A    between atoms: C_21  and  C_25
REMARK   11  A    between atoms: C_22  and  C_24
REMARK                            x       y       z     vdW  Elec       q    Type
REMARK                         _______ _______ _______ _____ _____    ______ ____
ROOT
ATOM      1  C   UNL     1      -2.933   0.514   4.954  0.00  0.00    +0.136 C 
ATOM      2  C   UNL     1      -1.852  -0.501   5.330  0.00  0.00    +0.029 C 
ENDROOT
BRANCH   1   3
ATOM      3  C   UNL     1      -3.386   0.265   3.538  0.00  0.00    +0.231 C 
ATOM      4  O   UNL     1      -4.414  -0.344   3.328  0.00  0.00    -0.274 OA
ATOM      5  N   UNL     1      -2.648   0.718   2.505  0.00  0.00    -0.278 N 
ATOM      6  H   UNL     1      -1.716   1.270   2.696  0.00  0.00    +0.155 HD
BRANCH   5   7
ATOM      7  C   UNL     1      -3.065   0.489   1.203  0.00  0.00    +0.084 A 
ATOM      8  C   UNL     1      -2.447   0.874   0.018  0.00  0.00    +0.068 A 
ATOM      9  C   UNL     1      -3.103   0.493  -1.210  0.00  0.00    -0.027 A 
ATOM     10  C   UNL     1      -4.255  -0.194  -1.103  0.00  0.00    -0.008 A 
ATOM     11  S   UNL     1      -4.482  -0.344   0.657  0.00  0.00    -0.078 S 
ATOM     12  C   UNL     1      -5.140  -0.713  -2.207  0.00  0.00    +0.052 C 
ATOM     13  C   UNL     1      -2.523   0.850  -2.554  0.00  0.00    +0.045 C 
BRANCH   8  14
ATOM     14  C   UNL     1      -1.187   1.624   0.017  0.00  0.00    +0.244 C 
ATOM     15  O   UNL     1      -1.204   2.841   0.023  0.00  0.00    -0.270 OA
ATOM     16  N   UNL     1      -0.011   0.966   0.007  0.00  0.00    -0.325 N 
ATOM     17  H   UNL     1       0.934   1.529   0.006  0.00  0.00    +0.145 HD
ATOM     18  H   UNL     1       0.004  -0.134   0.001  0.00  0.00    +0.145 HD
ENDBRANCH   8  14
ENDBRANCH   5   7
ENDBRANCH   1   3
BRANCH   1  19
ATOM     19  S   UNL     1      -4.342   0.339   6.077  0.00  0.00    -0.093 S 
BRANCH  19  29
ATOM     20  C   UNL     1       0.251   2.714  12.355  0.00  0.00    +0.044 C 
ATOM     21  C   UNL     1      -0.448   2.296  11.087  0.00  0.00    -0.050 A 
ATOM     22  C   UNL     1       0.262   2.269   9.888  0.00  0.00    +0.008 A 
ATOM     23  C   UNL     1      -0.340   1.897   8.725  0.00  0.00    -0.024 A 
ATOM     24  C   UNL     1      -1.697   1.532   8.727  0.00  0.00    +0.075 A 
ATOM     25  C   UNL     1      -2.416   1.560   9.947  0.00  0.00    +0.004 A 
ATOM     26  C   UNL     1      -1.765   1.950  11.127  0.00  0.00    +0.013 A 
ATOM     27  C   UNL     1      -3.778   1.194   9.950  0.00  0.00    -0.039 A 
ATOM     28  C   UNL     1      -4.350   0.826   8.769  0.00  0.00    +0.038 A 
ATOM     29  C   UNL     1      -3.585   0.819   7.594  0.00  0.00    +0.099 A 
ATOM     30  N   UNL     1      -2.311   1.157   7.599  0.00  0.00    -0.240 NA
ATOM     31  C   UNL     1      -4.580   1.211  11.225  0.00  0.00    +0.044 C 
ATOM     32  C   UNL     1       0.448   1.874   7.440  0.00  0.00    +0.046 C 
ENDBRANCH  19  29
ENDBRANCH   1  19
TORSDOF 5
