REMARK  Name = ZINC20918375
REMARK  10 active torsions:
REMARK  status: ('A' for Active; 'I' for Inactive)
REMARK    1  A    between atoms: C_1  and  C_2
REMARK    2  A    between atoms: C_5  and  C_8
REMARK    3  A    between atoms: N_9  and  N_10
REMARK    4  A    between atoms: C_14  and  S_17
REMARK    5  A    between atoms: N_15  and  N_16
REMARK    6  A    between atoms: S_17  and  C_18
REMARK    7  A    between atoms: C_18  and  C_19
REMARK    8  A    between atoms: N_21  and  C_22
REMARK    9  A    between atoms: C_24  and  C_29
REMARK   10  A    between atoms: C_26  and  C_28
REMARK                            x       y       z     vdW  Elec       q    Type
REMARK                         _______ _______ _______ _____ _____    ______ ____
ROOT
ATOM      1  N   UNL     1      -7.635   2.298  -0.488  0.00  0.00    -0.204 N 
ATOM      2  C   UNL     1      -6.251   2.337  -0.397  0.00  0.00    +0.254 A 
ATOM      3  N   UNL     1      -5.522   3.410  -0.203  0.00  0.00    -0.109 NA
ATOM      4  N   UNL     1      -4.177   3.018  -0.168  0.00  0.00    -0.119 NA
ATOM      5  C   UNL     1      -4.128   1.720  -0.348  0.00  0.00    +0.210 A 
ATOM      6  N   UNL     1      -5.409   1.265  -0.491  0.00  0.00    -0.211 N 
ATOM      7  H   UNL     1      -8.148   1.339  -0.652  0.00  0.00    +0.177 HD
ENDROOT
BRANCH   6   8
ATOM      8  N   UNL     1      -5.781  -0.034  -0.693  0.00  0.00    -0.294 N 
ATOM      9  H   UNL     1      -5.016  -0.822  -0.754  0.00  0.00    +0.163 HD
ATOM     10  H   UNL     1      -6.846  -0.291  -0.795  0.00  0.00    +0.163 HD
ENDBRANCH   6   8
BRANCH   1  12
ATOM     11  C   UNL     1      -9.674   3.442  -0.458  0.00  0.00    +0.138 C 
ATOM     12  N   UNL     1      -8.379   3.479  -0.372  0.00  0.00    -0.188 NA
BRANCH  11  17
ATOM     13  C   UNL     1     -12.728   8.292   0.018  0.00  0.00    +0.044 C 
ATOM     14  C   UNL     1     -11.928   7.021  -0.107  0.00  0.00    -0.050 A 
ATOM     15  C   UNL     1     -12.576   5.816  -0.313  0.00  0.00    +0.004 A 
ATOM     16  C   UNL     1     -11.851   4.649  -0.428  0.00  0.00    +0.010 A 
ATOM     17  C   UNL     1     -10.457   4.685  -0.336  0.00  0.00    -0.005 A 
ATOM     18  C   UNL     1      -9.809   5.905  -0.122  0.00  0.00    +0.010 A 
ATOM     19  C   UNL     1     -10.548   7.064  -0.014  0.00  0.00    +0.004 A 
ENDBRANCH  11  17
ENDBRANCH   1  12
BRANCH   5  20
ATOM     20  S   UNL     1      -2.668   0.735  -0.392  0.00  0.00    -0.075 S 
BRANCH  20  21
ATOM     21  C   UNL     1      -1.326   1.929  -0.144  0.00  0.00    +0.173 C 
BRANCH  21  22
ATOM     22  C   UNL     1      -0.003   1.208  -0.160  0.00  0.00    +0.227 C 
ATOM     23  O   UNL     1       0.031   0.006  -0.322  0.00  0.00    -0.275 OA
ATOM     24  N   UNL     1       1.143   1.898   0.001  0.00  0.00    -0.285 N 
ATOM     25  H   UNL     1       1.120   2.997   0.061  0.00  0.00    +0.155 HD
BRANCH  24  26
ATOM     26  C   UNL     1       2.363   1.219   0.092  0.00  0.00    +0.034 A 
ATOM     27  C   UNL     1       3.519   1.792  -0.422  0.00  0.00    +0.026 A 
ATOM     28  C   UNL     1       4.723   1.121  -0.326  0.00  0.00    -0.048 A 
ATOM     29  C   UNL     1       4.775  -0.125   0.271  0.00  0.00    +0.006 A 
ATOM     30  C   UNL     1       3.625  -0.701   0.778  0.00  0.00    -0.048 A 
ATOM     31  C   UNL     1       2.420  -0.033   0.690  0.00  0.00    +0.026 A 
ATOM     32  C   UNL     1       3.687  -2.060   1.428  0.00  0.00    +0.044 C 
ATOM     33  C   UNL     1       5.978   1.746  -0.877  0.00  0.00    +0.044 C 
ENDBRANCH  24  26
ENDBRANCH  21  22
ENDBRANCH  20  21
ENDBRANCH   5  20
TORSDOF 7
