REMARK  Name = ZINC09306445
REMARK  4 active torsions:
REMARK  status: ('A' for Active; 'I' for Inactive)
REMARK    1  A    between atoms: C_2  and  C_3
REMARK    2  A    between atoms: C_3  and  N_4
REMARK    3  A    between atoms: C_12  and  C_16
REMARK    4  A    between atoms: C_12  and  O_20
REMARK                            x       y       z     vdW  Elec       q    Type
REMARK                         _______ _______ _______ _____ _____    ______ ____
ROOT
ATOM      1  N   UNL     1      -1.318  -1.700  -1.126  0.00  0.00    -0.265 N 
ATOM      2  C   UNL     1      -1.833  -1.286  -2.338  0.00  0.00    +0.132 C 
ATOM      3  C   UNL     1      -1.838  -2.201  -3.401  0.00  0.00    +0.102 C 
ATOM      4  C   UNL     1      -1.348  -3.457  -3.229  0.00  0.00    +0.252 C 
ATOM      5  O   UNL     1      -1.353  -4.335  -4.253  0.00  0.00    -0.270 OA
ATOM      6  N   UNL     1      -0.847  -3.823  -2.006  0.00  0.00    -0.263 N 
ATOM      7  C   UNL     1      -0.834  -2.947  -0.986  0.00  0.00    +0.145 C 
ATOM      8  S   UNL     1      -0.195  -3.432   0.527  0.00  0.00    -0.018 S 
ATOM      9  C   UNL     1      -2.452  -1.462  -4.567  0.00  0.00    +0.272 C 
ATOM     10  C   UNL     1      -2.749  -0.096  -3.980  0.00  0.00    +0.283 C 
ATOM     11  O   UNL     1      -3.256   0.846  -4.559  0.00  0.00    -0.270 OA
ATOM     12  N   UNL     1      -2.354  -0.123  -2.718  0.00  0.00    -0.162 NA
ATOM     13  H   UNL     1      -0.496  -4.718  -1.877  0.00  0.00    +0.157 HD
ENDROOT
BRANCH   9  14
ATOM     14  C   UNL     1      -3.741  -2.148  -5.025  0.00  0.00    +0.431 C 
ATOM     15  F   UNL     1      -4.659  -2.168  -3.970  0.00  0.00    -0.167 F 
ATOM     16  F   UNL     1      -4.286  -1.443  -6.104  0.00  0.00    -0.167 F 
ATOM     17  F   UNL     1      -3.456  -3.459  -5.421  0.00  0.00    -0.167 F 
ENDBRANCH   9  14
BRANCH   9  18
ATOM     18  O   UNL     1      -1.521  -1.357  -5.647  0.00  0.00    -0.368 OA
ATOM     19  H   UNL     1      -1.867  -0.891  -6.420  0.00  0.00    +0.212 HD
ENDBRANCH   9  18
BRANCH   1  20
ATOM     20  C   UNL     1      -1.293  -0.775   0.010  0.00  0.00    +0.140 C 
BRANCH  20  22
ATOM     21  C   UNL     1      -0.016   1.306   0.009  0.00  0.00    +0.005 C 
ATOM     22  C   UNL     1       0.002  -0.004   0.002  0.00  0.00    -0.015 C 
ENDBRANCH  20  22
ENDBRANCH   1  20
TORSDOF 4
