REMARK  Name = ZINC09324267
REMARK  5 active torsions:
REMARK  status: ('A' for Active; 'I' for Inactive)
REMARK    1  A    between atoms: C_10  and  N_11
REMARK    2  A    between atoms: C_12  and  C_14
REMARK    3  A    between atoms: C_14  and  S_15
REMARK    4  A    between atoms: S_15  and  C_16
REMARK    5  A    between atoms: N_24  and  C_25
REMARK                            x       y       z     vdW  Elec       q    Type
REMARK                         _______ _______ _______ _____ _____    ______ ____
ROOT
ATOM      1  C   UNL     1       5.543   7.900   0.748  0.00  0.00    +0.160 A 
ATOM      2  N   UNL     1       5.793   6.616   0.572  0.00  0.00    -0.133 NA
ATOM      3  N   UNL     1       4.750   5.723   0.480  0.00  0.00    -0.125 NA
ATOM      4  C   UNL     1       3.508   6.153   0.568  0.00  0.00    +0.190 A 
ATOM      5  S   UNL     1       3.757   7.909   0.786  0.00  0.00    -0.024 S 
ATOM      6  N   UNL     1       2.317   5.432   0.503  0.00  0.00    -0.247 N 
ATOM      7  C   UNL     1       2.348   4.097   0.326  0.00  0.00    +0.310 C 
ATOM      8  O   UNL     1       3.413   3.521   0.224  0.00  0.00    -0.252 OA
ATOM      9  N   UNL     1       1.196   3.399   0.263  0.00  0.00    -0.269 N 
ATOM     10  H   UNL     1       1.467   5.892   0.584  0.00  0.00    +0.158 HD
ATOM     11  H   UNL     1       0.345   3.866   0.268  0.00  0.00    +0.156 HD
ENDROOT
BRANCH   9  12
ATOM     12  C   UNL     1       1.227   2.002   0.190  0.00  0.00    +0.035 A 
ATOM     13  C   UNL     1       2.226   1.293   0.846  0.00  0.00    +0.025 A 
ATOM     14  C   UNL     1       2.254  -0.086   0.773  0.00  0.00    +0.022 A 
ATOM     15  C   UNL     1       1.289  -0.761   0.047  0.00  0.00    +0.041 A 
ATOM     16  C   UNL     1       0.292  -0.058  -0.607  0.00  0.00    +0.022 A 
ATOM     17  C   UNL     1       0.259   1.321  -0.537  0.00  0.00    +0.025 A 
ATOM     18 CL   UNL     1       1.328  -2.494  -0.043  0.00  0.00    -0.084 Cl
ENDBRANCH   9  12
BRANCH   1  19
ATOM     19  S   UNL     1       6.670   9.247   0.897  0.00  0.00    -0.088 S 
BRANCH  19  20
ATOM     20  C   UNL     1       8.303   8.470   0.753  0.00  0.00    +0.172 C 
BRANCH  20  22
ATOM     21  N   UNL     1      10.672   9.180   0.787  0.00  0.00    -0.284 N 
ATOM     22  C   UNL     1       9.372   9.526   0.866  0.00  0.00    +0.227 C 
ATOM     23  O   UNL     1       9.063  10.688   1.026  0.00  0.00    -0.275 OA
ATOM     24  H   UNL     1      10.919   8.264   0.580  0.00  0.00    +0.155 HD
BRANCH  21  34
ATOM     25  C   UNL     1      15.561   9.562  -0.408  0.00  0.00    +0.001 A 
ATOM     26  C   UNL     1      14.586   8.593  -0.634  0.00  0.00    +0.001 A 
ATOM     27  C   UNL     1      13.313   8.762  -0.183  0.00  0.00    +0.010 A 
ATOM     28  C   UNL     1      12.975   9.926   0.525  0.00  0.00    +0.003 A 
ATOM     29  C   UNL     1      13.965  10.914   0.752  0.00  0.00    -0.016 A 
ATOM     30  C   UNL     1      15.269  10.705   0.271  0.00  0.00    +0.008 A 
ATOM     31  C   UNL     1      13.627  12.081   1.457  0.00  0.00    +0.008 A 
ATOM     32  C   UNL     1      12.356  12.258   1.912  0.00  0.00    +0.002 A 
ATOM     33  C   UNL     1      11.374  11.296   1.691  0.00  0.00    +0.024 A 
ATOM     34  C   UNL     1      11.665  10.138   1.003  0.00  0.00    +0.041 A 
ENDBRANCH  21  34
ENDBRANCH  20  22
ENDBRANCH  19  20
ENDBRANCH   1  19
TORSDOF 5
