REMARK  Name = ZINC09259832
REMARK  6 active torsions:
REMARK  status: ('A' for Active; 'I' for Inactive)
REMARK    1  A    between atoms: C_4  and  N_7
REMARK    2  A    between atoms: C_8  and  C_10
REMARK    3  A    between atoms: C_10  and  N_11
REMARK    4  A    between atoms: C_15  and  C_16
REMARK    5  A    between atoms: N_18  and  C_25
REMARK    6  A    between atoms: C_25  and  C_26
REMARK                            x       y       z     vdW  Elec       q    Type
REMARK                         _______ _______ _______ _____ _____    ______ ____
ROOT
ATOM      1  N   UNL     1       1.405  -4.016   4.720  0.00  0.00    -0.219 N 
ATOM      2  C   UNL     1       1.265  -3.733   3.436  0.00  0.00    +0.261 C 
ATOM      3  O   UNL     1       1.406  -2.595   3.025  0.00  0.00    -0.269 OA
ATOM      4  C   UNL     1       0.943  -4.801   2.546  0.00  0.00    +0.080 C 
ATOM      5  C   UNL     1       0.748  -4.777   1.199  0.00  0.00    +0.030 C 
ATOM      6  S   UNL     1       0.859  -6.179   3.683  0.00  0.00    -0.026 S 
ATOM      7  C   UNL     1       1.249  -5.278   5.175  0.00  0.00    +0.286 C 
ATOM      8  O   UNL     1       1.344  -5.695   6.314  0.00  0.00    -0.262 OA
ENDROOT
BRANCH   5   9
ATOM      9  C   UNL     1       1.036  -3.560   0.440  0.00  0.00    +0.001 A 
ATOM     10  C   UNL     1       2.046  -2.669   0.674  0.00  0.00    +0.095 A 
ATOM     11  N   UNL     1       1.991  -1.666  -0.239  0.00  0.00    -0.337 N 
ATOM     12  C   UNL     1       0.935  -1.861  -1.106  0.00  0.00    +0.050 A 
ATOM     13  C   UNL     1       0.293  -3.051  -0.729  0.00  0.00    +0.007 A 
ATOM     14  C   UNL     1      -0.817  -3.501  -1.439  0.00  0.00    +0.010 A 
ATOM     15  C   UNL     1      -1.286  -2.768  -2.507  0.00  0.00    +0.001 A 
ATOM     16  C   UNL     1      -0.651  -1.593  -2.883  0.00  0.00    +0.002 A 
ATOM     17  C   UNL     1       0.451  -1.139  -2.191  0.00  0.00    +0.026 A 
BRANCH  11  18
ATOM     18  C   UNL     1       2.919  -0.533  -0.292  0.00  0.00    +0.217 C 
BRANCH  18  19
ATOM     19  C   UNL     1       2.327   0.636   0.451  0.00  0.00    +0.230 C 
ATOM     20  O   UNL     1       1.237   0.533   0.974  0.00  0.00    -0.274 OA
ATOM     21  N   UNL     1       3.008   1.796   0.535  0.00  0.00    -0.328 N 
ATOM     22  H   UNL     1       3.879   1.878   0.116  0.00  0.00    +0.145 HD
ATOM     23  H   UNL     1       2.625   2.550   1.010  0.00  0.00    +0.145 HD
ENDBRANCH  18  19
ENDBRANCH  11  18
ENDBRANCH   5   9
BRANCH   1  24
ATOM     24  C   UNL     1       1.736  -2.944   5.662  0.00  0.00    +0.213 C 
BRANCH  24  26
ATOM     25  N   UNL     1       0.524  -1.318   7.079  0.00  0.00    -0.284 N 
ATOM     26  C   UNL     1       0.465  -2.330   6.191  0.00  0.00    +0.235 C 
ATOM     27  O   UNL     1      -0.611  -2.747   5.817  0.00  0.00    -0.274 OA
ATOM     28  H   UNL     1       1.381  -0.934   7.321  0.00  0.00    +0.155 HD
BRANCH  25  32
ATOM     29  C   UNL     1      -2.976   0.160   8.787  0.00  0.00    +0.000 A 
ATOM     30  C   UNL     1      -2.881  -1.180   8.461  0.00  0.00    +0.002 A 
ATOM     31  C   UNL     1      -1.722  -1.673   7.895  0.00  0.00    +0.023 A 
ATOM     32  C   UNL     1      -0.652  -0.822   7.653  0.00  0.00    +0.033 A 
ATOM     33  C   UNL     1      -0.749   0.523   7.987  0.00  0.00    +0.023 A 
ATOM     34  C   UNL     1      -1.913   1.011   8.548  0.00  0.00    +0.002 A 
ENDBRANCH  25  32
ENDBRANCH  24  26
ENDBRANCH   1  24
TORSDOF 6
