REMARK  Name = ZINC13136611
REMARK  7 active torsions:
REMARK  status: ('A' for Active; 'I' for Inactive)
REMARK    1  A    between atoms: C_4  and  N_7
REMARK    2  A    between atoms: N_7  and  C_8
REMARK    3  A    between atoms: C_9  and  C_26
REMARK    4  A    between atoms: C_12  and  C_15
REMARK    5  A    between atoms: N_17  and  C_18
REMARK    6  A    between atoms: C_23  and  C_24
REMARK    7  A    between atoms: N_28  and  C_29
REMARK                            x       y       z     vdW  Elec       q    Type
REMARK                         _______ _______ _______ _____ _____    ______ ____
ROOT
ATOM      1  C   UNL     1       4.289  -2.933  -0.505  0.00  0.00    +0.081 C 
ATOM      2  C   UNL     1       5.220  -3.748   0.137  0.00  0.00    +0.087 C 
ATOM      3  C   UNL     1       4.792  -5.000   0.710  0.00  0.00    +0.069 C 
ATOM      4  N   UNL     1       5.605  -5.808   1.323  0.00  0.00    -0.302 NA
ATOM      5  C   UNL     1       3.315  -5.295   0.539  0.00  0.00    +0.187 C 
ATOM      6  S   UNL     1       2.742  -3.808  -0.373  0.00  0.00    -0.090 S 
ATOM      7  H   UNL     1       6.556  -5.615   1.345  0.00  0.00    +0.186 HD
ENDROOT
BRANCH   5   8
ATOM      8  C   UNL     1       3.105  -6.547  -0.273  0.00  0.00    +0.236 C 
ATOM      9  O   UNL     1       3.915  -6.865  -1.117  0.00  0.00    -0.274 OA
ATOM     10  N   UNL     1       2.017  -7.314  -0.060  0.00  0.00    -0.283 N 
ATOM     11  H   UNL     1       1.341  -7.031   0.577  0.00  0.00    +0.155 HD
BRANCH  10  12
ATOM     12  C   UNL     1       1.863  -8.513  -0.753  0.00  0.00    +0.051 A 
ATOM     13  C   UNL     1       2.412  -8.662  -2.019  0.00  0.00    +0.024 A 
ATOM     14  C   UNL     1       2.258  -9.851  -2.705  0.00  0.00    +0.002 A 
ATOM     15  C   UNL     1       1.556 -10.901  -2.137  0.00  0.00    +0.001 A 
ATOM     16  C   UNL     1       1.003 -10.771  -0.881  0.00  0.00    +0.021 A 
ATOM     17  C   UNL     1       1.156  -9.577  -0.173  0.00  0.00    +0.073 A 
BRANCH  17  18
ATOM     18  C   UNL     1       0.590  -9.438   1.135  0.00  0.00    +0.101 C 
ATOM     19  N   UNL     1       0.140  -9.327   2.172  0.00  0.00    -0.191 NA
ENDBRANCH  17  18
ENDBRANCH  10  12
ENDBRANCH   5   8
BRANCH   2  20
ATOM     20  C   UNL     1       6.578  -3.349   0.226  0.00  0.00    +0.252 C 
ATOM     21  O   UNL     1       7.404  -3.825  -0.532  0.00  0.00    -0.270 OA
ATOM     22  N   UNL     1       6.955  -2.443   1.150  0.00  0.00    -0.281 N 
ATOM     23  H   UNL     1       6.320  -2.137   1.817  0.00  0.00    +0.155 HD
BRANCH  22  24
ATOM     24  C   UNL     1       8.262  -1.944   1.148  0.00  0.00    +0.034 A 
ATOM     25  C   UNL     1       8.937  -1.766  -0.052  0.00  0.00    +0.025 A 
ATOM     26  C   UNL     1      10.226  -1.272  -0.052  0.00  0.00    +0.022 A 
ATOM     27  C   UNL     1      10.846  -0.955   1.144  0.00  0.00    +0.041 A 
ATOM     28  C   UNL     1      10.176  -1.131   2.342  0.00  0.00    +0.022 A 
ATOM     29  C   UNL     1       8.884  -1.619   2.347  0.00  0.00    +0.025 A 
ATOM     30 CL   UNL     1      12.468  -0.335   1.142  0.00  0.00    -0.084 Cl
ENDBRANCH  22  24
ENDBRANCH   2  20
BRANCH   1  31
ATOM     31  N   UNL     1       4.513  -1.724  -1.101  0.00  0.00    -0.309 N 
ATOM     32  H   UNL     1       5.386  -1.306  -1.037  0.00  0.00    +0.153 HD
BRANCH  31  36
ATOM     33  C   UNL     1       1.447   0.168  -3.192  0.00  0.00    +0.000 A 
ATOM     34  C   UNL     1       2.351   0.919  -2.464  0.00  0.00    +0.002 A 
ATOM     35  C   UNL     1       3.369   0.295  -1.769  0.00  0.00    +0.023 A 
ATOM     36  C   UNL     1       3.483  -1.089  -1.803  0.00  0.00    +0.032 A 
ATOM     37  C   UNL     1       2.574  -1.841  -2.535  0.00  0.00    +0.023 A 
ATOM     38  C   UNL     1       1.559  -1.210  -3.228  0.00  0.00    +0.002 A 
ENDBRANCH  31  36
ENDBRANCH   1  31
TORSDOF 7
