REMARK  Name = ZINC01481839
REMARK  4 active torsions:
REMARK  status: ('A' for Active; 'I' for Inactive)
REMARK    1  A    between atoms: C_1  and  C_2
REMARK    2  A    between atoms: C_2  and  C_3
REMARK    3  A    between atoms: C_9  and  S_16
REMARK    4  A    between atoms: S_16  and  N_19
REMARK                            x       y       z     vdW  Elec       q    Type
REMARK                         _______ _______ _______ _____ _____    ______ ____
ROOT
ATOM      1  C   UNL     1       0.742  -0.511   1.242  0.00  0.00    +0.159 C 
ATOM      2  N   UNL     1       2.115  -0.013   1.230  0.00  0.00    -0.326 N 
ATOM      3  C   UNL     1       3.080  -0.448   0.325  0.00  0.00    +0.056 A 
ATOM      4  C   UNL     1       4.183   0.366   0.075  0.00  0.00    +0.047 A 
ATOM      5  C   UNL     1       5.164  -0.044  -0.804  0.00  0.00    +0.069 A 
ATOM      6  C   UNL     1       5.061  -1.268  -1.443  0.00  0.00    +0.125 A 
ATOM      7  C   UNL     1       3.966  -2.079  -1.204  0.00  0.00    +0.060 A 
ATOM      8  C   UNL     1       2.979  -1.667  -0.332  0.00  0.00    +0.128 A 
ATOM      9  S   UNL     1       1.563  -2.689  -0.061  0.00  0.00    +0.062 S 
ATOM     10  O   UNL     1       0.719  -2.538  -1.195  0.00  0.00    -0.153 OA
ATOM     11  O   UNL     1       2.041  -3.953   0.379  0.00  0.00    -0.153 OA
ATOM     12  N   UNL     1       0.770  -1.988   1.232  0.00  0.00    -0.170 NA
ATOM     13 CL   UNL     1       6.533   0.979  -1.111  0.00  0.00    -0.081 Cl
ATOM     14  H   UNL     1       2.368   0.655   1.886  0.00  0.00    +0.148 HD
ATOM     15  H   UNL     1       0.358  -2.515   1.934  0.00  0.00    +0.150 HD
ENDROOT
BRANCH   6  16
ATOM     16  S   UNL     1       6.321  -1.792  -2.557  0.00  0.00    +0.057 S 
ATOM     17  O   UNL     1       7.560  -1.598  -1.889  0.00  0.00    -0.153 OA
ATOM     18  O   UNL     1       5.917  -3.058  -3.061  0.00  0.00    -0.153 OA
BRANCH  16  19
ATOM     19  N   UNL     1       6.306  -0.745  -3.840  0.00  0.00    -0.203 NA
ATOM     20  H   UNL     1       7.126  -0.561  -4.325  0.00  0.00    +0.144 HD
ATOM     21  H   UNL     1       5.478  -0.315  -4.106  0.00  0.00    +0.144 HD
ENDBRANCH  16  19
ENDBRANCH   6  16
BRANCH   1  23
ATOM     22  C   UNL     1      -0.019   1.526   0.010  0.00  0.00    +0.007 C 
ATOM     23  C   UNL     1       0.002  -0.004   0.002  0.00  0.00    +0.036 C 
ENDBRANCH   1  23
TORSDOF 3
