REMARK  Name = ZINC09157204
REMARK  6 active torsions:
REMARK  status: ('A' for Active; 'I' for Inactive)
REMARK    1  A    between atoms: C_1  and  C_2
REMARK    2  A    between atoms: C_2  and  C_4
REMARK    3  A    between atoms: C_2  and  N_18
REMARK    4  A    between atoms: N_6  and  C_7
REMARK    5  A    between atoms: C_8  and  C_15
REMARK    6  A    between atoms: N_18  and  C_19
REMARK                            x       y       z     vdW  Elec       q    Type
REMARK                         _______ _______ _______ _____ _____    ______ ____
ROOT
ATOM      1  C   UNL     1      -2.257   2.497  -3.496  0.00  0.00    +0.238 C 
ATOM      2  O   UNL     1      -3.300   3.079  -3.285  0.00  0.00    -0.273 OA
ATOM      3  N   UNL     1      -1.504   2.067  -2.463  0.00  0.00    -0.278 N 
ATOM      4  H   UNL     1      -0.670   1.602  -2.632  0.00  0.00    +0.155 HD
ENDROOT
BRANCH   3   5
ATOM      5  C   UNL     1      -1.923   2.290  -1.160  0.00  0.00    +0.084 A 
ATOM      6  C   UNL     1      -1.294   1.929   0.019  0.00  0.00    +0.068 A 
ATOM      7  C   UNL     1      -1.949   2.292   1.275  0.00  0.00    -0.023 A 
ATOM      8  C   UNL     1      -3.116   2.947   1.141  0.00  0.00    -0.004 A 
ATOM      9  S   UNL     1      -3.359   3.086  -0.613  0.00  0.00    -0.077 S 
ATOM     10  C   UNL     1      -3.727   3.290   2.473  0.00  0.00    +0.043 C 
ATOM     11  C   UNL     1      -2.568   3.137   3.483  0.00  0.00    +0.010 C 
ATOM     12  C   UNL     1      -1.659   2.119   2.766  0.00  0.00    +0.037 C 
BRANCH   6  13
ATOM     13  C   UNL     1      -0.014   1.213   0.009  0.00  0.00    +0.244 C 
ATOM     14  O   UNL     1       0.002  -0.004   0.002  0.00  0.00    -0.270 OA
ATOM     15  N   UNL     1       1.143   1.903   0.001  0.00  0.00    -0.325 N 
ATOM     16  H   UNL     1       1.990   1.429  -0.009  0.00  0.00    +0.145 HD
ATOM     17  H   UNL     1       1.130   2.873   0.007  0.00  0.00    +0.145 HD
ENDBRANCH   6  13
ENDBRANCH   3   5
BRANCH   1  19
ATOM     18  C   UNL     1      -1.668   0.750  -5.154  0.00  0.00    +0.038 C 
ATOM     19  C   UNL     1      -1.803   2.255  -4.912  0.00  0.00    +0.154 C 
BRANCH  19  20
ATOM     20  N   UNL     1      -2.787   2.813  -5.843  0.00  0.00    -0.333 N 
ATOM     21  H   UNL     1      -3.710   2.920  -5.566  0.00  0.00    +0.147 HD
BRANCH  20  22
ATOM     22  C   UNL     1      -2.395   3.191  -7.130  0.00  0.00    +0.028 A 
ATOM     23  C   UNL     1      -1.072   3.043  -7.526  0.00  0.00    +0.024 A 
ATOM     24  C   UNL     1      -0.689   3.413  -8.800  0.00  0.00    +0.017 A 
ATOM     25  C   UNL     1      -1.619   3.940  -9.678  0.00  0.00    +0.018 A 
ATOM     26  C   UNL     1      -2.937   4.093  -9.284  0.00  0.00    +0.017 A 
ATOM     27  C   UNL     1      -3.327   3.720  -8.013  0.00  0.00    +0.024 A 
ATOM     28 BR   UNL     1      -1.089   4.452 -11.420  0.00  0.00    -0.050 Br
ENDBRANCH  20  22
ENDBRANCH  19  20
ENDBRANCH   1  19
TORSDOF 5
