REMARK  Name = ZINC21075815
REMARK  13 active torsions:
REMARK  status: ('A' for Active; 'I' for Inactive)
REMARK    1  A    between atoms: C_1  and  C_2
REMARK    2  A    between atoms: C_2  and  C_3
REMARK    3  A    between atoms: C_2  and  C_4
REMARK    4  A    between atoms: C_2  and  C_5
REMARK    5  A    between atoms: C_8  and  N_11
REMARK    6  A    between atoms: C_12  and  C_14
REMARK    7  A    between atoms: C_14  and  S_15
REMARK    8  A    between atoms: S_15  and  C_16
REMARK    9  A    between atoms: N_21  and  N_22
REMARK   10  A    between atoms: C_23  and  C_24
REMARK   11  A    between atoms: C_28  and  C_31
REMARK   12  A    between atoms: C_29  and  O_30
REMARK   13  A    between atoms: C_31  and  C_32
REMARK                            x       y       z     vdW  Elec       q    Type
REMARK                         _______ _______ _______ _____ _____    ______ ____
ROOT
ATOM      1  C   UNL     1       5.521   7.650  -0.023  0.00  0.00    +0.211 A 
ATOM      2  N   UNL     1       5.952   6.354  -0.034  0.00  0.00    -0.186 NA
ATOM      3  C   UNL     1       4.851   5.543  -0.038  0.00  0.00    +0.232 A 
ATOM      4  N   UNL     1       3.785   6.306  -0.035  0.00  0.00    -0.245 N 
ATOM      5  N   UNL     1       4.209   7.641  -0.019  0.00  0.00    -0.144 NA
ATOM      6  N   UNL     1       4.861   4.155  -0.049  0.00  0.00    -0.205 N 
ATOM      7  H   UNL     1       5.818   3.612  -0.056  0.00  0.00    +0.177 HD
ATOM      8  H   UNL     1       2.784   5.851  -0.044  0.00  0.00    +0.192 HD
ENDROOT
BRANCH   6   9
ATOM      9  N   UNL     1       3.653   3.446  -0.051  0.00  0.00    -0.187 NA
ATOM     10  C   UNL     1       3.662   2.148  -0.061  0.00  0.00    +0.142 C 
BRANCH  10  11
ATOM     11  C   UNL     1       2.391   1.402  -0.064  0.00  0.00    +0.036 A 
ATOM     12  C   UNL     1       2.397   0.005  -0.075  0.00  0.00    +0.013 A 
ATOM     13  C   UNL     1       1.204  -0.687  -0.077  0.00  0.00    +0.001 A 
ATOM     14  C   UNL     1       0.000  -0.003  -0.069  0.00  0.00    +0.007 A 
ATOM     15  C   UNL     1      -0.018   1.379  -0.058  0.00  0.00    -0.002 A 
ATOM     16  C   UNL     1       1.170   2.090  -0.055  0.00  0.00    +0.129 A 
BRANCH  16  17
ATOM     17  O   UNL     1       1.153   3.448  -0.044  0.00  0.00    -0.506 OA
ATOM     18  H   UNL     1       0.193   3.986  -0.037  0.00  0.00    +0.292 HD
ENDBRANCH  16  17
BRANCH  15  19
ATOM     19  C   UNL     1      -1.334   2.114  -0.055  0.00  0.00    +0.065 C 
BRANCH  19  20
ATOM     20  C   UNL     1      -1.709   2.478  -1.468  0.00  0.00    -0.030 C 
ATOM     21  C   UNL     1      -2.869   2.110  -1.954  0.00  0.00    +0.004 C 
ENDBRANCH  19  20
ENDBRANCH  15  19
ENDBRANCH  10  11
ENDBRANCH   6   9
BRANCH   1  22
ATOM     22  S   UNL     1       6.546   9.083  -0.013  0.00  0.00    -0.075 S 
BRANCH  22  23
ATOM     23  C   UNL     1       5.370  10.464   0.000  0.00  0.00    +0.173 C 
BRANCH  23  25
ATOM     24  N   UNL     1       5.455  12.936   0.020  0.00  0.00    -0.285 N 
ATOM     25  C   UNL     1       6.127  11.768   0.009  0.00  0.00    +0.227 C 
ATOM     26  O   UNL     1       7.340  11.765   0.006  0.00  0.00    -0.275 OA
ATOM     27  H   UNL     1       4.358  12.941  -0.055  0.00  0.00    +0.155 HD
BRANCH  24  31
ATOM     28  C   UNL     1       7.537  16.532   0.335  0.00  0.00    -0.042 A 
ATOM     29  C   UNL     1       8.086  15.476  -0.370  0.00  0.00    +0.006 A 
ATOM     30  C   UNL     1       7.398  14.283  -0.476  0.00  0.00    +0.023 A 
ATOM     31  C   UNL     1       6.154  14.144   0.126  0.00  0.00    +0.033 A 
ATOM     32  C   UNL     1       5.603  15.208   0.828  0.00  0.00    +0.023 A 
ATOM     33  C   UNL     1       6.299  16.396   0.936  0.00  0.00    +0.006 A 
BRANCH  28  35
ATOM     34  C   UNL     1       8.531  18.406  -0.949  0.00  0.00    +0.015 C 
ATOM     35  C   UNL     1       8.290  17.832   0.449  0.00  0.00    -0.013 C 
ATOM     36  C   UNL     1       7.469  18.826   1.273  0.00  0.00    +0.015 C 
ATOM     37  C   UNL     1       9.633  17.585   1.138  0.00  0.00    +0.015 C 
ENDBRANCH  28  35
ENDBRANCH  24  31
ENDBRANCH  23  25
ENDBRANCH  22  23
ENDBRANCH   1  22
TORSDOF 10
