REMARK  Name = ZINC28992707
REMARK  16 active torsions:
REMARK  status: ('A' for Active; 'I' for Inactive)
REMARK    1  A    between atoms: C_1  and  C_2
REMARK    2  A    between atoms: C_2  and  C_3
REMARK    3  A    between atoms: C_3  and  C_5
REMARK    4  A    between atoms: C_3  and  C_6
REMARK    5  A    between atoms: C_9  and  C_12
REMARK    6  A    between atoms: C_12  and  C_14
REMARK    7  A    between atoms: C_12  and  N_17
REMARK    8  A    between atoms: C_14  and  C_15
REMARK    9  A    between atoms: C_14  and  C_16
REMARK   10  A    between atoms: C_18  and  C_20
REMARK   11  A    between atoms: C_20  and  C_21
REMARK   12  A    between atoms: C_21  and  N_22
REMARK   13  A    between atoms: N_22  and  C_23
REMARK   14  A    between atoms: C_26  and  S_32
REMARK   15  A    between atoms: C_28  and  N_29
REMARK   16  A    between atoms: S_32  and  N_35
REMARK                            x       y       z     vdW  Elec       q    Type
REMARK                         _______ _______ _______ _____ _____    ______ ____
ROOT
ATOM      1  C   UNL     1      -4.141  -8.863  -2.085  0.00  0.00    +0.114 C 
ENDROOT
BRANCH   1   3
ATOM      2  N   UNL     1      -2.237  -7.303  -2.329  0.00  0.00    -0.308 N 
ATOM      3  C   UNL     1      -2.710  -8.463  -1.833  0.00  0.00    +0.215 C 
ATOM      4  O   UNL     1      -1.984  -9.185  -1.182  0.00  0.00    -0.276 OA
ATOM      5  H   UNL     1      -2.818  -6.725  -2.849  0.00  0.00    +0.149 HD
BRANCH   2   6
ATOM      6  C   UNL     1      -0.847  -6.914  -2.084  0.00  0.00    +0.106 C 
BRANCH   6  10
ATOM      7  C   UNL     1      -0.491  -2.664  -2.330  0.00  0.00    -0.045 A 
ATOM      8  C   UNL     1       0.199  -3.360  -1.355  0.00  0.00    +0.004 A 
ATOM      9  C   UNL     1       0.084  -4.735  -1.275  0.00  0.00    +0.006 A 
ATOM     10  C   UNL     1      -0.722  -5.414  -2.170  0.00  0.00    -0.027 A 
ATOM     11  C   UNL     1      -1.412  -4.718  -3.145  0.00  0.00    +0.006 A 
ATOM     12  C   UNL     1      -1.300  -3.342  -3.222  0.00  0.00    +0.004 A 
BRANCH   7  13
ATOM     13  C   UNL     1      -0.365  -1.165  -2.417  0.00  0.00    +0.016 C 
ATOM     14  C   UNL     1      -0.836  -0.536  -1.104  0.00  0.00    +0.012 C 
BRANCH  13  16
ATOM     15  C   UNL     1       1.206   0.722  -2.879  0.00  0.00    +0.004 C 
ATOM     16  C   UNL     1       1.097  -0.789  -2.666  0.00  0.00    +0.004 C 
ENDBRANCH  13  16
ENDBRANCH   7  13
ENDBRANCH   6  10
BRANCH   6  17
ATOM     17  C   UNL     1       0.058  -7.562  -3.134  0.00  0.00    +0.008 C 
ATOM     18  C   UNL     1       1.510  -7.156  -2.878  0.00  0.00    +0.009 C 
ATOM     19  C   UNL     1      -0.069  -9.084  -3.046  0.00  0.00    +0.009 C 
ENDBRANCH   6  17
ENDBRANCH   2   6
ENDBRANCH   1   3
BRANCH   1  20
ATOM     20  C   UNL     1      -4.419 -10.211  -1.417  0.00  0.00    +0.111 C 
BRANCH  20  21
ATOM     21  N   UNL     1      -5.810 -10.600  -1.663  0.00  0.00    -0.342 N 
ATOM     22  H   UNL     1      -6.390 -10.023  -2.183  0.00  0.00    +0.146 HD
BRANCH  21  23
ATOM     23  C   UNL     1      -6.300 -11.803  -1.148  0.00  0.00    +0.058 A 
ATOM     24  C   UNL     1      -5.441 -12.688  -0.508  0.00  0.00    +0.027 A 
ATOM     25  C   UNL     1      -5.929 -13.875   0.000  0.00  0.00    +0.030 A 
ATOM     26  C   UNL     1      -7.271 -14.184  -0.127  0.00  0.00    +0.107 A 
ATOM     27  C   UNL     1      -8.128 -13.306  -0.764  0.00  0.00    +0.063 A 
ATOM     28  C   UNL     1      -7.648 -12.114  -1.269  0.00  0.00    +0.149 A 
BRANCH  28  29
ATOM     29  N   UNL     1      -8.568 -11.172  -1.945  0.00  0.00    +0.058 N 
ATOM     30  O   UNL     1      -8.429  -9.980  -1.797  0.00  0.00    -0.126 OA
ATOM     31  O   UNL     1      -9.458 -11.594  -2.646  0.00  0.00    -0.126 OA
ENDBRANCH  28  29
BRANCH  26  32
ATOM     32  S   UNL     1      -7.889 -15.701   0.523  0.00  0.00    +0.056 S 
ATOM     33  O   UNL     1      -9.072 -16.003  -0.205  0.00  0.00    -0.153 OA
ATOM     34  O   UNL     1      -6.786 -16.594   0.588  0.00  0.00    -0.153 OA
BRANCH  32  35
ATOM     35  N   UNL     1      -8.356 -15.410   2.085  0.00  0.00    -0.204 NA
ATOM     36  H   UNL     1      -9.082 -15.920   2.477  0.00  0.00    +0.144 HD
ATOM     37  H   UNL     1      -7.904 -14.729   2.607  0.00  0.00    +0.144 HD
ENDBRANCH  32  35
ENDBRANCH  26  32
ENDBRANCH  21  23
ENDBRANCH  20  21
ENDBRANCH   1  20
TORSDOF 12
