REMARK  Name = ZINC03670537
REMARK  9 active torsions:
REMARK  status: ('A' for Active; 'I' for Inactive)
REMARK    1  A    between atoms: C_1  and  C_2
REMARK    2  A    between atoms: C_2  and  O_3
REMARK    3  A    between atoms: O_3  and  C_4
REMARK    4  A    between atoms: C_4  and  C_5
REMARK    5  A    between atoms: C_5  and  C_6
REMARK    6  A    between atoms: C_6  and  N_7
REMARK    7  A    between atoms: C_8  and  C_10
REMARK    8  A    between atoms: C_10  and  O_29
REMARK    9  A    between atoms: N_20  and  C_21
REMARK                            x       y       z     vdW  Elec       q    Type
REMARK                         _______ _______ _______ _____ _____    ______ ____
ROOT
ATOM      1  C   UNL     1      -2.497   4.771   0.477  0.00  0.00    +0.247 C 
ATOM      2  C   UNL     1      -1.203   3.993   0.429  0.00  0.00    +0.034 A 
ATOM      3  C   UNL     1      -1.152   2.667   0.795  0.00  0.00    +0.025 A 
ATOM      4  C   UNL     1       0.054   1.987   0.744  0.00  0.00    +0.018 A 
ATOM      5  C   UNL     1       1.198   2.637   0.316  0.00  0.00    +0.017 A 
ATOM      6  C   UNL     1       1.147   3.966  -0.057  0.00  0.00    +0.025 A 
ATOM      7  C   UNL     1      -0.058   4.654  -0.002  0.00  0.00    +0.043 A 
ATOM      8  N   UNL     1      -0.130   5.997  -0.374  0.00  0.00    -0.269 N 
ATOM      9  C   UNL     1      -1.267   6.703  -0.338  0.00  0.00    +0.314 C 
ATOM     10  O   UNL     1      -1.236   7.869  -0.681  0.00  0.00    -0.252 OA
ATOM     11  N   UNL     1      -2.442   6.182   0.059  0.00  0.00    -0.214 N 
ATOM     12 BR   UNL     1       0.135   0.167   1.251  0.00  0.00    -0.050 Br
ATOM     13  H   UNL     1       0.681   6.439  -0.672  0.00  0.00    +0.156 HD
ENDROOT
BRANCH  11  14
ATOM     14  C   UNL     1      -3.598   6.971   0.073  0.00  0.00    +0.041 A 
ATOM     15  C   UNL     1      -4.466   6.954  -1.010  0.00  0.00    +0.025 A 
ATOM     16  C   UNL     1      -5.608   7.731  -0.992  0.00  0.00    +0.022 A 
ATOM     17  C   UNL     1      -5.883   8.533   0.102  0.00  0.00    +0.041 A 
ATOM     18  C   UNL     1      -5.017   8.555   1.181  0.00  0.00    +0.022 A 
ATOM     19  C   UNL     1      -3.876   7.777   1.170  0.00  0.00    +0.025 A 
ATOM     20 CL   UNL     1      -7.315   9.513   0.120  0.00  0.00    -0.084 Cl
ENDBRANCH  11  14
BRANCH   1  22
ATOM     21  N   UNL     1      -2.319   5.315   2.883  0.00  0.00    -0.311 N 
ATOM     22  C   UNL     1      -3.015   4.725   1.891  0.00  0.00    +0.269 C 
ATOM     23  O   UNL     1      -4.059   4.158   2.137  0.00  0.00    -0.270 OA
ATOM     24  H   UNL     1      -1.485   5.769   2.687  0.00  0.00    +0.149 HD
BRANCH  21  25
ATOM     25  C   UNL     1      -2.823   5.271   4.258  0.00  0.00    +0.106 C 
BRANCH  25  26
ATOM     26  C   UNL     1      -1.851   6.010   5.181  0.00  0.00    +0.047 C 
BRANCH  26  27
ATOM     27  C   UNL     1      -2.377   5.963   6.617  0.00  0.00    +0.161 C 
BRANCH  27  28
ATOM     28  O   UNL     1      -1.470   6.653   7.479  0.00  0.00    -0.380 OA
BRANCH  28  30
ATOM     29  C   UNL     1      -0.830   7.430   9.676  0.00  0.00    +0.034 C 
ATOM     30  C   UNL     1      -1.870   6.669   8.851  0.00  0.00    +0.156 C 
ENDBRANCH  28  30
ENDBRANCH  27  28
ENDBRANCH  26  27
ENDBRANCH  25  26
ENDBRANCH  21  25
ENDBRANCH   1  22
BRANCH   1  31
ATOM     31  O   UNL     1      -3.445   4.101  -0.356  0.00  0.00    -0.360 OA
ATOM     32  H   UNL     1      -3.633   3.192  -0.086  0.00  0.00    +0.213 HD
ENDBRANCH   1  31
TORSDOF 8
