REMARK  Name = ZINC20414247
REMARK  8 active torsions:
REMARK  status: ('A' for Active; 'I' for Inactive)
REMARK    1  A    between atoms: C_4  and  O_32
REMARK    2  A    between atoms: C_5  and  C_7
REMARK    3  A    between atoms: C_8  and  C_9
REMARK    4  A    between atoms: N_11  and  C_22
REMARK    5  A    between atoms: C_12  and  C_15
REMARK    6  A    between atoms: C_20  and  O_21
REMARK    7  A    between atoms: C_25  and  S_28
REMARK    8  A    between atoms: S_28  and  N_31
REMARK                            x       y       z     vdW  Elec       q    Type
REMARK                         _______ _______ _______ _____ _____    ______ ____
ROOT
ATOM      1  C   UNL     1      -2.546   4.167   0.037  0.00  0.00    +0.062 C 
ATOM      2  N   UNL     1      -3.716   3.614   0.040  0.00  0.00    -0.184 NA
ATOM      3  N   UNL     1      -4.772   4.522   0.051  0.00  0.00    -0.216 N 
ATOM      4  C   UNL     1      -4.226   5.889   0.055  0.00  0.00    +0.137 C 
ATOM      5  C   UNL     1      -2.701   5.671   0.052  0.00  0.00    +0.086 C 
ENDROOT
BRANCH   4   6
ATOM      6  C   UNL     1      -4.652   6.625   1.299  0.00  0.00    +0.017 A 
ATOM      7  C   UNL     1      -5.014   5.920   2.431  0.00  0.00    +0.009 A 
ATOM      8  C   UNL     1      -5.401   6.595   3.574  0.00  0.00    +0.001 A 
ATOM      9  C   UNL     1      -5.436   7.977   3.584  0.00  0.00    +0.004 A 
ATOM     10  C   UNL     1      -5.080   8.687   2.454  0.00  0.00    +0.046 A 
ATOM     11  C   UNL     1      -4.687   8.012   1.307  0.00  0.00    +0.122 A 
BRANCH  11  12
ATOM     12  O   UNL     1      -4.337   8.708   0.194  0.00  0.00    -0.506 OA
ATOM     13  H   UNL     1      -4.365   9.808   0.202  0.00  0.00    +0.292 HD
ENDBRANCH  11  12
ENDBRANCH   4   6
BRANCH   3  14
ATOM     14  C   UNL     1      -6.127   4.191   0.056  0.00  0.00    +0.052 A 
ATOM     15  C   UNL     1      -7.090   5.193   0.073  0.00  0.00    +0.027 A 
ATOM     16  C   UNL     1      -8.430   4.861   0.074  0.00  0.00    +0.030 A 
ATOM     17  C   UNL     1      -8.815   3.532   0.069  0.00  0.00    +0.105 A 
ATOM     18  C   UNL     1      -7.860   2.532   0.057  0.00  0.00    +0.030 A 
ATOM     19  C   UNL     1      -6.518   2.857   0.051  0.00  0.00    +0.027 A 
BRANCH  17  20
ATOM     20  S   UNL     1     -10.526   3.113   0.077  0.00  0.00    +0.056 S 
ATOM     21  O   UNL     1     -11.220   4.229  -0.463  0.00  0.00    -0.153 OA
ATOM     22  O   UNL     1     -10.628   1.810  -0.481  0.00  0.00    -0.153 OA
BRANCH  20  23
ATOM     23  N   UNL     1     -10.992   2.987   1.661  0.00  0.00    -0.204 NA
ATOM     24  H   UNL     1     -12.059   2.725   1.710  0.00  0.00    +0.144 HD
ATOM     25  H   UNL     1     -10.826   3.949   2.170  0.00  0.00    +0.144 HD
ENDBRANCH  20  23
ENDBRANCH  17  20
ENDBRANCH   3  14
BRANCH   1  27
ATOM     26  C   UNL     1      -1.298   2.121   0.020  0.00  0.00    +0.013 C 
ATOM     27  C   UNL     1      -1.312   3.471   0.027  0.00  0.00    +0.025 C 
BRANCH  26  32
ATOM     28  C   UNL     1       2.386   1.422  -0.013  0.00  0.00    +0.001 A 
ATOM     29  C   UNL     1       2.400   0.037  -0.021  0.00  0.00    +0.004 A 
ATOM     30  C   UNL     1       1.214  -0.674  -0.013  0.00  0.00    +0.046 A 
ATOM     31  C   UNL     1       0.002  -0.004   0.002  0.00  0.00    +0.124 A 
ATOM     32  C   UNL     1      -0.017   1.399   0.010  0.00  0.00    +0.016 A 
ATOM     33  C   UNL     1       1.189   2.106   0.002  0.00  0.00    +0.011 A 
BRANCH  31  34
ATOM     34  O   UNL     1      -1.163  -0.702   0.009  0.00  0.00    -0.506 OA
ATOM     35  H   UNL     1      -2.124  -0.168   0.021  0.00  0.00    +0.292 HD
ENDBRANCH  31  34
ENDBRANCH  26  32
ENDBRANCH   1  27
TORSDOF 8
