REMARK  Name = ZINC62825350
REMARK  8 active torsions:
REMARK  status: ('A' for Active; 'I' for Inactive)
REMARK    1  A    between atoms: C_5  and  N_10
REMARK    2  A    between atoms: C_6  and  C_7
REMARK    3  A    between atoms: C_11  and  C_13
REMARK    4  A    between atoms: C_13  and  C_14
REMARK    5  A    between atoms: C_14  and  C_15
REMARK    6  A    between atoms: C_15  and  C_16
REMARK    7  A    between atoms: C_16  and  C_17
REMARK    8  A    between atoms: C_17  and  N_18
REMARK                            x       y       z     vdW  Elec       q    Type
REMARK                         _______ _______ _______ _____ _____    ______ ____
ROOT
ATOM      1  N   UNL     1       1.290  -2.072  -0.036  0.00  0.00    -0.284 N 
ATOM      2  C   UNL     1       2.464  -2.710   0.141  0.00  0.00    +0.217 C 
ATOM      3  O   UNL     1       3.465  -2.077   0.404  0.00  0.00    -0.275 OA
ATOM      4  H   UNL     1       0.476  -2.582  -0.167  0.00  0.00    +0.155 HD
ENDROOT
BRANCH   1   9
ATOM      5  C   UNL     1       0.625   1.409  -1.088  0.00  0.00    +0.032 A 
ATOM      6  C   UNL     1       1.162   2.098  -0.021  0.00  0.00    +0.020 A 
ATOM      7  C   UNL     1       1.740   1.412   1.036  0.00  0.00    +0.032 A 
ATOM      8  C   UNL     1       1.783   0.031   1.034  0.00  0.00    +0.041 A 
ATOM      9  C   UNL     1       1.247  -0.680  -0.032  0.00  0.00    +0.062 A 
ATOM     10  C   UNL     1       0.661   0.011  -1.104  0.00  0.00    +0.086 A 
ATOM     11 BR   UNL     1       2.574  -0.891   2.483  0.00  0.00    -0.048 Br
ATOM     12 BR   UNL     1       1.112   3.988  -0.001  0.00  0.00    -0.050 Br
BRANCH  10  13
ATOM     13  C   UNL     1       0.088  -0.731  -2.239  0.00  0.00    +0.388 C 
ATOM     14  O   UNL     1      -0.327  -0.126  -3.218  0.00  0.00    -0.241 OA
ATOM     15  O   UNL     1       0.028  -1.952  -2.203  0.00  0.00    -0.241 OA
ENDBRANCH  10  13
ENDBRANCH   1   9
BRANCH   2  16
ATOM     16  C   UNL     1       2.534  -4.210   0.012  0.00  0.00    +0.096 C 
BRANCH  16  17
ATOM     17  C   UNL     1       3.970  -4.677   0.258  0.00  0.00    +0.009 C 
BRANCH  17  18
ATOM     18  C   UNL     1       4.040  -6.200   0.128  0.00  0.00    -0.001 C 
BRANCH  18  19
ATOM     19  C   UNL     1       5.476  -6.667   0.374  0.00  0.00    -0.020 C 
BRANCH  19  20
ATOM     20  C   UNL     1       5.546  -8.190   0.243  0.00  0.00    -0.086 C 
BRANCH  20  21
ATOM     21  N   UNL     1       6.925  -8.638   0.480  0.00  0.00    +0.378 N 
ATOM     22  H   UNL     1       7.538  -8.214  -0.200  0.00  0.00    -0.090 HD
ATOM     23  H   UNL     1       7.213  -8.367   1.408  0.00  0.00    -0.090 HD
ATOM     24  H   UNL     1       6.972  -9.642   0.394  0.00  0.00    -0.090 HD
ENDBRANCH  20  21
ENDBRANCH  19  20
ENDBRANCH  18  19
ENDBRANCH  17  18
ENDBRANCH  16  17
ENDBRANCH   2  16
TORSDOF 8
