REMARK  Name = ZINC03464806
REMARK  4 active torsions:
REMARK  status: ('A' for Active; 'I' for Inactive)
REMARK    1  A    between atoms: C_1  and  C_2
REMARK    2  A    between atoms: N_11  and  C_15
REMARK    3  A    between atoms: C_15  and  C_16
REMARK    4  A    between atoms: N_18  and  C_19
REMARK                            x       y       z     vdW  Elec       q    Type
REMARK                         _______ _______ _______ _____ _____    ______ ____
ROOT
ATOM      1  C   UNL     1      -3.621   3.147   2.207  0.00  0.00    +0.010 C 
ATOM      2  C   UNL     1      -4.597   2.222   2.936  0.00  0.00    +0.018 C 
ATOM      3  C   UNL     1      -5.523   1.552   1.917  0.00  0.00    +0.006 C 
ATOM      4  C   UNL     1      -6.486   0.612   2.646  0.00  0.00    +0.000 C 
ATOM      5  C   UNL     1      -5.689  -0.466   3.383  0.00  0.00    +0.003 C 
ATOM      6  C   UNL     1      -4.763   0.196   4.407  0.00  0.00    +0.035 C 
ATOM      7  C   UNL     1      -3.816   1.153   3.693  0.00  0.00    +0.115 C 
ATOM      8  C   UNL     1      -2.868   1.793   4.681  0.00  0.00    +0.247 C 
ATOM      9  O   UNL     1      -3.157   2.499   5.623  0.00  0.00    -0.273 OA
ATOM     10  N   UNL     1      -1.633   1.411   4.295  0.00  0.00    -0.215 N 
ATOM     11  C   UNL     1      -1.676   0.628   3.211  0.00  0.00    +0.310 C 
ATOM     12  O   UNL     1      -0.690   0.159   2.676  0.00  0.00    -0.252 OA
ATOM     13  N   UNL     1      -2.934   0.417   2.778  0.00  0.00    -0.285 N 
ATOM     14  H   UNL     1      -3.204  -0.116   2.014  0.00  0.00    +0.151 HD
ENDROOT
BRANCH  10  15
ATOM     15  C   UNL     1      -0.398   1.806   4.978  0.00  0.00    +0.214 C 
BRANCH  15  16
ATOM     16  C   UNL     1      -0.069   0.794   6.045  0.00  0.00    +0.235 C 
ATOM     17  O   UNL     1      -0.794  -0.162   6.218  0.00  0.00    -0.274 OA
ATOM     18  N   UNL     1       1.032   0.953   6.806  0.00  0.00    -0.280 N 
ATOM     19  H   UNL     1       1.651   1.676   6.620  0.00  0.00    +0.155 HD
BRANCH  18  20
ATOM     20  C   UNL     1       1.282   0.072   7.868  0.00  0.00    +0.105 A 
ATOM     21  C   UNL     1       0.772   0.341   9.132  0.00  0.00    +0.147 A 
ATOM     22  C   UNL     1       1.021  -0.531  10.177  0.00  0.00    +0.040 A 
ATOM     23  C   UNL     1       1.777  -1.669   9.964  0.00  0.00    +0.006 A 
ATOM     24  C   UNL     1       2.287  -1.940   8.708  0.00  0.00    +0.040 A 
ATOM     25  C   UNL     1       2.037  -1.076   7.657  0.00  0.00    +0.147 A 
ATOM     26  F   UNL     1       2.531  -1.345   6.428  0.00  0.00    -0.203 F 
ATOM     27  F   UNL     1       0.033   1.453   9.340  0.00  0.00    -0.203 F 
ENDBRANCH  18  20
ENDBRANCH  15  16
ENDBRANCH  10  15
TORSDOF 3
