REMARK  Name = ZINC36576415
REMARK  19 active torsions:
REMARK  status: ('A' for Active; 'I' for Inactive)
REMARK    1  A    between atoms: C_1  and  C_2
REMARK    2  A    between atoms: C_2  and  C_3
REMARK    3  A    between atoms: C_3  and  N_4
REMARK    4  A    between atoms: N_4  and  C_5
REMARK    5  A    between atoms: C_5  and  C_7
REMARK    6  A    between atoms: C_5  and  C_16
REMARK    7  A    between atoms: C_8  and  O_15
REMARK    8  A    between atoms: C_10  and  O_14
REMARK    9  A    between atoms: C_12  and  O_13
REMARK   10  A    between atoms: N_18  and  C_19
REMARK   11  A    between atoms: C_19  and  C_20
REMARK   12  A    between atoms: C_19  and  C_21
REMARK   13  A    between atoms: C_19  and  C_22
REMARK   14  A    between atoms: C_22  and  C_23
REMARK   15  A    between atoms: C_23  and  C_24
REMARK   16  A    between atoms: C_23  and  C_25
REMARK   17  A    between atoms: C_23  and  C_26
REMARK   18  A    between atoms: C_27  and  C_29
REMARK   19  A    between atoms: C_29  and  C_31
REMARK                            x       y       z     vdW  Elec       q    Type
REMARK                         _______ _______ _______ _____ _____    ______ ____
ROOT
ATOM      1  C   UNL     1      -3.175  -2.333   1.702  0.00  0.00    +0.199 C 
ENDROOT
BRANCH   1   2
ATOM      2  C   UNL     1      -2.082  -1.640   2.473  0.00  0.00    +0.065 A 
ATOM      3  C   UNL     1      -1.764  -0.320   2.192  0.00  0.00    +0.129 A 
ATOM      4  C   UNL     1      -0.758   0.318   2.902  0.00  0.00    +0.091 A 
ATOM      5  C   UNL     1      -0.070  -0.365   3.894  0.00  0.00    +0.124 A 
ATOM      6  C   UNL     1      -0.389  -1.685   4.176  0.00  0.00    +0.091 A 
ATOM      7  C   UNL     1      -1.398  -2.321   3.469  0.00  0.00    +0.129 A 
BRANCH   7   8
ATOM      8  O   UNL     1      -1.713  -3.613   3.748  0.00  0.00    -0.506 OA
ATOM      9  H   UNL     1      -1.211  -4.260   3.235  0.00  0.00    +0.292 HD
ENDBRANCH   7   8
BRANCH   5  10
ATOM     10  O   UNL     1       0.916   0.260   4.589  0.00  0.00    -0.507 OA
ATOM     11  H   UNL     1       0.610   0.711   5.387  0.00  0.00    +0.292 HD
ENDBRANCH   5  10
BRANCH   3  12
ATOM     12  O   UNL     1      -2.438   0.349   1.220  0.00  0.00    -0.506 OA
ATOM     13  H   UNL     1      -3.179   0.877   1.547  0.00  0.00    +0.292 HD
ENDBRANCH   3  12
ENDBRANCH   1   2
BRANCH   1  14
ATOM     14  C   UNL     1      -4.421  -1.484   1.723  0.00  0.00    +0.239 C 
ATOM     15  O   UNL     1      -4.700  -0.793   0.767  0.00  0.00    -0.273 OA
ATOM     16  N   UNL     1      -5.224  -1.494   2.805  0.00  0.00    -0.308 N 
ATOM     17  H   UNL     1      -5.001  -2.047   3.570  0.00  0.00    +0.149 HD
BRANCH  16  18
ATOM     18  C   UNL     1      -6.435  -0.669   2.826  0.00  0.00    +0.030 C 
ATOM     19  C   UNL     1      -6.045   0.804   2.958  0.00  0.00    +0.031 C 
ATOM     20  C   UNL     1      -7.215  -0.876   1.526  0.00  0.00    +0.031 C 
BRANCH  18  21
ATOM     21  C   UNL     1      -7.308  -1.075   4.015  0.00  0.00    +0.031 C 
BRANCH  21  22
ATOM     22  C   UNL     1      -7.341  -2.600   4.127  0.00  0.00    -0.036 C 
ATOM     23  C   UNL     1      -6.045  -3.094   4.772  0.00  0.00    +0.010 C 
ATOM     24  C   UNL     1      -8.533  -3.023   4.989  0.00  0.00    +0.010 C 
ATOM     25  C   UNL     1      -7.481  -3.211   2.730  0.00  0.00    +0.010 C 
ENDBRANCH  21  22
ENDBRANCH  18  21
ENDBRANCH  16  18
ENDBRANCH   1  14
BRANCH   1  26
ATOM     26  N   UNL     1      -2.744  -2.532   0.316  0.00  0.00    -0.282 N 
ATOM     27  C   UNL     1      -3.527  -3.216  -0.542  0.00  0.00    +0.243 C 
ATOM     28  O   UNL     1      -3.181  -3.360  -1.699  0.00  0.00    -0.270 OA
BRANCH  27  29
ATOM     29  C   UNL     1      -4.801  -3.788  -0.079  0.00  0.00    +0.004 C 
ATOM     30  C   UNL     1      -5.880  -3.720  -0.853  0.00  0.00    +0.017 C 
ATOM     31  C   UNL     1      -4.883  -4.449   1.272  0.00  0.00    +0.048 C 
ENDBRANCH  27  29
BRANCH  26  32
ATOM     32  C   UNL     1      -1.462  -1.988  -0.138  0.00  0.00    +0.109 C 
BRANCH  32  34
ATOM     33  C   UNL     1       0.927  -2.541  -0.620  0.00  0.00    +0.005 C 
ATOM     34  C   UNL     1      -0.384  -3.069  -0.032  0.00  0.00    +0.016 C 
ENDBRANCH  32  34
ENDBRANCH  26  32
ENDBRANCH   1  26
TORSDOF 12
