REMARK  Name = ZINC08930240
REMARK  12 active torsions:
REMARK  status: ('A' for Active; 'I' for Inactive)
REMARK    1  A    between atoms: C_1  and  C_2
REMARK    2  A    between atoms: C_2  and  C_3
REMARK    3  A    between atoms: C_2  and  C_4
REMARK    4  A    between atoms: C_2  and  N_5
REMARK    5  A    between atoms: C_9  and  C_11
REMARK    6  A    between atoms: C_11  and  N_12
REMARK    7  A    between atoms: C_15  and  C_19
REMARK    8  A    between atoms: C_15  and  C_27
REMARK    9  A    between atoms: C_22  and  O_25
REMARK   10  A    between atoms: O_25  and  C_26
REMARK   11  A    between atoms: C_30  and  O_33
REMARK   12  A    between atoms: O_33  and  C_34
REMARK                            x       y       z     vdW  Elec       q    Type
REMARK                         _______ _______ _______ _____ _____    ______ ____
ROOT
ATOM      1  N   UNL     1       0.948   1.847  -0.603  0.00  0.00    -0.215 N 
ATOM      2  C   UNL     1      -0.245   1.233  -0.726  0.00  0.00    +0.256 C 
ATOM      3  O   UNL     1      -0.479   0.200  -1.315  0.00  0.00    -0.272 OA
ATOM      4  C   UNL     1      -1.235   2.107   0.018  0.00  0.00    +0.164 C 
ATOM      5  N   UNL     1      -0.405   3.212   0.530  0.00  0.00    -0.278 N 
ATOM      6  C   UNL     1       0.852   2.974   0.113  0.00  0.00    +0.310 C 
ATOM      7  O   UNL     1       1.794   3.700   0.360  0.00  0.00    -0.252 OA
ATOM      8  H   UNL     1      -0.707   3.966   1.060  0.00  0.00    +0.152 HD
ENDROOT
BRANCH   4   9
ATOM      9  C   UNL     1      -2.294   2.627  -0.919  0.00  0.00    -0.011 A 
ATOM     10  C   UNL     1      -2.618   3.971  -0.918  0.00  0.00    +0.010 A 
ATOM     11  C   UNL     1      -3.584   4.450  -1.781  0.00  0.00    +0.046 A 
ATOM     12  C   UNL     1      -4.239   3.580  -2.640  0.00  0.00    +0.120 A 
ATOM     13  C   UNL     1      -3.916   2.231  -2.635  0.00  0.00    +0.046 A 
ATOM     14  C   UNL     1      -2.945   1.757  -1.775  0.00  0.00    +0.010 A 
BRANCH  12  15
ATOM     15  O   UNL     1      -5.194   4.048  -3.485  0.00  0.00    -0.495 OA
ATOM     16  C   UNL     1      -5.474   5.449  -3.436  0.00  0.00    +0.277 C 
ENDBRANCH  12  15
ENDBRANCH   4   9
BRANCH   4  17
ATOM     17  C   UNL     1      -1.861   1.346   1.159  0.00  0.00    -0.011 A 
ATOM     18  C   UNL     1      -2.429   0.106   0.931  0.00  0.00    +0.010 A 
ATOM     19  C   UNL     1      -2.999  -0.596   1.975  0.00  0.00    +0.046 A 
ATOM     20  C   UNL     1      -3.011  -0.051   3.251  0.00  0.00    +0.120 A 
ATOM     21  C   UNL     1      -2.445   1.196   3.476  0.00  0.00    +0.046 A 
ATOM     22  C   UNL     1      -1.871   1.891   2.429  0.00  0.00    +0.010 A 
BRANCH  20  23
ATOM     23  O   UNL     1      -3.576  -0.737   4.279  0.00  0.00    -0.495 OA
ATOM     24  C   UNL     1      -4.140  -2.014   3.974  0.00  0.00    +0.277 C 
ENDBRANCH  20  23
ENDBRANCH   4  17
BRANCH   1  25
ATOM     25  C   UNL     1       2.196   1.345  -1.182  0.00  0.00    +0.214 C 
BRANCH  25  30
ATOM     26  N   UNL     1       4.694   1.756  -5.269  0.00  0.00    -0.294 N 
ATOM     27  C   UNL     1       3.609   2.083  -4.539  0.00  0.00    +0.306 C 
ATOM     28  O   UNL     1       2.770   2.832  -5.000  0.00  0.00    -0.252 OA
ATOM     29  N   UNL     1       3.454   1.580  -3.299  0.00  0.00    -0.239 N 
ATOM     30  C   UNL     1       2.369   1.907  -2.569  0.00  0.00    +0.238 C 
ATOM     31  O   UNL     1       1.533   2.655  -3.029  0.00  0.00    -0.274 OA
ATOM     32  H   UNL     1       5.363   1.158  -4.901  0.00  0.00    +0.151 HD
ATOM     33  H   UNL     1       4.124   0.982  -2.931  0.00  0.00    +0.159 HD
BRANCH  26  35
ATOM     34  C   UNL     1       4.912   3.830  -6.546  0.00  0.00    +0.031 C 
ATOM     35  C   UNL     1       4.862   2.303  -6.617  0.00  0.00    +0.028 C 
ATOM     36  C   UNL     1       6.165   1.778  -7.222  0.00  0.00    +0.031 C 
ATOM     37  C   UNL     1       3.683   1.872  -7.493  0.00  0.00    +0.031 C 
ENDBRANCH  26  35
ENDBRANCH  25  30
ENDBRANCH   1  25
TORSDOF 7
