REMARK  Name = ZINC08629208
REMARK  7 active torsions:
REMARK  status: ('A' for Active; 'I' for Inactive)
REMARK    1  A    between atoms: C_1  and  C_2
REMARK    2  A    between atoms: C_2  and  C_4
REMARK    3  A    between atoms: C_2  and  O_10
REMARK    4  A    between atoms: O_10  and  C_11
REMARK    5  A    between atoms: C_11  and  C_13
REMARK    6  A    between atoms: C_26  and  C_27
REMARK    7  A    between atoms: C_30  and  O_33
REMARK                            x       y       z     vdW  Elec       q    Type
REMARK                         _______ _______ _______ _____ _____    ______ ____
ROOT
ATOM      1  C   UNL     1      -1.534  -4.414   0.777  0.00  0.00    +0.073 A 
ATOM      2  C   UNL     1      -2.023  -5.367  -0.221  0.00  0.00    +0.015 A 
ATOM      3  C   UNL     1      -2.660  -4.941  -1.390  0.00  0.00    +0.011 A 
ATOM      4  C   UNL     1      -3.100  -5.865  -2.292  0.00  0.00    +0.001 A 
ATOM      5  C   UNL     1      -2.922  -7.227  -2.062  0.00  0.00    +0.002 A 
ATOM      6  C   UNL     1      -2.306  -7.675  -0.934  0.00  0.00    +0.028 A 
ATOM      7  C   UNL     1      -1.838  -6.751   0.021  0.00  0.00    +0.072 A 
ATOM      8  N   UNL     1      -1.233  -7.159   1.133  0.00  0.00    -0.247 NA
ATOM      9  C   UNL     1      -0.778  -6.320   2.058  0.00  0.00    +0.072 A 
ATOM     10  C   UNL     1      -0.910  -4.930   1.904  0.00  0.00    -0.007 A 
ATOM     11  C   UNL     1      -0.313  -4.225   3.097  0.00  0.00    +0.043 C 
ATOM     12  C   UNL     1       0.222  -5.326   4.023  0.00  0.00    +0.042 C 
ATOM     13  C   UNL     1      -0.093  -6.627   3.328  0.00  0.00    -0.021 C 
ATOM     14  C   UNL     1       0.201  -7.856   3.788  0.00  0.00    +0.013 C 
ENDROOT
BRANCH  14  15
ATOM     15  C   UNL     1       1.008  -8.012   5.009  0.00  0.00    -0.024 A 
ATOM     16  C   UNL     1       1.456  -9.279   5.397  0.00  0.00    +0.011 A 
ATOM     17  C   UNL     1       2.215  -9.419   6.538  0.00  0.00    +0.046 A 
ATOM     18  C   UNL     1       2.526  -8.306   7.309  0.00  0.00    +0.117 A 
ATOM     19  C   UNL     1       2.080  -7.046   6.931  0.00  0.00    +0.046 A 
ATOM     20  C   UNL     1       1.325  -6.895   5.788  0.00  0.00    +0.011 A 
BRANCH  18  21
ATOM     21  O   UNL     1       3.270  -8.450   8.436  0.00  0.00    -0.507 OA
ATOM     22  H   UNL     1       2.748  -8.612   9.234  0.00  0.00    +0.292 HD
ENDBRANCH  18  21
ENDBRANCH  14  15
BRANCH   1  23
ATOM     23  C   UNL     1      -1.693  -2.957   0.588  0.00  0.00    +0.341 C 
ATOM     24  O   UNL     1      -2.687  -2.396   1.001  0.00  0.00    -0.245 OA
BRANCH  23  25
ATOM     25  O   UNL     1      -0.735  -2.251  -0.044  0.00  0.00    -0.449 OA
BRANCH  25  27
ATOM     26  C   UNL     1      -1.694  -0.559  -1.508  0.00  0.00    +0.062 C 
ATOM     27  C   UNL     1      -0.958  -0.824  -0.194  0.00  0.00    +0.259 C 
BRANCH  27  28
ATOM     28  C   UNL     1       0.368  -0.107  -0.206  0.00  0.00    +0.261 C 
ATOM     29  O   UNL     1       1.401  -0.742  -0.191  0.00  0.00    -0.271 OA
ATOM     30  N   UNL     1       0.405   1.240  -0.235  0.00  0.00    -0.237 N 
ATOM     31  C   UNL     1       1.590   1.881  -0.246  0.00  0.00    +0.303 C 
ATOM     32  O   UNL     1       2.626   1.245  -0.231  0.00  0.00    -0.253 OA
ATOM     33  N   UNL     1       1.627   3.228  -0.275  0.00  0.00    -0.313 N 
ATOM     34  H   UNL     1      -0.421   1.747  -0.251  0.00  0.00    +0.159 HD
ATOM     35  H   UNL     1       0.801   3.736  -0.287  0.00  0.00    +0.146 HD
ATOM     36  H   UNL     1       2.481   3.689  -0.283  0.00  0.00    +0.146 HD
ENDBRANCH  27  28
ENDBRANCH  25  27
ENDBRANCH  23  25
ENDBRANCH   1  23
TORSDOF 6
