REMARK  Name = ZINC40065789
REMARK  12 active torsions:
REMARK  status: ('A' for Active; 'I' for Inactive)
REMARK    1  A    between atoms: C_1  and  C_2
REMARK    2  A    between atoms: C_2  and  C_3
REMARK    3  A    between atoms: C_3  and  O_4
REMARK    4  A    between atoms: O_4  and  C_5
REMARK    5  A    between atoms: C_8  and  C_14
REMARK    6  A    between atoms: C_10  and  O_11
REMARK    7  A    between atoms: O_11  and  C_12
REMARK    8  A    between atoms: C_12  and  C_13
REMARK    9  A    between atoms: C_22  and  C_38
REMARK   10  A    between atoms: C_23  and  C_37
REMARK   11  A    between atoms: C_33  and  C_35
REMARK   12  A    between atoms: C_35  and  C_36
REMARK                            x       y       z     vdW  Elec       q    Type
REMARK                         _______ _______ _______ _____ _____    ______ ____
ROOT
ATOM      1  C   UNL     1      -6.403  -4.585   0.038  0.00  0.00    +0.152 C 
ATOM      2  C   UNL     1      -6.974  -4.587   1.418  0.00  0.00    +0.072 A 
ATOM      3  C   UNL     1      -6.478  -5.170   2.668  0.00  0.00    +0.199 A 
ATOM      4  O   UNL     1      -5.357  -5.633   2.790  0.00  0.00    -0.287 OA
ATOM      5  C   UNL     1      -7.470  -5.142   3.773  0.00  0.00    +0.065 A 
ATOM      6  C   UNL     1      -7.225  -5.832   4.960  0.00  0.00    +0.015 A 
ATOM      7  C   UNL     1      -8.151  -5.800   5.965  0.00  0.00    +0.004 A 
ATOM      8  C   UNL     1      -9.330  -5.086   5.807  0.00  0.00    -0.044 A 
ATOM      9  C   UNL     1      -9.587  -4.397   4.643  0.00  0.00    -0.005 A 
ATOM     10  C   UNL     1      -8.658  -4.412   3.603  0.00  0.00    +0.143 A 
ATOM     11  O   UNL     1      -8.926  -3.721   2.471  0.00  0.00    -0.449 OA
ATOM     12  C   UNL     1      -8.159  -3.907   1.379  0.00  0.00    +0.199 A 
ATOM     13  C   UNL     1      -8.388  -3.457  -0.004  0.00  0.00    +0.289 C 
ATOM     14  O   UNL     1      -9.356  -2.826  -0.379  0.00  0.00    -0.266 OA
ATOM     15  N   UNL     1      -7.367  -3.849  -0.796  0.00  0.00    -0.230 N 
ATOM     16  C   UNL     1      -7.246  -3.601  -2.157  0.00  0.00    +0.191 A 
ATOM     17  N   UNL     1      -6.289  -3.949  -3.006  0.00  0.00    -0.125 NA
ATOM     18  N   UNL     1      -6.337  -3.637  -4.227  0.00  0.00    -0.145 NA
ATOM     19  C   UNL     1      -7.339  -2.948  -4.737  0.00  0.00    +0.103 A 
ATOM     20  S   UNL     1      -8.342  -2.726  -3.270  0.00  0.00    -0.035 S 
ATOM     21  C   UNL     1     -10.874  -3.628   4.491  0.00  0.00    +0.048 C 
ATOM     22  C   UNL     1     -10.342  -5.062   6.924  0.00  0.00    +0.044 C 
ENDROOT
BRANCH   1  26
ATOM     23  C   UNL     1      -2.617  -2.596   0.013  0.00  0.00    +0.162 A 
ATOM     24  C   UNL     1      -3.790  -1.859   0.022  0.00  0.00    +0.050 A 
ATOM     25  C   UNL     1      -5.013  -2.505   0.030  0.00  0.00    +0.009 A 
ATOM     26  C   UNL     1      -5.068  -3.886   0.029  0.00  0.00    -0.018 A 
ATOM     27  C   UNL     1      -3.901  -4.628   0.020  0.00  0.00    +0.055 A 
ATOM     28  C   UNL     1      -2.673  -3.987   0.006  0.00  0.00    +0.162 A 
BRANCH  23  29
ATOM     29  O   UNL     1      -1.414  -1.962   0.005  0.00  0.00    -0.488 OA
BRANCH  29  30
ATOM     30  C   UNL     1      -1.433  -0.534   0.013  0.00  0.00    +0.229 C 
BRANCH  30  32
ATOM     31  C   UNL     1      -0.019   1.526   0.010  0.00  0.00    +0.007 C 
ATOM     32  C   UNL     1       0.002  -0.004   0.002  0.00  0.00    +0.038 C 
ENDBRANCH  30  32
ENDBRANCH  29  30
ENDBRANCH  23  29
BRANCH  28  33
ATOM     33  O   UNL     1      -1.524  -4.715  -0.009  0.00  0.00    -0.489 OA
BRANCH  33  34
ATOM     34  C   UNL     1      -1.658  -6.138  -0.015  0.00  0.00    +0.226 C 
ATOM     35  C   UNL     1      -0.270  -6.780  -0.032  0.00  0.00    +0.048 C 
ENDBRANCH  33  34
ENDBRANCH  28  33
ENDBRANCH   1  26
BRANCH  19  36
ATOM     36  C   UNL     1      -7.575  -2.484  -6.151  0.00  0.00    +0.061 C 
ATOM     37  C   UNL     1      -8.356  -3.555  -6.915  0.00  0.00    +0.011 C 
ENDBRANCH  19  36
TORSDOF 7
