REMARK  Name = ZINC39194550
REMARK  3 active torsions:
REMARK  status: ('A' for Active; 'I' for Inactive)
REMARK    1  A    between atoms: C_4  and  N_12
REMARK    2  A    between atoms: C_5  and  N_7
REMARK    3  A    between atoms: N_10  and  N_11
REMARK                            x       y       z     vdW  Elec       q    Type
REMARK                         _______ _______ _______ _____ _____    ______ ____
ROOT
ATOM      1  C   UNL     1       0.197   1.589  -0.399  0.00  0.00    +0.002 A 
ATOM      2  C   UNL     1       1.420   2.164  -0.106  0.00  0.00    +0.002 A 
ATOM      3  C   UNL     1       2.486   1.372   0.278  0.00  0.00    +0.034 A 
ATOM      4  C   UNL     1       2.333   0.002   0.370  0.00  0.00    +0.147 A 
ATOM      5  C   UNL     1       1.106  -0.579   0.077  0.00  0.00    +0.065 A 
ATOM      6  C   UNL     1       0.037   0.220  -0.308  0.00  0.00    +0.025 A 
ENDROOT
BRANCH   5   7
ATOM      7  N   UNL     1       0.947  -1.966   0.169  0.00  0.00    -0.266 N 
ATOM      8  C   UNL     1      -0.163  -2.481   0.733  0.00  0.00    +0.317 C 
ATOM      9  O   UNL     1      -1.071  -1.746   1.071  0.00  0.00    -0.251 OA
ATOM     10  N   UNL     1      -0.267  -3.811   0.923  0.00  0.00    -0.237 N 
ATOM     11  H   UNL     1       1.636  -2.557  -0.174  0.00  0.00    +0.156 HD
ATOM     12  H   UNL     1      -1.066  -4.182   1.330  0.00  0.00    +0.170 HD
BRANCH  10  13
ATOM     13  N   UNL     1       0.752  -4.637   0.544  0.00  0.00    -0.253 NA
ATOM     14  H   UNL     1       0.532  -5.601   0.748  0.00  0.00    +0.141 HD
ATOM     15  H   UNL     1       0.972  -4.516  -0.433  0.00  0.00    +0.141 HD
ENDBRANCH  10  13
ENDBRANCH   5   7
BRANCH   4  16
ATOM     16  N   UNL     1       3.474  -0.846   0.780  0.00  0.00    +0.058 N 
ATOM     17  O   UNL     1       4.550  -0.342   1.007  0.00  0.00    -0.126 OA
ATOM     18  O   UNL     1       3.332  -2.041   0.888  0.00  0.00    -0.126 OA
ENDBRANCH   4  16
TORSDOF 3
