REMARK  Name = ZINC40255539
REMARK  3 active torsions:
REMARK  status: ('A' for Active; 'I' for Inactive)
REMARK    1  A    between atoms: C_6  and  C_7
REMARK    2  A    between atoms: C_7  and  C_9
REMARK    3  A    between atoms: C_7  and  O_14
REMARK                            x       y       z     vdW  Elec       q    Type
REMARK                         _______ _______ _______ _____ _____    ______ ____
ROOT
ATOM      1  C   UNL     1      -0.017   1.378   0.010  0.00  0.00    +0.008 A 
ATOM      2  C   UNL     1       1.164   2.092   0.002  0.00  0.00    +0.024 A 
ATOM      3  C   UNL     1       2.386   1.423  -0.013  0.00  0.00    +0.037 A 
ATOM      4  C   UNL     1       2.392   0.034  -0.021  0.00  0.00    -0.017 A 
ATOM      5  C   UNL     1       1.212  -0.676  -0.013  0.00  0.00    +0.012 A 
ATOM      6  C   UNL     1       0.002  -0.004   0.002  0.00  0.00    -0.014 A 
ATOM      7  C   UNL     1       3.843  -0.386  -0.037  0.00  0.00    +0.133 C 
ATOM      8  C   UNL     1       4.604   0.923  -0.037  0.00  0.00    +0.222 C 
ATOM      9  O   UNL     1       5.810   1.055  -0.048  0.00  0.00    -0.275 OA
ATOM     10  N   UNL     1       3.693   1.911  -0.023  0.00  0.00    -0.285 N 
ATOM     11  H   UNL     1       3.918   2.854  -0.020  0.00  0.00    +0.155 HD
ENDROOT
BRANCH   6  12
ATOM     12  C   UNL     1      -1.292  -0.777   0.011  0.00  0.00    +0.175 C 
BRANCH  12  13
ATOM     13  C   UNL     1      -1.800  -0.921  -1.401  0.00  0.00    -0.008 A 
ATOM     14  C   UNL     1      -1.607  -2.098  -2.099  0.00  0.00    +0.014 A 
ATOM     15  C   UNL     1      -2.077  -2.194  -3.367  0.00  0.00    +0.045 A 
ATOM     16  S   UNL     1      -2.820  -0.589  -3.608  0.00  0.00    -0.105 S 
ATOM     17  C   UNL     1      -2.459   0.100  -2.002  0.00  0.00    +0.051 A 
ENDBRANCH  12  13
BRANCH  12  18
ATOM     18  O   UNL     1      -2.259  -0.079   0.797  0.00  0.00    -0.383 OA
ATOM     19  H   UNL     1      -2.460   0.811   0.474  0.00  0.00    +0.211 HD
ENDBRANCH  12  18
ENDBRANCH   6  12
TORSDOF 3
