REMARK  Name = ZINC35576204
REMARK  1 active torsions:
REMARK  status: ('A' for Active; 'I' for Inactive)
REMARK    1  A    between atoms: N_23  and  N_24
REMARK                            x       y       z     vdW  Elec       q    Type
REMARK                         _______ _______ _______ _____ _____    ______ ____
ROOT
ATOM      1  C   UNL     1      -0.017   1.374   0.010  0.00  0.00    +0.001 A 
ATOM      2  C   UNL     1       1.167   2.099   0.002  0.00  0.00    +0.001 A 
ATOM      3  C   UNL     1       2.386   1.456  -0.013  0.00  0.00    +0.012 A 
ATOM      4  C   UNL     1       2.427   0.062  -0.020  0.00  0.00    +0.030 A 
ATOM      5  C   UNL     1       1.223  -0.676  -0.013  0.00  0.00    +0.028 A 
ATOM      6  C   UNL     1       0.002  -0.004   0.002  0.00  0.00    +0.012 A 
ATOM      7  C   UNL     1       1.300  -2.143  -0.022  0.00  0.00    +0.161 A 
ATOM      8  N   UNL     1       2.459  -2.739  -0.034  0.00  0.00    -0.145 NA
ATOM      9  N   UNL     1       3.673  -2.043  -0.039  0.00  0.00    -0.175 N 
ATOM     10  C   UNL     1       3.697  -0.675  -0.035  0.00  0.00    +0.167 A 
ATOM     11  N   UNL     1       4.841  -0.011  -0.043  0.00  0.00    -0.220 NA
ATOM     12  C   UNL     1       5.998  -0.650  -0.054  0.00  0.00    +0.116 A 
ATOM     13  C   UNL     1       6.073  -2.056  -0.055  0.00  0.00    +0.077 A 
ATOM     14  C   UNL     1       4.824  -2.747  -0.049  0.00  0.00    +0.283 A 
ATOM     15  O   UNL     1       4.798  -3.967  -0.051  0.00  0.00    -0.265 OA
ATOM     16  C   UNL     1       7.423  -2.622  -0.064  0.00  0.00    -0.023 A 
ATOM     17  C   UNL     1       8.453  -1.751  -0.071  0.00  0.00    -0.004 A 
ATOM     18  S   UNL     1       7.700  -0.146  -0.067  0.00  0.00    -0.073 S 
ATOM     19  C   UNL     1       9.916  -2.075  -0.079  0.00  0.00    +0.043 C 
ATOM     20  C   UNL     1      10.086  -3.554   0.298  0.00  0.00    +0.005 C 
ATOM     21  C   UNL     1       9.107  -4.388  -0.532  0.00  0.00    +0.005 C 
ATOM     22  C   UNL     1       7.675  -4.128  -0.065  0.00  0.00    +0.037 C 
ATOM     23  N   UNL     1       0.135  -2.896  -0.016  0.00  0.00    -0.266 N 
ATOM     24  H   UNL     1      -0.729  -2.453  -0.007  0.00  0.00    +0.168 HD
ENDROOT
BRANCH  23  25
ATOM     25  N   UNL     1       0.203  -4.260  -0.024  0.00  0.00    -0.255 NA
ATOM     26  H   UNL     1       0.753  -4.599   0.751  0.00  0.00    +0.140 HD
ATOM     27  H   UNL     1      -0.720  -4.668  -0.019  0.00  0.00    +0.140 HD
ENDBRANCH  23  25
TORSDOF 1
