REMARK  Name = ZINC40917004
REMARK  10 active torsions:
REMARK  status: ('A' for Active; 'I' for Inactive)
REMARK    1  A    between atoms: C_1  and  C_2
REMARK    2  A    between atoms: C_3  and  C_31
REMARK    3  A    between atoms: C_4  and  C_12
REMARK    4  A    between atoms: C_17  and  O_18
REMARK    5  A    between atoms: O_18  and  C_19
REMARK    6  A    between atoms: C_19  and  C_20
REMARK    7  A    between atoms: C_23  and  C_26
REMARK    8  A    between atoms: C_26  and  C_27
REMARK    9  A    between atoms: C_26  and  C_28
REMARK   10  A    between atoms: C_26  and  C_29
REMARK                            x       y       z     vdW  Elec       q    Type
REMARK                         _______ _______ _______ _____ _____    ______ ____
ROOT
ATOM      1  C   UNL     1      -1.729  -2.627  -1.371  0.00  0.00    +0.024 A 
ATOM      2  C   UNL     1      -0.992  -2.328  -2.500  0.00  0.00    +0.025 A 
ATOM      3  C   UNL     1      -1.428  -2.747  -3.744  0.00  0.00    +0.018 A 
ATOM      4  C   UNL     1      -2.604  -3.467  -3.860  0.00  0.00    +0.019 A 
ATOM      5  C   UNL     1      -3.344  -3.770  -2.733  0.00  0.00    +0.047 A 
ATOM      6  C   UNL     1      -2.905  -3.354  -1.484  0.00  0.00    +0.127 A 
ATOM      7 BR   UNL     1      -0.418  -2.334  -5.287  0.00  0.00    -0.050 Br
ENDROOT
BRANCH   1  11
ATOM      8  C   UNL     1      -0.018   1.503   0.010  0.00  0.00    +0.061 C 
ATOM      9  C   UNL     1       0.002  -0.004   0.002  0.00  0.00    +0.018 C 
ATOM     10  C   UNL     1      -1.163  -0.668   0.004  0.00  0.00    +0.060 C 
ATOM     11  C   UNL     1      -1.253  -2.171  -0.016  0.00  0.00    +0.181 C 
ATOM     12  N   UNL     1       0.064  -2.740   0.255  0.00  0.00    -0.221 N 
ATOM     13  C   UNL     1       1.211  -2.016   0.249  0.00  0.00    +0.218 A 
ATOM     14  N   UNL     1       2.199  -2.824   0.520  0.00  0.00    -0.201 NA
ATOM     15  C   UNL     1       1.727  -4.060   0.708  0.00  0.00    +0.247 A 
ATOM     16  N   UNL     1       0.425  -4.052   0.556  0.00  0.00    -0.156 NA
ATOM     17  N   UNL     1       1.213  -0.651  -0.013  0.00  0.00    -0.287 N 
ATOM     18  H   UNL     1       2.038  -0.174  -0.196  0.00  0.00    +0.155 HD
BRANCH  10  19
ATOM     19  C   UNL     1      -2.365   0.079   0.026  0.00  0.00    +0.241 C 
ATOM     20  O   UNL     1      -2.325   1.296   0.043  0.00  0.00    -0.271 OA
ATOM     21  N   UNL     1      -3.553  -0.556   0.029  0.00  0.00    -0.325 N 
ATOM     22  H   UNL     1      -3.585  -1.525   0.016  0.00  0.00    +0.145 HD
ATOM     23  H   UNL     1      -4.377  -0.044   0.044  0.00  0.00    +0.145 HD
ENDBRANCH  10  19
ENDBRANCH   1  11
BRANCH   6  24
ATOM     24  O   UNL     1      -3.629  -3.655  -0.374  0.00  0.00    -0.487 OA
BRANCH  24  25
ATOM     25  C   UNL     1      -4.829  -4.407  -0.566  0.00  0.00    +0.264 C 
BRANCH  25  26
ATOM     26  C   UNL     1      -5.493  -4.643   0.767  0.00  0.00    -0.010 A 
ATOM     27  C   UNL     1      -5.176  -5.766   1.507  0.00  0.00    +0.007 A 
ATOM     28  C   UNL     1      -5.784  -5.983   2.729  0.00  0.00    +0.004 A 
ATOM     29  C   UNL     1      -6.709  -5.076   3.211  0.00  0.00    -0.042 A 
ATOM     30  C   UNL     1      -7.026  -3.952   2.471  0.00  0.00    +0.004 A 
ATOM     31  C   UNL     1      -6.414  -3.733   1.251  0.00  0.00    +0.007 A 
BRANCH  29  32
ATOM     32  C   UNL     1      -7.373  -5.312   4.543  0.00  0.00    -0.013 C 
ATOM     33  C   UNL     1      -6.309  -5.372   5.640  0.00  0.00    +0.015 C 
ATOM     34  C   UNL     1      -8.346  -4.169   4.838  0.00  0.00    +0.015 C 
ATOM     35  C   UNL     1      -8.140  -6.636   4.503  0.00  0.00    +0.015 C 
ENDBRANCH  29  32
ENDBRANCH  25  26
ENDBRANCH  24  25
ENDBRANCH   6  24
TORSDOF 6
