REMARK  Name = ZINC62038770
REMARK  9 active torsions:
REMARK  status: ('A' for Active; 'I' for Inactive)
REMARK    1  A    between atoms: C_1  and  C_2
REMARK    2  A    between atoms: C_3  and  C_28
REMARK    3  A    between atoms: C_8  and  S_12
REMARK    4  A    between atoms: S_12  and  C_13
REMARK    5  A    between atoms: C_13  and  C_15
REMARK    6  A    between atoms: C_13  and  C_16
REMARK    7  A    between atoms: N_18  and  C_19
REMARK    8  A    between atoms: C_21  and  C_26
REMARK    9  A    between atoms: C_24  and  O_25
REMARK                            x       y       z     vdW  Elec       q    Type
REMARK                         _______ _______ _______ _____ _____    ______ ____
ROOT
ATOM      1  C   UNL     1      -0.048   1.501   0.095  0.00  0.00    +0.052 C 
ATOM      2  C   UNL     1      -0.024  -0.005   0.075  0.00  0.00    -0.002 A 
ATOM      3  C   UNL     1      -1.073  -0.865   0.069  0.00  0.00    +0.013 A 
ATOM      4  C   UNL     1      -0.803  -2.299   0.049  0.00  0.00    +0.080 A 
ATOM      5  C   UNL     1      -1.752  -3.435   0.039  0.00  0.00    +0.283 A 
ATOM      6  O   UNL     1      -2.957  -3.233   0.047  0.00  0.00    -0.265 OA
ATOM      7  N   UNL     1      -1.279  -4.685   0.020  0.00  0.00    -0.185 NA
ATOM      8  C   UNL     1       0.011  -4.949   0.010  0.00  0.00    +0.171 A 
ATOM      9  N   UNL     1       0.940  -3.952   0.019  0.00  0.00    -0.328 N 
ATOM     10  C   UNL     1       0.548  -2.648   0.038  0.00  0.00    +0.093 A 
ATOM     11  S   UNL     1       1.391  -1.089   0.046  0.00  0.00    -0.075 S 
ATOM     12  H   UNL     1       1.885  -4.172   0.012  0.00  0.00    +0.168 HD
ENDROOT
BRANCH   3  13
ATOM     13  C   UNL     1      -2.462  -0.359   0.083  0.00  0.00    +0.021 A 
ATOM     14  C   UNL     1      -3.126   0.366  -0.871  0.00  0.00    +0.016 A 
ATOM     15  C   UNL     1      -4.435   0.729  -0.634  0.00  0.00    +0.008 A 
ATOM     16  C   UNL     1      -5.023   0.359   0.531  0.00  0.00    +0.046 A 
ATOM     17  S   UNL     1      -3.713  -0.541   1.343  0.00  0.00    -0.097 S 
ENDBRANCH   3  13
BRANCH   8  18
ATOM     18  S   UNL     1       0.546  -6.627  -0.014  0.00  0.00    -0.075 S 
BRANCH  18  19
ATOM     19  C   UNL     1      -0.997  -7.581  -0.018  0.00  0.00    +0.137 C 
ATOM     20  C   UNL     1      -1.745  -7.347   1.296  0.00  0.00    +0.029 C 
BRANCH  19  21
ATOM     21  C   UNL     1      -0.681  -9.047  -0.163  0.00  0.00    +0.230 C 
ATOM     22  O   UNL     1       0.398  -9.473   0.192  0.00  0.00    -0.274 OA
ATOM     23  N   UNL     1      -1.597  -9.886  -0.685  0.00  0.00    -0.282 N 
ATOM     24  H   UNL     1      -2.483  -9.559  -0.908  0.00  0.00    +0.155 HD
BRANCH  23  25
ATOM     25  C   UNL     1      -1.271 -11.231  -0.906  0.00  0.00    +0.076 A 
ATOM     26  C   UNL     1      -0.421 -11.887  -0.037  0.00  0.00    +0.038 A 
ATOM     27  C   UNL     1      -0.098 -13.231  -0.262  0.00  0.00    +0.016 A 
ATOM     28  C   UNL     1      -0.638 -13.902  -1.366  0.00  0.00    +0.015 A 
ATOM     29  C   UNL     1      -1.485 -13.240  -2.227  0.00  0.00    +0.048 A 
ATOM     30  C   UNL     1      -1.810 -11.909  -2.001  0.00  0.00    +0.138 A 
BRANCH  30  31
ATOM     31  O   UNL     1      -2.650 -11.264  -2.851  0.00  0.00    -0.505 OA
ATOM     32  H   UNL     1      -2.204 -10.829  -3.590  0.00  0.00    +0.292 HD
ENDBRANCH  30  31
BRANCH  27  33
ATOM     33  C   UNL     1       0.806 -13.935   0.657  0.00  0.00    +0.258 C 
ATOM     34  O   UNL     1       1.085 -15.099   0.461  0.00  0.00    -0.296 OA
ENDBRANCH  27  33
ENDBRANCH  23  25
ENDBRANCH  19  21
ENDBRANCH  18  19
ENDBRANCH   8  18
TORSDOF 7
