REMARK  Name = ZINC01473011
REMARK  7 active torsions:
REMARK  status: ('A' for Active; 'I' for Inactive)
REMARK    1  A    between atoms: C_1  and  C_2
REMARK    2  A    between atoms: C_3  and  C_27
REMARK    3  A    between atoms: C_4  and  N_17
REMARK    4  A    between atoms: C_14  and  C_15
REMARK    5  A    between atoms: N_17  and  C_18
REMARK    6  A    between atoms: C_21  and  C_24
REMARK    7  A    between atoms: C_27  and  C_28
REMARK                            x       y       z     vdW  Elec       q    Type
REMARK                         _______ _______ _______ _____ _____    ______ ____
ROOT
ATOM      1  C   UNL     1       4.867   1.333  -0.430  0.00  0.00    +0.045 C 
ATOM      2  C   UNL     1       3.493   1.946  -0.504  0.00  0.00    -0.023 A 
ATOM      3  C   UNL     1       2.365   1.164  -0.294  0.00  0.00    -0.001 A 
ATOM      4  C   UNL     1       1.104   1.710  -0.365  0.00  0.00    +0.113 A 
ATOM      5  N   UNL     1       0.914   3.037  -0.631  0.00  0.00    -0.279 N 
ATOM      6  C   UNL     1      -0.228   3.811  -0.747  0.00  0.00    +0.075 A 
ATOM      7  C   UNL     1      -1.585   3.543  -0.639  0.00  0.00    +0.028 A 
ATOM      8  C   UNL     1      -2.499   4.561  -0.814  0.00  0.00    +0.002 A 
ATOM      9  C   UNL     1      -2.071   5.851  -1.096  0.00  0.00    +0.002 A 
ATOM     10  C   UNL     1      -0.739   6.135  -1.205  0.00  0.00    +0.030 A 
ATOM     11  C   UNL     1       0.207   5.118  -1.032  0.00  0.00    +0.090 A 
ATOM     12  N   UNL     1       1.560   5.092  -1.079  0.00  0.00    -0.226 NA
ATOM     13  C   UNL     1       1.989   3.866  -0.843  0.00  0.00    +0.158 A 
ATOM     14  C   UNL     1       3.343   3.305  -0.779  0.00  0.00    +0.098 A 
ENDROOT
BRANCH  14  15
ATOM     15  C   UNL     1       4.489   4.137  -0.993  0.00  0.00    +0.103 C 
ATOM     16  N   UNL     1       5.398   4.797  -1.163  0.00  0.00    -0.191 NA
ENDBRANCH  14  15
BRANCH   4  17
ATOM     17  N   UNL     1       0.009   0.904  -0.157  0.00  0.00    -0.300 N 
ATOM     18  H   UNL     1      -0.394   0.300  -0.983  0.00  0.00    +0.154 HD
BRANCH  17  19
ATOM     19  C   UNL     1      -0.588   0.851   1.099  0.00  0.00    +0.032 A 
ATOM     20  C   UNL     1      -0.013   1.528   2.171  0.00  0.00    +0.024 A 
ATOM     21  C   UNL     1      -0.604   1.482   3.413  0.00  0.00    +0.015 A 
ATOM     22  C   UNL     1      -1.777   0.746   3.600  0.00  0.00    +0.037 A 
ATOM     23  C   UNL     1      -2.350   0.063   2.523  0.00  0.00    +0.015 A 
ATOM     24  C   UNL     1      -1.757   0.117   1.283  0.00  0.00    +0.024 A 
BRANCH  22  25
ATOM     25  C   UNL     1      -2.410   0.690   4.932  0.00  0.00    +0.242 C 
ATOM     26  O   UNL     1      -3.374  -0.028   5.117  0.00  0.00    -0.270 OA
ATOM     27  N   UNL     1      -1.921   1.436   5.943  0.00  0.00    -0.325 N 
ATOM     28  H   UNL     1      -2.393   1.394   6.935  0.00  0.00    +0.145 HD
ATOM     29  H   UNL     1      -1.050   2.086   5.775  0.00  0.00    +0.145 HD
ENDBRANCH  22  25
ENDBRANCH  17  19
ENDBRANCH   4  17
BRANCH   3  30
ATOM     30  C   UNL     1       2.524  -0.304   0.009  0.00  0.00    +0.065 C 
BRANCH  30  31
ATOM     31  C   UNL     1       2.528  -1.085  -1.280  0.00  0.00    -0.030 C 
ATOM     32  C   UNL     1       3.525  -1.889  -1.556  0.00  0.00    +0.004 C 
ENDBRANCH  30  31
ENDBRANCH   3  30
TORSDOF 6
