REMARK  Name = ZINC44169058
REMARK  8 active torsions:
REMARK  status: ('A' for Active; 'I' for Inactive)
REMARK    1  A    between atoms: C_1  and  C_2
REMARK    2  A    between atoms: C_2  and  C_3
REMARK    3  A    between atoms: C_2  and  S_4
REMARK    4  A    between atoms: S_4  and  C_5
REMARK    5  A    between atoms: C_7  and  O_21
REMARK    6  A    between atoms: C_9  and  O_20
REMARK    7  A    between atoms: C_11  and  O_19
REMARK    8  A    between atoms: C_13  and  C_16
REMARK                            x       y       z     vdW  Elec       q    Type
REMARK                         _______ _______ _______ _____ _____    ______ ____
ROOT
ATOM      1  C   UNL     1      -0.166  -0.072   2.855  0.00  0.00    +0.208 C 
ATOM      2  C   UNL     1       0.400  -0.626   4.165  0.00  0.00    +0.184 C 
ATOM      3  C   UNL     1      -0.452  -0.122   5.334  0.00  0.00    +0.178 C 
ATOM      4  C   UNL     1      -0.475   1.410   5.312  0.00  0.00    +0.185 C 
ATOM      5  C   UNL     1      -1.007   1.885   3.958  0.00  0.00    +0.263 C 
ATOM      6  O   UNL     1      -0.188   1.356   2.913  0.00  0.00    -0.346 OA
ENDROOT
BRANCH   5   7
ATOM      7  C   UNL     1      -0.977   3.391   3.906  0.00  0.00    +0.387 C 
ATOM      8  O   UNL     1      -0.246   3.959   3.114  0.00  0.00    -0.243 OA
ATOM      9  O   UNL     1      -1.684   4.041   4.658  0.00  0.00    -0.243 OA
ENDBRANCH   5   7
BRANCH   4  10
ATOM     10  O   UNL     1       0.849   1.910   5.509  0.00  0.00    -0.386 OA
ATOM     11  H   UNL     1       0.910   2.875   5.506  0.00  0.00    +0.210 HD
ENDBRANCH   4  10
BRANCH   3  12
ATOM     12  O   UNL     1       0.111  -0.576   6.567  0.00  0.00    -0.386 OA
ATOM     13  H   UNL     1      -0.380  -0.293   7.351  0.00  0.00    +0.210 HD
ENDBRANCH   3  12
BRANCH   2  14
ATOM     14  O   UNL     1       0.371  -2.054   4.132  0.00  0.00    -0.386 OA
ATOM     15  H   UNL     1       0.887  -2.441   3.412  0.00  0.00    +0.210 HD
ENDBRANCH   2  14
BRANCH   1  16
ATOM     16  S   UNL     1       0.879  -0.605   1.472  0.00  0.00    -0.124 S 
BRANCH  16  18
ATOM     17  C   UNL     1      -0.019   1.526   0.010  0.00  0.00    +0.019 C 
ATOM     18  C   UNL     1       0.002  -0.004   0.002  0.00  0.00    +0.043 C 
ATOM     19  C   UNL     1       0.718  -0.497  -1.257  0.00  0.00    +0.019 C 
ENDBRANCH  16  18
ENDBRANCH   1  16
TORSDOF 6
