REMARK  Name = ZINC31158888
REMARK  5 active torsions:
REMARK  status: ('A' for Active; 'I' for Inactive)
REMARK    1  A    between atoms: C_1  and  C_2
REMARK    2  A    between atoms: C_15  and  O_28
REMARK    3  A    between atoms: C_17  and  O_27
REMARK    4  A    between atoms: C_19  and  O_26
REMARK    5  A    between atoms: C_20  and  O_25
REMARK                            x       y       z     vdW  Elec       q    Type
REMARK                         _______ _______ _______ _____ _____    ______ ____
ROOT
ATOM      1  C   UNL     1      -0.019   1.525   0.010  0.00  0.00    +0.008 C 
ATOM      2  C   UNL     1       0.002  -0.004   0.002  0.00  0.00    -0.003 C 
ATOM      3  C   UNL     1       0.726  -0.500  -1.245  0.00  0.00    +0.036 C 
ATOM      4  C   UNL     1       0.812  -2.011  -1.260  0.00  0.00    -0.042 C 
ATOM      5  C   UNL     1       0.825  -2.706  -0.125  0.00  0.00    +0.009 C 
ATOM      6  C   UNL     1       0.924  -4.203  -0.149  0.00  0.00    +0.130 C 
ATOM      7  C   UNL     1       1.531  -4.753   1.114  0.00  0.00    +0.174 C 
ATOM      8  O   UNL     1       0.827  -5.170   2.010  0.00  0.00    -0.291 OA
ATOM      9  C   UNL     1       3.001  -4.788   1.235  0.00  0.00    +0.027 A 
ATOM     10  C   UNL     1       3.587  -5.061   2.475  0.00  0.00    +0.012 A 
ATOM     11  C   UNL     1       4.960  -5.105   2.591  0.00  0.00    +0.004 A 
ATOM     12  C   UNL     1       5.755  -4.880   1.482  0.00  0.00    +0.046 A 
ATOM     13  C   UNL     1       5.180  -4.600   0.250  0.00  0.00    +0.123 A 
ATOM     14  C   UNL     1       3.799  -4.544   0.118  0.00  0.00    +0.036 A 
ATOM     15  C   UNL     1       3.203  -4.209  -1.222  0.00  0.00    +0.184 C 
ATOM     16  C   UNL     1       1.758  -4.675  -1.341  0.00  0.00    +0.137 C 
ATOM     17  C   UNL     1       1.118  -4.152  -2.625  0.00  0.00    +0.172 C 
ATOM     18  C   UNL     1       0.860  -2.662  -2.615  0.00  0.00    +0.138 C 
ATOM     19 CL   UNL     1       2.088  -1.827  -3.641  0.00  0.00    -0.114 Cl
ATOM     20  C   UNL     1       0.729  -2.031   1.176  0.00  0.00    +0.160 C 
ATOM     21  O   UNL     1       0.627  -2.664   2.208  0.00  0.00    -0.292 OA
ATOM     22  C   UNL     1       0.761  -0.520   1.233  0.00  0.00    +0.083 C 
ENDROOT
BRANCH  17  23
ATOM     23  O   UNL     1       1.948  -4.487  -3.749  0.00  0.00    -0.387 OA
ATOM     24  H   UNL     1       1.600  -4.184  -4.599  0.00  0.00    +0.210 HD
ENDBRANCH  17  23
BRANCH  16  25
ATOM     25  O   UNL     1       1.743  -6.122  -1.363  0.00  0.00    -0.382 OA
ATOM     26  H   UNL     1       2.250  -6.509  -2.090  0.00  0.00    +0.210 HD
ENDBRANCH  16  25
BRANCH  15  27
ATOM     27  O   UNL     1       3.312  -2.803  -1.424  0.00  0.00    -0.384 OA
ATOM     28  H   UNL     1       4.222  -2.474  -1.414  0.00  0.00    +0.210 HD
ENDBRANCH  15  27
BRANCH  13  29
ATOM     29  O   UNL     1       5.977  -4.381  -0.829  0.00  0.00    -0.506 OA
ATOM     30  H   UNL     1       6.190  -5.181  -1.329  0.00  0.00    +0.292 HD
ENDBRANCH  13  29
TORSDOF 4
