REMARK  Name = ZINC09486940
REMARK  11 active torsions:
REMARK  status: ('A' for Active; 'I' for Inactive)
REMARK    1  A    between atoms: C_1  and  C_2
REMARK    2  A    between atoms: C_5  and  C_8
REMARK    3  A    between atoms: C_10  and  C_14
REMARK    4  A    between atoms: C_17  and  S_20
REMARK    5  A    between atoms: N_18  and  N_19
REMARK    6  A    between atoms: S_20  and  C_21
REMARK    7  A    between atoms: C_21  and  C_22
REMARK    8  A    between atoms: N_24  and  C_25
REMARK    9  A    between atoms: C_26  and  C_33
REMARK   10  A    between atoms: C_28  and  C_32
REMARK   11  A    between atoms: C_30  and  C_31
REMARK                            x       y       z     vdW  Elec       q    Type
REMARK                         _______ _______ _______ _____ _____    ______ ____
ROOT
ATOM      1  C   UNL     1       0.417  -7.222   2.373  0.00  0.00    +0.202 A 
ATOM      2  N   UNL     1      -0.505  -7.489   3.268  0.00  0.00    -0.125 NA
ATOM      3  N   UNL     1      -0.411  -8.715   3.642  0.00  0.00    -0.120 NA
ATOM      4  C   UNL     1       0.577  -9.305   3.009  0.00  0.00    +0.209 A 
ATOM      5  N   UNL     1       1.136  -8.378   2.176  0.00  0.00    -0.222 N 
ENDROOT
BRANCH   1   8
ATOM      6  C   UNL     1       0.410  -3.779   1.101  0.00  0.00    +0.066 A 
ATOM      7  C   UNL     1      -0.106  -4.748   1.910  0.00  0.00    +0.061 A 
ATOM      8  C   UNL     1       0.638  -5.924   1.698  0.00  0.00    +0.132 A 
ATOM      9  N   UNL     1       1.565  -5.670   0.797  0.00  0.00    -0.170 NA
ATOM     10  N   UNL     1       1.442  -4.332   0.401  0.00  0.00    -0.276 N 
ATOM     11  H   UNL     1       1.994  -3.878  -0.254  0.00  0.00    +0.189 HD
BRANCH   6  16
ATOM     12  C   UNL     1      -1.448   1.654   0.696  0.00  0.00    +0.044 C 
ATOM     13  C   UNL     1      -0.961   0.232   0.802  0.00  0.00    -0.050 A 
ATOM     14  C   UNL     1       0.103  -0.192   0.027  0.00  0.00    +0.004 A 
ATOM     15  C   UNL     1       0.553  -1.493   0.119  0.00  0.00    +0.010 A 
ATOM     16  C   UNL     1      -0.067  -2.382   0.997  0.00  0.00    -0.000 A 
ATOM     17  C   UNL     1      -1.140  -1.948   1.777  0.00  0.00    +0.010 A 
ATOM     18  C   UNL     1      -1.577  -0.643   1.679  0.00  0.00    +0.004 A 
ENDBRANCH   6  16
ENDBRANCH   1   8
BRANCH   5  19
ATOM     19  N   UNL     1       2.190  -8.560   1.326  0.00  0.00    -0.295 N 
ATOM     20  H   UNL     1       3.064  -8.355   1.786  0.00  0.00    +0.163 HD
ATOM     21  H   UNL     1       2.191  -9.495   0.947  0.00  0.00    +0.163 HD
ENDBRANCH   5  19
BRANCH   4  22
ATOM     22  S   UNL     1       1.084 -10.982   3.196  0.00  0.00    -0.075 S 
BRANCH  22  23
ATOM     23  C   UNL     1      -0.062 -11.652   4.433  0.00  0.00    +0.173 C 
BRANCH  23  24
ATOM     24  C   UNL     1       0.266 -13.101   4.689  0.00  0.00    +0.228 C 
ATOM     25  O   UNL     1       1.182 -13.629   4.096  0.00  0.00    -0.275 OA
ATOM     26  N   UNL     1      -0.460 -13.809   5.577  0.00  0.00    -0.284 N 
ATOM     27  H   UNL     1      -1.144 -13.368   6.105  0.00  0.00    +0.155 HD
BRANCH  26  28
ATOM     28  C   UNL     1      -0.225 -15.179   5.738  0.00  0.00    +0.039 A 
ATOM     29  C   UNL     1       0.043 -15.695   6.999  0.00  0.00    -0.029 A 
ATOM     30  C   UNL     1       0.274 -17.048   7.154  0.00  0.00    +0.008 A 
ATOM     31  C   UNL     1       0.239 -17.888   6.056  0.00  0.00    -0.050 A 
ATOM     32  C   UNL     1      -0.027 -17.376   4.799  0.00  0.00    +0.008 A 
ATOM     33  C   UNL     1      -0.266 -16.026   4.638  0.00  0.00    -0.029 A 
ATOM     34  C   UNL     1      -0.562 -15.470   3.269  0.00  0.00    +0.045 C 
ATOM     35  C   UNL     1       0.491 -19.363   6.229  0.00  0.00    +0.044 C 
ATOM     36  C   UNL     1       0.082 -14.781   8.196  0.00  0.00    +0.045 C 
ENDBRANCH  26  28
ENDBRANCH  23  24
ENDBRANCH  22  23
ENDBRANCH   4  22
TORSDOF 7
