REMARK  Name = ZINC66616453
REMARK  10 active torsions:
REMARK  status: ('A' for Active; 'I' for Inactive)
REMARK    1  A    between atoms: C_1  and  C_2
REMARK    2  A    between atoms: C_5  and  C_12
REMARK    3  A    between atoms: C_8  and  C_10
REMARK    4  A    between atoms: C_8  and  C_11
REMARK    5  A    between atoms: C_12  and  C_13
REMARK    6  A    between atoms: N_15  and  C_16
REMARK    7  A    between atoms: C_16  and  C_17
REMARK    8  A    between atoms: C_20  and  C_23
REMARK    9  A    between atoms: N_25  and  C_26
REMARK   10  A    between atoms: C_26  and  C_27
REMARK                            x       y       z     vdW  Elec       q    Type
REMARK                         _______ _______ _______ _____ _____    ______ ____
ROOT
ATOM      1  C   UNL     1      -6.907  -2.693  -2.709  0.00  0.00    -0.030 A 
ATOM      2  C   UNL     1      -7.180  -3.951  -3.216  0.00  0.00    +0.006 A 
ATOM      3  C   UNL     1      -8.472  -4.434  -3.209  0.00  0.00    +0.013 A 
ATOM      4  C   UNL     1      -9.504  -3.651  -2.690  0.00  0.00    +0.037 A 
ATOM      5  C   UNL     1      -9.222  -2.383  -2.181  0.00  0.00    +0.013 A 
ATOM      6  C   UNL     1      -7.924  -1.914  -2.188  0.00  0.00    +0.006 A 
ENDROOT
BRANCH   4   7
ATOM      7  C   UNL     1     -10.892  -4.163  -2.680  0.00  0.00    +0.244 C 
ATOM      8  O   UNL     1     -11.135  -5.268  -3.124  0.00  0.00    -0.270 OA
ATOM      9  N   UNL     1     -11.886  -3.404  -2.178  0.00  0.00    -0.303 N 
ATOM     10  H   UNL     1     -11.692  -2.522  -1.823  0.00  0.00    +0.150 HD
BRANCH   9  11
ATOM     11  C   UNL     1     -13.261  -3.911  -2.168  0.00  0.00    +0.200 C 
BRANCH  11  12
ATOM     12  C   UNL     1     -14.173  -2.877  -1.559  0.00  0.00    +0.228 C 
ATOM     13  O   UNL     1     -13.719  -1.821  -1.172  0.00  0.00    -0.274 OA
ATOM     14  N   UNL     1     -15.492  -3.127  -1.445  0.00  0.00    -0.328 N 
ATOM     15  H   UNL     1     -15.855  -3.971  -1.755  0.00  0.00    +0.145 HD
ATOM     16  H   UNL     1     -16.079  -2.461  -1.053  0.00  0.00    +0.145 HD
ENDBRANCH  11  12
ENDBRANCH   9  11
ENDBRANCH   4   7
BRANCH   1  17
ATOM     17  C   UNL     1      -5.493  -2.171  -2.720  0.00  0.00    +0.139 C 
BRANCH  17  20
ATOM     18  C   UNL     1      -3.539  -2.197  -1.264  0.00  0.00    +0.214 C 
ATOM     19  O   UNL     1      -2.943  -1.554  -2.102  0.00  0.00    -0.276 OA
ATOM     20  N   UNL     1      -4.821  -2.557  -1.477  0.00  0.00    -0.311 N 
ATOM     21  H   UNL     1      -5.298  -3.071  -0.807  0.00  0.00    +0.149 HD
BRANCH  18  22
ATOM     22  C   UNL     1      -2.848  -2.593   0.015  0.00  0.00    +0.099 C 
BRANCH  22  26
ATOM     23  C   UNL     1      -0.019   1.526   0.010  0.00  0.00    +0.007 C 
ATOM     24  C   UNL     1       0.002  -0.004   0.002  0.00  0.00    -0.013 C 
ATOM     25  C   UNL     1      -1.433  -0.534   0.013  0.00  0.00    +0.007 C 
ATOM     26  C   UNL     1      -1.413  -2.063   0.004  0.00  0.00    -0.002 C 
ATOM     27  C   UNL     1      -0.673  -2.570   1.244  0.00  0.00    +0.010 C 
ATOM     28  C   UNL     1       0.763  -2.041   1.233  0.00  0.00    -0.034 C 
ATOM     29  C   UNL     1       0.742  -0.511   1.242  0.00  0.00    +0.009 C 
ATOM     30  C   UNL     1       1.479  -2.534  -0.026  0.00  0.00    +0.011 C 
ATOM     31  C   UNL     1       1.503  -2.548   2.473  0.00  0.00    +0.011 C 
ENDBRANCH  22  26
ENDBRANCH  18  22
ENDBRANCH  17  20
ENDBRANCH   1  17
TORSDOF 7
