REMARK  Name = ZINC63933778
REMARK  6 active torsions:
REMARK  status: ('A' for Active; 'I' for Inactive)
REMARK    1  A    between atoms: C_1  and  C_2
REMARK    2  A    between atoms: C_2  and  C_3
REMARK    3  A    between atoms: C_3  and  C_5
REMARK    4  A    between atoms: C_3  and  N_6
REMARK    5  A    between atoms: C_7  and  O_30
REMARK    6  A    between atoms: C_9  and  C_15
REMARK                            x       y       z     vdW  Elec       q    Type
REMARK                         _______ _______ _______ _____ _____    ______ ____
ROOT
ATOM      1  N   UNL     1      -2.105  -0.148  -1.230  0.00  0.00    -0.253 N 
ATOM      2  C   UNL     1      -3.313   0.693  -1.205  0.00  0.00    +0.240 C 
ATOM      3  C   UNL     1      -3.942   1.042  -2.538  0.00  0.00    +0.058 C 
ATOM      4  C   UNL     1      -3.368   0.572  -3.640  0.00  0.00    +0.249 C 
ATOM      5  N   UNL     1      -2.229  -0.216  -3.576  0.00  0.00    -0.236 N 
ATOM      6  C   UNL     1      -1.629  -0.551  -2.426  0.00  0.00    +0.311 C 
ATOM      7  O   UNL     1      -0.629  -1.242  -2.460  0.00  0.00    -0.252 OA
ATOM      8  O   UNL     1      -3.907   0.867  -4.850  0.00  0.00    -0.270 OA
ATOM      9  H   UNL     1      -1.844  -0.537  -4.406  0.00  0.00    +0.159 HD
ENDROOT
BRANCH   3  10
ATOM     10  C   UNL     1      -5.180   1.898  -2.611  0.00  0.00    +0.116 C 
ATOM     11  C   UNL     1      -4.870   3.301  -2.086  0.00  0.00    +0.128 C 
ATOM     12  C   UNL     1      -6.202   4.041  -2.035  0.00  0.00    -0.035 C 
ATOM     13  C   UNL     1      -6.036   5.160  -2.727  0.00  0.00    -0.001 A 
ATOM     14  C   UNL     1      -6.925   6.309  -2.963  0.00  0.00    +0.010 A 
ATOM     15  C   UNL     1      -6.429   7.300  -3.750  0.00  0.00    +0.001 A 
ATOM     16  C   UNL     1      -5.152   7.262  -4.321  0.00  0.00    +0.002 A 
ATOM     17  C   UNL     1      -4.266   6.249  -4.152  0.00  0.00    +0.026 A 
ATOM     18  C   UNL     1      -4.672   5.151  -3.339  0.00  0.00    +0.043 A 
ATOM     19  N   UNL     1      -4.011   4.064  -2.991  0.00  0.00    -0.376 N 
ATOM     20  C   UNL     1      -7.417   3.439  -1.372  0.00  0.00    +0.048 C 
ATOM     21  C   UNL     1      -7.526   1.998  -1.903  0.00  0.00    +0.086 C 
ATOM     22  N   UNL     1      -6.238   1.312  -1.772  0.00  0.00    -0.307 NA
ATOM     23  H   UNL     1      -6.334   0.324  -1.950  0.00  0.00    +0.123 HD
ATOM     24  H   UNL     1      -3.122   3.806  -3.281  0.00  0.00    +0.160 HD
ENDBRANCH   3  10
BRANCH   1  25
ATOM     25  C   UNL     1      -1.433  -0.534   0.013  0.00  0.00    +0.077 C 
ATOM     26  C   UNL     1      -1.413  -2.059   0.130  0.00  0.00    +0.028 C 
BRANCH  25  28
ATOM     27  C   UNL     1      -0.019   1.526   0.010  0.00  0.00    +0.006 C 
ATOM     28  C   UNL     1       0.002  -0.004   0.002  0.00  0.00    +0.019 C 
ENDBRANCH  25  28
ENDBRANCH   1  25
BRANCH   2  29
ATOM     29  O   UNL     1      -2.984   1.915  -0.541  0.00  0.00    -0.370 OA
ATOM     30  H   UNL     1      -2.680   1.798   0.370  0.00  0.00    +0.212 HD
ENDBRANCH   2  29
TORSDOF 4
