REMARK  Name = ZINC17535292
REMARK  6 active torsions:
REMARK  status: ('A' for Active; 'I' for Inactive)
REMARK    1  A    between atoms: C_1  and  O_2
REMARK    2  A    between atoms: O_2  and  C_3
REMARK    3  A    between atoms: C_6  and  N_9
REMARK    4  A    between atoms: C_18  and  S_19
REMARK    5  A    between atoms: S_19  and  C_20
REMARK    6  A    between atoms: C_20  and  C_21
REMARK                            x       y       z     vdW  Elec       q    Type
REMARK                         _______ _______ _______ _____ _____    ______ ____
ROOT
ATOM      1  N   UNL     1       1.884   1.746   4.015  0.00  0.00    -0.255 N 
ATOM      2  C   UNL     1       1.241   0.945   3.145  0.00  0.00    +0.268 A 
ATOM      3  O   UNL     1       1.835   0.043   2.580  0.00  0.00    -0.267 OA
ATOM      4  C   UNL     1      -0.149   1.169   2.892  0.00  0.00    +0.076 A 
ATOM      5  C   UNL     1      -1.036   0.422   1.992  0.00  0.00    -0.023 A 
ATOM      6  C   UNL     1      -2.311   0.844   1.919  0.00  0.00    -0.004 A 
ATOM      7  S   UNL     1      -2.414   2.216   3.040  0.00  0.00    -0.073 S 
ATOM      8  C   UNL     1      -0.736   2.235   3.593  0.00  0.00    +0.117 A 
ATOM      9  N   UNL     1      -0.046   2.988   4.441  0.00  0.00    -0.215 NA
ATOM     10  C   UNL     1       1.234   2.761   4.657  0.00  0.00    +0.178 A 
ATOM     11  C   UNL     1      -3.414   0.284   1.075  0.00  0.00    +0.043 C 
ATOM     12  C   UNL     1      -3.461  -1.240   1.245  0.00  0.00    +0.005 C 
ATOM     13  C   UNL     1      -2.545  -1.868   0.200  0.00  0.00    +0.001 C 
ATOM     14  C   UNL     1      -1.355  -0.949  -0.071  0.00  0.00    +0.005 C 
ATOM     15  C   UNL     1      -0.521  -0.771   1.192  0.00  0.00    +0.037 C 
ENDROOT
BRANCH   1  19
ATOM     16  C   UNL     1       5.939   1.114   4.765  0.00  0.00    +0.120 A 
ATOM     17  C   UNL     1       4.982   0.469   5.535  0.00  0.00    +0.047 A 
ATOM     18  C   UNL     1       3.640   0.678   5.287  0.00  0.00    +0.030 A 
ATOM     19  C   UNL     1       3.248   1.534   4.267  0.00  0.00    +0.052 A 
ATOM     20  C   UNL     1       4.205   2.175   3.493  0.00  0.00    +0.030 A 
ATOM     21  C   UNL     1       5.547   1.970   3.745  0.00  0.00    +0.047 A 
BRANCH  16  23
ATOM     22  C   UNL     1       8.190   1.605   4.177  0.00  0.00    +0.277 C 
ATOM     23  O   UNL     1       7.260   0.908   5.009  0.00  0.00    -0.495 OA
ENDBRANCH  16  23
ENDBRANCH   1  19
BRANCH  10  24
ATOM     24  S   UNL     1       2.118   3.781   5.790  0.00  0.00    -0.079 S 
BRANCH  24  25
ATOM     25  C   UNL     1       0.793   4.902   6.305  0.00  0.00    +0.153 C 
BRANCH  25  26
ATOM     26  C   UNL     1       1.333   5.892   7.304  0.00  0.00    +0.146 A 
ATOM     27  N   UNL     1       1.293   5.615   8.595  0.00  0.00    -0.199 NA
ATOM     28  C   UNL     1       1.773   6.485   9.480  0.00  0.00    +0.217 A 
ATOM     29  N   UNL     1       2.284   7.639   9.064  0.00  0.00    -0.181 NA
ATOM     30  C   UNL     1       2.317   7.917   7.766  0.00  0.00    +0.217 A 
ATOM     31  N   UNL     1       1.840   7.039   6.886  0.00  0.00    -0.199 NA
ATOM     32  N   UNL     1       2.846   9.115   7.329  0.00  0.00    -0.327 N 
ATOM     33  N   UNL     1       1.736   6.192  10.828  0.00  0.00    -0.327 N 
ATOM     34  H   UNL     1       2.870   9.317   6.380  0.00  0.00    +0.145 HD
ATOM     35  H   UNL     1       3.194   9.754   7.970  0.00  0.00    +0.145 HD
ATOM     36  H   UNL     1       2.083   6.829  11.473  0.00  0.00    +0.145 HD
ATOM     37  H   UNL     1       1.364   5.349  11.131  0.00  0.00    +0.145 HD
ENDBRANCH  25  26
ENDBRANCH  24  25
ENDBRANCH  10  24
TORSDOF 5
