REMARK  Name = ZINC04772744
REMARK  14 active torsions:
REMARK  status: ('A' for Active; 'I' for Inactive)
REMARK    1  A    between atoms: C_1  and  C_2
REMARK    2  A    between atoms: C_5  and  N_9
REMARK    3  A    between atoms: C_7  and  C_8
REMARK    4  A    between atoms: N_9  and  C_10
REMARK    5  A    between atoms: N_9  and  N_22
REMARK    6  A    between atoms: C_10  and  C_11
REMARK    7  A    between atoms: C_11  and  C_13
REMARK    8  A    between atoms: C_11  and  O_21
REMARK    9  A    between atoms: C_13  and  C_15
REMARK   10  A    between atoms: C_13  and  O_20
REMARK   11  A    between atoms: C_15  and  C_17
REMARK   12  A    between atoms: C_15  and  O_19
REMARK   13  A    between atoms: C_17  and  O_18
REMARK   14  A    between atoms: N_23  and  C_24
REMARK                            x       y       z     vdW  Elec       q    Type
REMARK                         _______ _______ _______ _____ _____    ______ ____
ROOT
ATOM      1  N   UNL     1      -2.454   3.823   0.046  0.00  0.00    -0.204 N 
ENDROOT
BRANCH   1   6
ATOM      2  C   UNL     1       2.439   1.115  -0.900  0.00  0.00    +0.044 C 
ATOM      3  C   UNL     1       1.139   1.835  -0.649  0.00  0.00    -0.047 A 
ATOM      4  C   UNL     1       0.805   2.942  -1.408  0.00  0.00    +0.005 A 
ATOM      5  C   UNL     1      -0.383   3.607  -1.177  0.00  0.00    +0.025 A 
ATOM      6  C   UNL     1      -1.248   3.156  -0.187  0.00  0.00    +0.053 A 
ATOM      7  C   UNL     1      -0.909   2.044   0.574  0.00  0.00    +0.028 A 
ATOM      8  C   UNL     1       0.283   1.387   0.341  0.00  0.00    -0.046 A 
ATOM      9  C   UNL     1       0.651   0.181   1.165  0.00  0.00    +0.044 C 
ENDBRANCH   1   6
BRANCH   1  10
ATOM     10  N   UNL     1      -2.471   5.219   0.159  0.00  0.00    -0.074 NA
ATOM     11  N   UNL     1      -1.363   5.881   0.152  0.00  0.00    -0.134 NA
BRANCH  11  12
ATOM     12  C   UNL     1      -1.381   7.248   0.262  0.00  0.00    +0.088 A 
ATOM     13  C   UNL     1      -2.595   7.926   0.377  0.00  0.00    +0.031 A 
ATOM     14  C   UNL     1      -2.605   9.301   0.494  0.00  0.00    +0.022 A 
ATOM     15  C   UNL     1      -1.415  10.008   0.486  0.00  0.00    +0.041 A 
ATOM     16  C   UNL     1      -0.207   9.341   0.366  0.00  0.00    +0.022 A 
ATOM     17  C   UNL     1      -0.184   7.966   0.255  0.00  0.00    +0.031 A 
ATOM     18 CL   UNL     1      -1.436  11.738   0.626  0.00  0.00    -0.084 Cl
ENDBRANCH  11  12
ENDBRANCH   1  10
BRANCH   1  19
ATOM     19  C   UNL     1      -3.699   3.062   0.172  0.00  0.00    +0.167 C 
BRANCH  19  20
ATOM     20  C   UNL     1      -4.281   2.802  -1.218  0.00  0.00    +0.165 C 
BRANCH  20  21
ATOM     21  O   UNL     1      -4.548   4.049  -1.864  0.00  0.00    -0.388 OA
ATOM     22  H   UNL     1      -5.178   4.610  -1.391  0.00  0.00    +0.210 HD
ENDBRANCH  20  21
BRANCH  20  23
ATOM     23  C   UNL     1      -5.582   2.008  -1.087  0.00  0.00    +0.175 C 
BRANCH  23  24
ATOM     24  O   UNL     1      -6.477   2.701  -0.214  0.00  0.00    -0.387 OA
ATOM     25  H   UNL     1      -6.714   3.588  -0.518  0.00  0.00    +0.210 HD
ENDBRANCH  23  24
BRANCH  23  26
ATOM     26  C   UNL     1      -6.229   1.855  -2.465  0.00  0.00    +0.171 C 
BRANCH  26  27
ATOM     27  O   UNL     1      -6.406   3.146  -3.053  0.00  0.00    -0.387 OA
ATOM     28  H   UNL     1      -6.970   3.739  -2.538  0.00  0.00    +0.210 HD
ENDBRANCH  26  27
BRANCH  26  29
ATOM     29  C   UNL     1      -7.589   1.171  -2.317  0.00  0.00    +0.189 C 
BRANCH  29  30
ATOM     30  O   UNL     1      -8.141   0.923  -3.612  0.00  0.00    -0.392 OA
ATOM     31  H   UNL     1      -9.005   0.490  -3.595  0.00  0.00    +0.210 HD
ENDBRANCH  29  30
ENDBRANCH  26  29
ENDBRANCH  23  26
ENDBRANCH  20  23
ENDBRANCH  19  20
ENDBRANCH   1  19
TORSDOF 12
