REMARK  Name = ZINC02682893
REMARK  8 active torsions:
REMARK  status: ('A' for Active; 'I' for Inactive)
REMARK    1  A    between atoms: C_4  and  C_7
REMARK    2  A    between atoms: C_8  and  C_9
REMARK    3  A    between atoms: N_11  and  C_12
REMARK    4  A    between atoms: C_12  and  C_14
REMARK    5  A    between atoms: C_12  and  N_18
REMARK    6  A    between atoms: N_18  and  C_19
REMARK    7  A    between atoms: C_19  and  N_21
REMARK    8  A    between atoms: N_21  and  C_22
REMARK                            x       y       z     vdW  Elec       q    Type
REMARK                         _______ _______ _______ _____ _____    ______ ____
ROOT
ATOM      1  C   UNL     1      -2.060   1.943  -0.204  0.00  0.00    +0.211 C 
ENDROOT
BRANCH   1   4
ATOM      2  C   UNL     1       0.243   2.413  -0.846  0.00  0.00    +0.238 C 
ATOM      3  O   UNL     1      -0.007   3.601  -0.765  0.00  0.00    -0.271 OA
ATOM      4  N   UNL     1      -0.715   1.502  -0.582  0.00  0.00    -0.290 N 
ATOM      5  H   UNL     1      -0.516   0.555  -0.647  0.00  0.00    +0.151 HD
BRANCH   2   7
ATOM      6  C   UNL     1       2.544   2.882  -1.494  0.00  0.00    +0.013 C 
ATOM      7  C   UNL     1       1.585   1.972  -1.230  0.00  0.00    +0.068 C 
BRANCH   6  11
ATOM      8  C   UNL     1       6.434   1.606  -2.606  0.00  0.00    +0.000 A 
ATOM      9  C   UNL     1       6.152   2.958  -2.516  0.00  0.00    +0.001 A 
ATOM     10  C   UNL     1       4.891   3.381  -2.155  0.00  0.00    +0.008 A 
ATOM     11  C   UNL     1       3.894   2.439  -1.881  0.00  0.00    -0.025 A 
ATOM     12  C   UNL     1       4.187   1.075  -1.969  0.00  0.00    +0.008 A 
ATOM     13  C   UNL     1       5.452   0.668  -2.336  0.00  0.00    +0.001 A 
ENDBRANCH   6  11
ENDBRANCH   2   7
ENDBRANCH   1   4
BRANCH   1  14
ATOM     14  C   UNL     1      -3.100   1.133  -0.981  0.00  0.00    +0.225 C 
ATOM     15 CL   UNL     1      -2.910  -0.617  -0.593  0.00  0.00    -0.080 Cl
ATOM     16 CL   UNL     1      -4.755   1.676  -0.515  0.00  0.00    -0.080 Cl
ATOM     17 CL   UNL     1      -2.860   1.387  -2.749  0.00  0.00    -0.080 Cl
ENDBRANCH   1  14
BRANCH   1  18
ATOM     18  N   UNL     1      -2.255   1.737   1.234  0.00  0.00    -0.305 N 
ATOM     19  H   UNL     1      -2.404   0.843   1.580  0.00  0.00    +0.150 HD
BRANCH  18  20
ATOM     20  C   UNL     1      -2.228   2.789   2.075  0.00  0.00    +0.136 C 
ATOM     21  S   UNL     1      -1.966   4.367   1.465  0.00  0.00    -0.019 S 
BRANCH  20  22
ATOM     22  N   UNL     1      -2.408   2.600   3.397  0.00  0.00    -0.297 N 
ATOM     23  H   UNL     1      -2.617   1.715   3.736  0.00  0.00    +0.154 HD
BRANCH  22  24
ATOM     24  C   UNL     1      -2.292   3.679   4.281  0.00  0.00    +0.033 A 
ATOM     25  C   UNL     1      -1.573   3.538   5.461  0.00  0.00    +0.024 A 
ATOM     26  C   UNL     1      -1.455   4.606   6.328  0.00  0.00    +0.017 A 
ATOM     27  C   UNL     1      -2.063   5.812   6.029  0.00  0.00    +0.018 A 
ATOM     28  C   UNL     1      -2.784   5.954   4.857  0.00  0.00    +0.017 A 
ATOM     29  C   UNL     1      -2.901   4.891   3.983  0.00  0.00    +0.024 A 
ATOM     30 BR   UNL     1      -1.906   7.270   7.223  0.00  0.00    -0.050 Br
ENDBRANCH  22  24
ENDBRANCH  20  22
ENDBRANCH  18  20
ENDBRANCH   1  18
TORSDOF 8
