REMARK  Name = ZINC33592511
REMARK  7 active torsions:
REMARK  status: ('A' for Active; 'I' for Inactive)
REMARK    1  A    between atoms: C_4  and  C_7
REMARK    2  A    between atoms: C_7  and  C_10
REMARK    3  A    between atoms: N_8  and  O_9
REMARK    4  A    between atoms: N_11  and  O_12
REMARK    5  A    between atoms: C_16  and  S_19
REMARK    6  A    between atoms: S_19  and  C_20
REMARK    7  A    between atoms: C_20  and  C_21
REMARK                            x       y       z     vdW  Elec       q    Type
REMARK                         _______ _______ _______ _____ _____    ______ ____
ROOT
ATOM      1  C   UNL     1       3.708  -2.168   0.067  0.00  0.00    +0.193 C 
ATOM      2  N   UNL     1       2.586  -2.825   0.074  0.00  0.00    -0.069 NA
ATOM      3  N   UNL     1       4.912  -2.851   0.161  0.00  0.00    -0.264 N 
ATOM      4  C   UNL     1       4.919  -4.232   0.263  0.00  0.00    +0.217 A 
ATOM      5  N   UNL     1       5.986  -4.995   0.363  0.00  0.00    -0.188 NA
ATOM      6  C   UNL     1       5.616  -6.279   0.442  0.00  0.00    +0.210 A 
ATOM      7  N   UNL     1       4.307  -6.348   0.393  0.00  0.00    -0.144 NA
ATOM      8  N   UNL     1       3.832  -5.032   0.281  0.00  0.00    -0.246 N 
ATOM      9  H   UNL     1       5.749  -2.361   0.155  0.00  0.00    +0.157 HD
ATOM     10  H   UNL     1       2.904  -4.752   0.227  0.00  0.00    +0.192 HD
ENDROOT
BRANCH   1  11
ATOM     11  C   UNL     1       3.701  -0.693  -0.042  0.00  0.00    +0.153 C 
ATOM     12  N   UNL     1       4.824  -0.043  -0.157  0.00  0.00    -0.083 NA
BRANCH  11  16
ATOM     13  C   UNL     1       0.017   1.427   0.023  0.00  0.00    +0.000 A 
ATOM     14  C   UNL     1       0.636   1.085   1.212  0.00  0.00    +0.001 A 
ATOM     15  C   UNL     1       1.832   0.397   1.198  0.00  0.00    +0.010 A 
ATOM     16  C   UNL     1       2.416   0.046  -0.019  0.00  0.00    +0.007 A 
ATOM     17  C   UNL     1       1.787   0.393  -1.214  0.00  0.00    +0.010 A 
ATOM     18  C   UNL     1       0.591   1.081  -1.187  0.00  0.00    +0.001 A 
ENDBRANCH  11  16
BRANCH  12  19
ATOM     19  O   UNL     1       4.825   1.373  -0.153  0.00  0.00    -0.409 OA
ATOM     20  H   UNL     1       5.705   1.765  -0.244  0.00  0.00    +0.328 HD
ENDBRANCH  12  19
ENDBRANCH   1  11
BRANCH   2  21
ATOM     21  O   UNL     1       1.355  -2.124   0.088  0.00  0.00    -0.408 OA
ATOM     22  H   UNL     1       0.579  -2.695   0.170  0.00  0.00    +0.328 HD
ENDBRANCH   2  21
BRANCH   6  23
ATOM     23  S   UNL     1       6.710  -7.652   0.589  0.00  0.00    -0.080 S 
BRANCH  23  24
ATOM     24  C   UNL     1       5.604  -9.089   0.648  0.00  0.00    +0.114 C 
BRANCH  24  25
ATOM     25  C   UNL     1       6.423 -10.348   0.775  0.00  0.00    -0.019 A 
ATOM     26  C   UNL     1       6.852 -11.010  -0.360  0.00  0.00    +0.006 A 
ATOM     27  C   UNL     1       7.603 -12.165  -0.244  0.00  0.00    +0.000 A 
ATOM     28  C   UNL     1       7.925 -12.658   1.007  0.00  0.00    +0.001 A 
ATOM     29  C   UNL     1       7.496 -11.997   2.142  0.00  0.00    +0.020 A 
ATOM     30  C   UNL     1       6.749 -10.838   2.027  0.00  0.00    +0.045 A 
ATOM     31 CL   UNL     1       6.215 -10.004   3.452  0.00  0.00    -0.083 Cl
ENDBRANCH  24  25
ENDBRANCH  23  24
ENDBRANCH   6  23
TORSDOF 7
