REMARK  Name = ZINC65525878
REMARK  6 active torsions:
REMARK  status: ('A' for Active; 'I' for Inactive)
REMARK    1  A    between atoms: C_1  and  C_2
REMARK    2  A    between atoms: C_2  and  C_3
REMARK    3  A    between atoms: C_2  and  C_4
REMARK    4  A    between atoms: C_4  and  C_5
REMARK    5  A    between atoms: C_8  and  C_20
REMARK    6  A    between atoms: N_10  and  C_12
REMARK                            x       y       z     vdW  Elec       q    Type
REMARK                         _______ _______ _______ _____ _____    ______ ____
ROOT
ATOM      1  C   UNL     1      -1.494  -2.099   0.008  0.00  0.00    +0.019 C 
ATOM      2  N   UNL     1      -2.875  -2.633  -0.146  0.00  0.00    +0.407 N 
ATOM      3  C   UNL     1      -2.665  -3.830  -0.997  0.00  0.00    +0.084 C 
ATOM      4  N   UNL     1      -1.380  -3.623  -1.685  0.00  0.00    -0.274 N 
ATOM      5  N   UNL     1      -0.882  -2.396  -1.312  0.00  0.00    -0.255 NA
ATOM      6  H   UNL     1      -3.260  -2.894   0.749  0.00  0.00    -0.080 HD
ATOM      7  H   UNL     1      -1.123  -1.688  -1.990  0.00  0.00    +0.142 HD
ATOM      8  H   UNL     1      -3.468  -1.963  -0.612  0.00  0.00    -0.080 HD
ENDROOT
BRANCH   4   9
ATOM      9  C   UNL     1      -0.767  -4.521  -2.563  0.00  0.00    +0.081 A 
ATOM     10  C   UNL     1      -1.449  -4.971  -3.686  0.00  0.00    +0.065 A 
ATOM     11  C   UNL     1      -0.839  -5.859  -4.554  0.00  0.00    +0.125 A 
ATOM     12  C   UNL     1       0.450  -6.301  -4.303  0.00  0.00    +0.041 A 
ATOM     13  C   UNL     1       1.130  -5.855  -3.185  0.00  0.00    +0.043 A 
ATOM     14  C   UNL     1       0.529  -4.962  -2.317  0.00  0.00    +0.146 A 
ATOM     15  F   UNL     1       1.197  -4.523  -1.228  0.00  0.00    -0.204 F 
ATOM     16  F   UNL     1      -1.502  -6.298  -5.646  0.00  0.00    -0.205 F 
ENDBRANCH   4   9
BRANCH   3  17
ATOM     17  C   UNL     1      -3.780  -3.953  -2.004  0.00  0.00    +0.024 A 
ATOM     18  C   UNL     1      -4.549  -5.066  -2.020  0.00  0.00    +0.021 A 
ATOM     19  C   UNL     1      -5.587  -5.186  -2.954  0.00  0.00    +0.007 A 
ATOM     20  C   UNL     1      -5.809  -4.173  -3.839  0.00  0.00    +0.070 A 
ATOM     21  C   UNL     1      -4.991  -3.030  -3.795  0.00  0.00    +0.249 A 
ATOM     22  O   UNL     1      -5.179  -2.115  -4.581  0.00  0.00    -0.268 OA
ATOM     23  N   UNL     1      -4.005  -2.942  -2.882  0.00  0.00    -0.326 N 
ATOM     24  H   UNL     1      -3.447  -2.149  -2.854  0.00  0.00    +0.169 HD
ENDBRANCH   3  17
BRANCH   1  25
ATOM     25  C   UNL     1      -1.520  -0.591   0.269  0.00  0.00    +0.004 C 
BRANCH  25  27
ATOM     26  C   UNL     1      -0.111   1.460   0.491  0.00  0.00    +0.007 C 
ATOM     27  C   UNL     1      -0.087  -0.064   0.356  0.00  0.00    -0.018 C 
ATOM     28  C   UNL     1       0.608  -0.673   1.575  0.00  0.00    +0.007 C 
ENDBRANCH  25  27
ENDBRANCH   1  25
TORSDOF 4
