REMARK  Name = ZINC04525413
REMARK  6 active torsions:
REMARK  status: ('A' for Active; 'I' for Inactive)
REMARK    1  A    between atoms: C_1  and  C_2
REMARK    2  A    between atoms: C_3  and  C_27
REMARK    3  A    between atoms: C_10  and  C_13
REMARK    4  A    between atoms: C_17  and  O_19
REMARK    5  A    between atoms: O_19  and  C_20
REMARK    6  A    between atoms: C_20  and  C_22
REMARK                            x       y       z     vdW  Elec       q    Type
REMARK                         _______ _______ _______ _____ _____    ______ ____
ROOT
ATOM      1  C   UNL     1      -1.767  -2.148   0.391  0.00  0.00    +0.045 C 
ATOM      2  C   UNL     1      -1.567  -0.656   0.310  0.00  0.00    -0.027 A 
ATOM      3  C   UNL     1      -2.614   0.190   0.343  0.00  0.00    -0.008 A 
ATOM      4  S   UNL     1      -1.850   1.798   0.223  0.00  0.00    -0.078 S 
ATOM      5  C   UNL     1      -0.210   1.319   0.133  0.00  0.00    +0.080 A 
ATOM      6  C   UNL     1      -0.247  -0.084   0.193  0.00  0.00    +0.068 A 
ATOM      7  C   UNL     1       1.046  -0.804   0.129  0.00  0.00    +0.248 C 
ATOM      8  O   UNL     1       1.092  -2.014   0.003  0.00  0.00    -0.270 OA
ATOM      9  N   UNL     1       2.171  -0.063   0.216  0.00  0.00    -0.289 N 
ATOM     10  C   UNL     1       2.178   1.362   0.527  0.00  0.00    +0.190 C 
ATOM     11  N   UNL     1       0.959   2.026   0.030  0.00  0.00    -0.316 N 
ATOM     12  C   UNL     1      -4.080  -0.142   0.457  0.00  0.00    +0.052 C 
ATOM     13  H   UNL     1       3.022  -0.503   0.064  0.00  0.00    +0.151 HD
ATOM     14  H   UNL     1       0.984   2.918  -0.351  0.00  0.00    +0.149 HD
ENDROOT
BRANCH  10  15
ATOM     15  C   UNL     1       2.261   1.541   2.021  0.00  0.00    -0.006 A 
ATOM     16  C   UNL     1       1.692   2.651   2.617  0.00  0.00    +0.007 A 
ATOM     17  C   UNL     1       1.762   2.815   3.988  0.00  0.00    +0.004 A 
ATOM     18  C   UNL     1       2.410   1.875   4.765  0.00  0.00    +0.046 A 
ATOM     19  C   UNL     1       2.987   0.763   4.169  0.00  0.00    +0.132 A 
ATOM     20  C   UNL     1       2.911   0.598   2.793  0.00  0.00    +0.053 A 
BRANCH  19  21
ATOM     21  O   UNL     1       3.625  -0.164   4.932  0.00  0.00    -0.422 OA
BRANCH  21  22
ATOM     22  C   UNL     1       4.966  -0.260   4.822  0.00  0.00    +0.351 C 
ATOM     23  O   UNL     1       5.579   0.538   4.137  0.00  0.00    -0.244 OA
BRANCH  22  24
ATOM     24  C   UNL     1       5.684  -1.324   5.525  0.00  0.00    +0.097 A 
ATOM     25  C   UNL     1       7.044  -1.596   5.545  0.00  0.00    +0.022 A 
ATOM     26  C   UNL     1       7.455  -2.668   6.296  0.00  0.00    +0.008 A 
ATOM     27  C   UNL     1       6.530  -3.399   6.973  0.00  0.00    +0.046 A 
ATOM     28  S   UNL     1       5.039  -2.604   6.587  0.00  0.00    -0.090 S 
ENDBRANCH  22  24
ENDBRANCH  21  22
ENDBRANCH  19  21
ENDBRANCH  10  15
TORSDOF 4
