REMARK  Name = ZINC42406094
REMARK  3 active torsions:
REMARK  status: ('A' for Active; 'I' for Inactive)
REMARK    1  A    between atoms: C_4  and  N_21
REMARK    2  A    between atoms: C_7  and  N_11
REMARK    3  A    between atoms: C_16  and  C_18
REMARK                            x       y       z     vdW  Elec       q    Type
REMARK                         _______ _______ _______ _____ _____    ______ ____
ROOT
ATOM      1  C   UNL     1       1.972   2.118  -0.920  0.00  0.00    +0.020 A 
ATOM      2  C   UNL     1       3.272   2.417  -0.624  0.00  0.00    +0.013 A 
ATOM      3  C   UNL     1       4.143   1.359  -0.312  0.00  0.00    +0.023 A 
ATOM      4  C   UNL     1       5.497   1.594   0.005  0.00  0.00    +0.034 A 
ATOM      5  C   UNL     1       6.320   0.531   0.305  0.00  0.00    +0.025 A 
ATOM      6  C   UNL     1       5.831  -0.772   0.300  0.00  0.00    +0.027 A 
ATOM      7  C   UNL     1       4.513  -1.032  -0.005  0.00  0.00    +0.057 A 
ATOM      8  C   UNL     1       3.643   0.034  -0.318  0.00  0.00    +0.094 A 
ATOM      9  N   UNL     1       2.360  -0.192  -0.616  0.00  0.00    -0.253 NA
ATOM     10  C   UNL     1       1.544   0.793  -0.908  0.00  0.00    +0.111 A 
ENDROOT
BRANCH   7  11
ATOM     11  N   UNL     1       4.040  -2.348  -0.006  0.00  0.00    -0.317 N 
ATOM     12  C   UNL     1       4.097  -3.163  -1.227  0.00  0.00    +0.106 C 
ATOM     13  C   UNL     1       4.818  -4.477  -0.910  0.00  0.00    +0.019 C 
ATOM     14  C   UNL     1       4.127  -5.162   0.271  0.00  0.00    +0.004 C 
ATOM     15  C   UNL     1       4.205  -4.258   1.504  0.00  0.00    +0.032 C 
ATOM     16  C   UNL     1       3.482  -2.944   1.216  0.00  0.00    +0.159 C 
BRANCH  16  17
ATOM     17  C   UNL     1       3.676  -1.999   2.373  0.00  0.00    +0.231 C 
ATOM     18  O   UNL     1       4.719  -1.390   2.490  0.00  0.00    -0.274 OA
ATOM     19  N   UNL     1       2.692  -1.829   3.277  0.00  0.00    -0.328 N 
ATOM     20  H   UNL     1       1.858  -2.316   3.183  0.00  0.00    +0.145 HD
ATOM     21  H   UNL     1       2.817  -1.221   4.022  0.00  0.00    +0.145 HD
ENDBRANCH  16  17
ENDBRANCH   7  11
BRANCH   4  22
ATOM     22  N   UNL     1       6.000   2.896   0.013  0.00  0.00    -0.357 N 
ATOM     23  H   UNL     1       5.418   3.643  -0.200  0.00  0.00    +0.142 HD
ATOM     24  H   UNL     1       6.932   3.055   0.231  0.00  0.00    +0.142 HD
ENDBRANCH   4  22
TORSDOF 3
