REMARK  Name = ZINC13639004
REMARK  6 active torsions:
REMARK  status: ('A' for Active; 'I' for Inactive)
REMARK    1  A    between atoms: C_1  and  O_2
REMARK    2  A    between atoms: O_2  and  C_3
REMARK    3  A    between atoms: C_8  and  N_9
REMARK    4  A    between atoms: N_9  and  C_10
REMARK    5  A    between atoms: C_10  and  N_12
REMARK    6  A    between atoms: N_12  and  N_13
REMARK                            x       y       z     vdW  Elec       q    Type
REMARK                         _______ _______ _______ _____ _____    ______ ____
ROOT
ATOM      1  N   UNL     1       1.012  -4.838   0.169  0.00  0.00    -0.217 N 
ATOM      2  H   UNL     1       0.974  -5.805   0.237  0.00  0.00    +0.176 HD
ENDROOT
BRANCH   1   3
ATOM      3  N   UNL     1       2.251  -4.185   0.160  0.00  0.00    -0.175 NA
ATOM      4  C   UNL     1       3.360  -4.881   0.244  0.00  0.00    +0.153 C 
ATOM      5  C   UNL     1       4.749  -4.366   0.256  0.00  0.00    +0.029 A 
ATOM      6  C   UNL     1       5.292  -3.088   0.187  0.00  0.00    +0.027 A 
ATOM      7  C   UNL     1       6.663  -2.922   0.222  0.00  0.00    +0.019 A 
ATOM      8  C   UNL     1       7.492  -4.027   0.324  0.00  0.00    +0.017 A 
ATOM      9  C   UNL     1       6.963  -5.300   0.392  0.00  0.00    +0.025 A 
ATOM     10  C   UNL     1       5.585  -5.486   0.359  0.00  0.00    +0.043 A 
ATOM     11  N   UNL     1       4.806  -6.637   0.411  0.00  0.00    -0.280 N 
ATOM     12  C   UNL     1       3.495  -6.346   0.354  0.00  0.00    +0.269 C 
ATOM     13  O   UNL     1       2.582  -7.149   0.385  0.00  0.00    -0.268 OA
ATOM     14 BR   UNL     1       7.408  -1.187   0.129  0.00  0.00    -0.050 Br
ATOM     15  H   UNL     1       5.164  -7.536   0.483  0.00  0.00    +0.155 HD
ENDBRANCH   1   3
BRANCH   1  16
ATOM     16  C   UNL     1      -0.127  -4.123   0.082  0.00  0.00    +0.154 C 
ATOM     17  S   UNL     1      -1.642  -4.922   0.093  0.00  0.00    -0.017 S 
BRANCH  16  18
ATOM     18  N   UNL     1      -0.074  -2.780  -0.013  0.00  0.00    -0.293 N 
ATOM     19  H   UNL     1       0.782  -2.333  -0.099  0.00  0.00    +0.154 HD
BRANCH  18  25
ATOM     20  C   UNL     1      -1.438  -0.982  -0.887  0.00  0.00    +0.141 A 
ATOM     21  C   UNL     1      -2.612  -0.246  -0.861  0.00  0.00    +0.047 A 
ATOM     22  C   UNL     1      -3.597  -0.548   0.060  0.00  0.00    +0.004 A 
ATOM     23  C   UNL     1      -3.415  -1.584   0.958  0.00  0.00    +0.002 A 
ATOM     24  C   UNL     1      -2.247  -2.323   0.939  0.00  0.00    +0.027 A 
ATOM     25  C   UNL     1      -1.256  -2.029   0.013  0.00  0.00    +0.075 A 
BRANCH  20  27
ATOM     26  C   UNL     1      -0.723   0.402  -2.684  0.00  0.00    +0.277 C 
ATOM     27  O   UNL     1      -0.468  -0.685  -1.793  0.00  0.00    -0.493 OA
ENDBRANCH  20  27
ENDBRANCH  18  25
ENDBRANCH  16  18
ENDBRANCH   1  16
TORSDOF 5
