REMARK  Name = ZINC12279475
REMARK  9 active torsions:
REMARK  status: ('A' for Active; 'I' for Inactive)
REMARK    1  A    between atoms: C_1  and  C_2
REMARK    2  A    between atoms: C_5  and  C_11
REMARK    3  A    between atoms: N_13  and  C_14
REMARK    4  A    between atoms: C_14  and  C_15
REMARK    5  A    between atoms: C_23  and  N_25
REMARK    6  A    between atoms: N_25  and  C_26
REMARK    7  A    between atoms: C_26  and  C_27
REMARK    8  A    between atoms: C_27  and  C_28
REMARK    9  A    between atoms: C_28  and  C_29
REMARK                            x       y       z     vdW  Elec       q    Type
REMARK                         _______ _______ _______ _____ _____    ______ ____
ROOT
ATOM      1  C   UNL     1       0.947   3.571   0.012  0.00  0.00    +0.149 A 
ATOM      2  N   UNL     1       0.818   4.192  -1.136  0.00  0.00    -0.230 NA
ATOM      3  C   UNL     1       0.550   5.506  -1.172  0.00  0.00    +0.076 A 
ATOM      4  C   UNL     1       0.401   6.200  -2.380  0.00  0.00    +0.028 A 
ATOM      5  C   UNL     1       0.135   7.537  -2.360  0.00  0.00    +0.002 A 
ATOM      6  C   UNL     1       0.007   8.225  -1.156  0.00  0.00    +0.001 A 
ATOM      7  C   UNL     1       0.146   7.580   0.037  0.00  0.00    +0.013 A 
ATOM      8  C   UNL     1       0.420   6.208   0.051  0.00  0.00    +0.040 A 
ATOM      9  C   UNL     1       0.575   5.483   1.258  0.00  0.00    +0.130 A 
ATOM     10  N   UNL     1       0.834   4.184   1.179  0.00  0.00    -0.215 NA
ENDROOT
BRANCH   9  11
ATOM     11  N   UNL     1       0.460   6.109   2.480  0.00  0.00    -0.328 N 
ATOM     12  H   UNL     1       0.270   7.060   2.522  0.00  0.00    +0.147 HD
BRANCH  11  13
ATOM     13  C   UNL     1       0.624   5.340   3.716  0.00  0.00    +0.103 C 
BRANCH  13  14
ATOM     14  C   UNL     1       0.448   6.267   4.921  0.00  0.00    +0.023 C 
BRANCH  14  15
ATOM     15  C   UNL     1       0.619   5.463   6.212  0.00  0.00    +0.036 C 
BRANCH  15  16
ATOM     16  C   UNL     1       0.446   6.376   7.398  0.00  0.00    -0.047 A 
ATOM     17  C   UNL     1       1.542   7.025   7.936  0.00  0.00    +0.003 A 
ATOM     18  C   UNL     1       1.382   7.866   9.022  0.00  0.00    +0.000 A 
ATOM     19  C   UNL     1       0.129   8.050   9.575  0.00  0.00    +0.000 A 
ATOM     20  C   UNL     1      -0.966   7.397   9.041  0.00  0.00    +0.000 A 
ATOM     21  C   UNL     1      -0.807   6.560   7.952  0.00  0.00    +0.003 A 
ENDBRANCH  15  16
ENDBRANCH  14  15
ENDBRANCH  13  14
ENDBRANCH  11  13
ENDBRANCH   9  11
BRANCH   1  22
ATOM     22  C   UNL     1       1.242   2.093   0.001  0.00  0.00    +0.180 C 
BRANCH  22  25
ATOM     23  C   UNL     1       0.002  -0.004   0.002  0.00  0.00    +0.234 C 
ATOM     24  O   UNL     1       1.060  -0.596  -0.011  0.00  0.00    -0.274 OA
ATOM     25  N   UNL     1      -0.016   1.344   0.009  0.00  0.00    -0.307 N 
ATOM     26  H   UNL     1      -0.863   1.817   0.016  0.00  0.00    +0.149 HD
BRANCH  23  30
ATOM     27  C   UNL     1      -1.446  -1.809   3.710  0.00  0.00    +0.028 C 
ATOM     28  C   UNL     1      -0.864  -1.635   2.306  0.00  0.00    +0.071 C 
ATOM     29  C   UNL     1      -1.843  -0.836   1.439  0.00  0.00    +0.053 C 
ATOM     30  C   UNL     1      -1.293  -0.775   0.010  0.00  0.00    +0.160 C 
ATOM     31  N   UNL     1      -1.054  -2.137  -0.471  0.00  0.00    -0.315 N 
ATOM     32  C   UNL     1      -0.746  -3.132   0.374  0.00  0.00    +0.131 C 
ATOM     33  S   UNL     1      -0.465  -4.695  -0.264  0.00  0.00    -0.019 S 
ATOM     34  N   UNL     1      -0.648  -2.950   1.699  0.00  0.00    -0.324 N 
ATOM     35  H   UNL     1      -1.120  -2.324  -1.421  0.00  0.00    +0.148 HD
ATOM     36  H   UNL     1      -0.430  -3.705   2.268  0.00  0.00    +0.148 HD
ENDBRANCH  23  30
ENDBRANCH  22  25
ENDBRANCH   1  22
TORSDOF 8
