REMARK  Name = ZINC12630110
REMARK  15 active torsions:
REMARK  status: ('A' for Active; 'I' for Inactive)
REMARK    1  A    between atoms: C_1  and  C_2
REMARK    2  A    between atoms: C_5  and  N_12
REMARK    3  A    between atoms: C_8  and  C_10
REMARK    4  A    between atoms: C_8  and  C_11
REMARK    5  A    between atoms: N_15  and  C_16
REMARK    6  A    between atoms: C_16  and  C_17
REMARK    7  A    between atoms: C_17  and  C_18
REMARK    8  A    between atoms: C_18  and  C_19
REMARK    9  A    between atoms: C_19  and  C_20
REMARK   10  A    between atoms: C_20  and  C_21
REMARK   11  A    between atoms: C_21  and  N_22
REMARK   12  A    between atoms: N_25  and  C_26
REMARK   13  A    between atoms: C_29  and  C_36
REMARK   14  A    between atoms: C_32  and  C_34
REMARK   15  A    between atoms: C_32  and  C_35
REMARK                            x       y       z     vdW  Elec       q    Type
REMARK                         _______ _______ _______ _____ _____    ______ ____
ROOT
ATOM      1  C   UNL     1      -0.413  -3.080  -6.915  0.00  0.00    +0.002 C 
ENDROOT
BRANCH   1   2
ATOM      2  C   UNL     1       0.260  -3.220  -5.547  0.00  0.00    +0.019 C 
BRANCH   2   3
ATOM      3  C   UNL     1      -0.662  -2.653  -4.465  0.00  0.00    +0.106 C 
BRANCH   3   7
ATOM      4  N   UNL     1      -0.057  -2.477  -0.843  0.00  0.00    -0.297 N 
ATOM      5  C   UNL     1      -0.649  -2.353  -2.047  0.00  0.00    +0.300 C 
ATOM      6  O   UNL     1      -1.752  -1.849  -2.134  0.00  0.00    -0.253 OA
ATOM      7  N   UNL     1      -0.018  -2.788  -3.156  0.00  0.00    -0.299 N 
ATOM      8  H   UNL     1       0.823  -2.878  -0.774  0.00  0.00    +0.151 HD
ATOM      9  H   UNL     1       0.862  -3.189  -3.088  0.00  0.00    +0.150 HD
BRANCH   4  13
ATOM     10  C   UNL     1       1.825  -3.267   2.938  0.00  0.00    +0.007 C 
ATOM     11  C   UNL     1       0.830  -3.333   1.778  0.00  0.00    -0.012 C 
ATOM     12  C   UNL     1       0.252  -1.939   1.523  0.00  0.00    +0.025 C 
ATOM     13  C   UNL     1      -0.743  -2.004   0.362  0.00  0.00    +0.075 C 
ATOM     14  C   UNL     1      -1.876  -2.969   0.716  0.00  0.00    +0.028 C 
ATOM     15  C   UNL     1      -1.298  -4.363   0.971  0.00  0.00    -0.033 C 
ATOM     16  C   UNL     1      -0.303  -4.298   2.131  0.00  0.00    +0.009 C 
ATOM     17  C   UNL     1      -0.582  -4.856  -0.288  0.00  0.00    +0.011 C 
ATOM     18  C   UNL     1      -2.431  -5.328   1.324  0.00  0.00    +0.011 C 
ENDBRANCH   4  13
ENDBRANCH   3   7
ENDBRANCH   2   3
ENDBRANCH   1   2
BRANCH   1  19
ATOM     19  C   UNL     1       0.509  -3.646  -7.997  0.00  0.00    +0.002 C 
BRANCH  19  20
ATOM     20  C   UNL     1      -0.163  -3.506  -9.364  0.00  0.00    +0.019 C 
BRANCH  20  21
ATOM     21  C   UNL     1       0.758  -4.073 -10.446  0.00  0.00    +0.106 C 
BRANCH  21  22
ATOM     22  N   UNL     1       0.115  -3.938 -11.755  0.00  0.00    -0.299 N 
ATOM     23  C   UNL     1       0.745  -4.373 -12.864  0.00  0.00    +0.300 C 
ATOM     24  O   UNL     1       1.849  -4.877 -12.778  0.00  0.00    -0.253 OA
ATOM     25  N   UNL     1       0.153  -4.249 -14.068  0.00  0.00    -0.297 N 
ATOM     26  H   UNL     1      -0.766  -3.537 -11.824  0.00  0.00    +0.150 HD
ATOM     27  H   UNL     1      -0.727  -3.848 -14.137  0.00  0.00    +0.151 HD
BRANCH  25  28
ATOM     28  C   UNL     1       0.839  -4.722 -15.274  0.00  0.00    +0.075 C 
ATOM     29  C   UNL     1       1.779  -3.629 -15.787  0.00  0.00    +0.025 C 
ATOM     30  C   UNL     1       2.495  -4.123 -17.046  0.00  0.00    -0.012 C 
ATOM     31  C   UNL     1       1.461  -4.454 -18.124  0.00  0.00    +0.009 C 
ATOM     32  C   UNL     1       0.521  -5.547 -17.610  0.00  0.00    -0.033 C 
ATOM     33  C   UNL     1      -0.195  -5.053 -16.352  0.00  0.00    +0.028 C 
ATOM     34  C   UNL     1      -0.513  -5.878 -18.689  0.00  0.00    +0.011 C 
ATOM     35  C   UNL     1       1.331  -6.801 -17.278  0.00  0.00    +0.011 C 
ATOM     36  C   UNL     1       3.435  -3.030 -17.559  0.00  0.00    +0.007 C 
ENDBRANCH  25  28
ENDBRANCH  21  22
ENDBRANCH  20  21
ENDBRANCH  19  20
ENDBRANCH   1  19
TORSDOF 9
