REMARK  Name = ZINC04491466
REMARK  6 active torsions:
REMARK  status: ('A' for Active; 'I' for Inactive)
REMARK    1  A    between atoms: C_1  and  C_2
REMARK    2  A    between atoms: C_6  and  C_7
REMARK    3  A    between atoms: C_8  and  C_9
REMARK    4  A    between atoms: C_8  and  C_11
REMARK    5  A    between atoms: C_13  and  C_16
REMARK    6  A    between atoms: C_19  and  N_22
REMARK                            x       y       z     vdW  Elec       q    Type
REMARK                         _______ _______ _______ _____ _____    ______ ____
ROOT
ATOM      1  C   UNL     1      -1.242   2.113   0.019  0.00  0.00    +0.119 A 
ATOM      2  N   UNL     1      -2.486   1.613   0.023  0.00  0.00    -0.238 NA
ATOM      3  C   UNL     1      -3.512   2.409   0.033  0.00  0.00    +0.079 A 
ATOM      4  C   UNL     1      -3.278   3.814   0.040  0.00  0.00    +0.075 A 
ATOM      5  S   UNL     1      -1.542   3.873   0.038  0.00  0.00    -0.074 S 
ENDROOT
BRANCH   3   6
ATOM      6  C   UNL     1      -4.888   1.871   0.037  0.00  0.00    +0.001 A 
ATOM      7  C   UNL     1      -5.983   2.740   0.054  0.00  0.00    +0.012 A 
ATOM      8  C   UNL     1      -7.264   2.231   0.052  0.00  0.00    +0.033 A 
ATOM      9  C   UNL     1      -7.468   0.861   0.045  0.00  0.00    +0.126 A 
ATOM     10  C   UNL     1      -6.388  -0.006   0.034  0.00  0.00    +0.033 A 
ATOM     11  C   UNL     1      -5.102   0.489   0.029  0.00  0.00    +0.012 A 
BRANCH   9  12
ATOM     12  N   UNL     1      -8.846   0.322   0.049  0.00  0.00    +0.056 N 
ATOM     13  O   UNL     1      -9.044  -0.980   0.043  0.00  0.00    -0.126 OA
ATOM     14  O   UNL     1      -9.875   1.144   0.060  0.00  0.00    -0.126 OA
ENDBRANCH   9  12
ENDBRANCH   3   6
BRANCH   1  16
ATOM     15  C   UNL     1       1.200   2.153   0.002  0.00  0.00    +0.036 C 
ATOM     16  C   UNL     1      -0.017   1.428   0.010  0.00  0.00    +0.085 C 
BRANCH  15  22
ATOM     17  C   UNL     1       3.985   3.490  -0.030  0.00  0.00    +0.045 C 
ATOM     18  C   UNL     1       3.728   2.005  -0.029  0.00  0.00    -0.036 A 
ATOM     19  C   UNL     1       4.742   1.110  -0.038  0.00  0.00    +0.011 A 
ATOM     20  C   UNL     1       4.444  -0.248  -0.043  0.00  0.00    +0.046 A 
ATOM     21  S   UNL     1       2.711  -0.281  -0.026  0.00  0.00    -0.097 S 
ATOM     22  C   UNL     1       2.408   1.478  -0.013  0.00  0.00    +0.016 A 
ENDBRANCH  15  22
BRANCH  16  23
ATOM     23  C   UNL     1       0.002  -0.004   0.002  0.00  0.00    +0.102 C 
ATOM     24  N   UNL     1       0.018  -1.140  -0.004  0.00  0.00    -0.191 NA
ENDBRANCH  16  23
ENDBRANCH   1  16
TORSDOF 5
