REMARK  Name = ZINC35400889
REMARK  5 active torsions:
REMARK  status: ('A' for Active; 'I' for Inactive)
REMARK    1  A    between atoms: C_1  and  C_2
REMARK    2  A    between atoms: C_6  and  N_8
REMARK    3  A    between atoms: C_9  and  C_11
REMARK    4  A    between atoms: C_11  and  N_12
REMARK    5  A    between atoms: C_20  and  C_24
REMARK                            x       y       z     vdW  Elec       q    Type
REMARK                         _______ _______ _______ _____ _____    ______ ____
ROOT
ATOM      1  N   UNL     1      -0.207  -6.335   3.410  0.00  0.00    -0.257 N 
ATOM      2  C   UNL     1       1.011  -7.031   3.453  0.00  0.00    +0.058 A 
ATOM      3  C   UNL     1       2.070  -6.191   3.754  0.00  0.00    +0.025 A 
ATOM      4  C   UNL     1       3.353  -6.702   3.840  0.00  0.00    +0.002 A 
ATOM      5  C   UNL     1       3.582  -8.048   3.624  0.00  0.00    +0.002 A 
ATOM      6  C   UNL     1       2.529  -8.893   3.322  0.00  0.00    +0.025 A 
ATOM      7  C   UNL     1       1.242  -8.389   3.236  0.00  0.00    +0.053 A 
ATOM      8  N   UNL     1       0.311  -9.392   2.922  0.00  0.00    -0.312 N 
ATOM      9  C   UNL     1      -1.056  -9.265   2.755  0.00  0.00    +0.050 C 
ATOM     10  C   UNL     1      -1.832  -8.129   2.854  0.00  0.00    +0.092 C 
ATOM     11  C   UNL     1      -1.441  -6.815   3.155  0.00  0.00    +0.246 C 
ATOM     12  O   UNL     1      -2.340  -5.993   3.185  0.00  0.00    -0.270 OA
ATOM     13  H   UNL     1       0.671 -10.285   2.808  0.00  0.00    +0.152 HD
ENDROOT
BRANCH   9  14
ATOM     14  C   UNL     1      -1.774 -10.499   2.427  0.00  0.00    +0.033 A 
ATOM     15  C   UNL     1      -3.129 -10.688   2.198  0.00  0.00    +0.017 A 
ATOM     16  C   UNL     1      -3.511 -11.977   1.909  0.00  0.00    +0.008 A 
ATOM     17  C   UNL     1      -2.568 -12.950   1.869  0.00  0.00    +0.046 A 
ATOM     18  S   UNL     1      -1.133 -12.149   2.213  0.00  0.00    -0.095 S 
ENDBRANCH   9  14
BRANCH   1  19
ATOM     19  C   UNL     1      -0.129  -4.898   3.686  0.00  0.00    +0.210 C 
BRANCH  19  21
ATOM     20  N   UNL     1       0.415  -2.828   2.446  0.00  0.00    -0.284 N 
ATOM     21  C   UNL     1       0.278  -4.168   2.431  0.00  0.00    +0.235 C 
ATOM     22  O   UNL     1       0.481  -4.787   1.408  0.00  0.00    -0.274 OA
ATOM     23  H   UNL     1       0.327  -2.341   3.281  0.00  0.00    +0.155 HD
BRANCH  20  29
ATOM     24  C   UNL     1       2.341   1.077   0.163  0.00  0.00    +0.044 C 
ATOM     25  C   UNL     1       1.616  -0.243   0.123  0.00  0.00    -0.049 A 
ATOM     26  C   UNL     1       1.215  -0.775  -1.089  0.00  0.00    +0.003 A 
ATOM     27  C   UNL     1       0.550  -1.986  -1.130  0.00  0.00    +0.002 A 
ATOM     28  C   UNL     1       0.283  -2.670   0.040  0.00  0.00    +0.023 A 
ATOM     29  C   UNL     1       0.684  -2.138   1.259  0.00  0.00    +0.034 A 
ATOM     30  C   UNL     1       1.357  -0.924   1.296  0.00  0.00    +0.026 A 
ENDBRANCH  20  29
ENDBRANCH  19  21
ENDBRANCH   1  19
TORSDOF 4
