REMARK  Name = ZINC54668418
REMARK  3 active torsions:
REMARK  status: ('A' for Active; 'I' for Inactive)
REMARK    1  A    between atoms: C_10  and  C_12
REMARK    2  A    between atoms: N_14  and  C_15
REMARK    3  A    between atoms: C_20  and  N_21
REMARK                            x       y       z     vdW  Elec       q    Type
REMARK                         _______ _______ _______ _____ _____    ______ ____
ROOT
ATOM      1  C   UNL     1       4.910  -0.105  -0.881  0.00  0.00    +0.225 C 
ATOM      2  O   UNL     1       5.268  -0.618  -1.920  0.00  0.00    -0.275 OA
ATOM      3  N   UNL     1       5.347   1.127  -0.552  0.00  0.00    -0.283 N 
ATOM      4  H   UNL     1       5.126   1.504   0.314  0.00  0.00    +0.155 HD
ENDROOT
BRANCH   1  14
ATOM      5  C   UNL     1      -0.031  -0.126  -1.270  0.00  0.00    +0.000 A 
ATOM      6  C   UNL     1       0.902   0.894  -1.254  0.00  0.00    +0.000 A 
ATOM      7  C   UNL     1       2.189   0.638  -0.828  0.00  0.00    +0.004 A 
ATOM      8  C   UNL     1       2.556  -0.637  -0.418  0.00  0.00    -0.032 A 
ATOM      9  C   UNL     1       1.629  -1.654  -0.439  0.00  0.00    -0.043 A 
ATOM     10  C   UNL     1       0.332  -1.393  -0.864  0.00  0.00    +0.004 A 
ATOM     11  C   UNL     1       1.960  -3.063  -0.024  0.00  0.00    +0.035 C 
ATOM     12  C   UNL     1       3.245  -3.092   0.801  0.00  0.00    +0.006 C 
ATOM     13  C   UNL     1       4.331  -2.330   0.033  0.00  0.00    +0.018 C 
ATOM     14  C   UNL     1       3.976  -0.845   0.041  0.00  0.00    +0.105 C 
ENDBRANCH   1  14
BRANCH   3  15
ATOM     15  C   UNL     1       6.121   1.863  -1.460  0.00  0.00    +0.054 A 
ATOM     16  C   UNL     1       6.092   1.550  -2.811  0.00  0.00    +0.026 A 
ATOM     17  C   UNL     1       6.855   2.276  -3.705  0.00  0.00    +0.017 A 
ATOM     18  C   UNL     1       7.649   3.317  -3.257  0.00  0.00    +0.020 A 
ATOM     19  C   UNL     1       7.684   3.635  -1.912  0.00  0.00    +0.039 A 
ATOM     20  C   UNL     1       6.917   2.915  -1.009  0.00  0.00    +0.047 A 
ATOM     21 BR   UNL     1       8.690   4.306  -4.488  0.00  0.00    -0.050 Br
BRANCH  20  22
ATOM     22  N   UNL     1       6.946   3.239   0.352  0.00  0.00    -0.357 N 
ATOM     23  H   UNL     1       6.412   2.732   0.983  0.00  0.00    +0.142 HD
ATOM     24  H   UNL     1       7.500   3.971   0.664  0.00  0.00    +0.142 HD
ENDBRANCH  20  22
ENDBRANCH   3  15
TORSDOF 3
