REMARK  Name = ZINC15810121
REMARK  8 active torsions:
REMARK  status: ('A' for Active; 'I' for Inactive)
REMARK    1  A    between atoms: C_1  and  C_2
REMARK    2  A    between atoms: C_5  and  N_9
REMARK    3  A    between atoms: C_7  and  C_8
REMARK    4  A    between atoms: C_13  and  S_15
REMARK    5  A    between atoms: S_15  and  C_16
REMARK    6  A    between atoms: C_16  and  C_18
REMARK    7  A    between atoms: C_16  and  C_19
REMARK    8  A    between atoms: N_21  and  C_22
REMARK                            x       y       z     vdW  Elec       q    Type
REMARK                         _______ _______ _______ _____ _____    ______ ____
ROOT
ATOM      1  C   UNL     1       4.854   4.241  -0.252  0.00  0.00    +0.136 C 
ATOM      2  C   UNL     1       5.478   4.397   1.137  0.00  0.00    +0.029 C 
ENDROOT
BRANCH   1   3
ATOM      3  C   UNL     1       3.564   3.469  -0.139  0.00  0.00    +0.230 C 
ATOM      4  O   UNL     1       2.503   4.057  -0.140  0.00  0.00    -0.274 OA
ATOM      5  N   UNL     1       3.590   2.125  -0.036  0.00  0.00    -0.285 N 
ATOM      6  H   UNL     1       4.438   1.661   0.040  0.00  0.00    +0.155 HD
BRANCH   5   7
ATOM      7  C   UNL     1       2.392   1.399  -0.040  0.00  0.00    +0.035 A 
ATOM      8  C   UNL     1       2.287   0.231   0.706  0.00  0.00    +0.025 A 
ATOM      9  C   UNL     1       1.109  -0.489   0.706  0.00  0.00    +0.029 A 
ATOM     10  C   UNL     1       0.027  -0.046  -0.039  0.00  0.00    +0.067 A 
ATOM     11  C   UNL     1       0.129   1.128  -0.788  0.00  0.00    +0.069 A 
ATOM     12  C   UNL     1       1.313   1.848  -0.787  0.00  0.00    +0.051 A 
ATOM     13  N   UNL     1      -1.100   1.312  -1.418  0.00  0.00    -0.306 N 
ATOM     14  H   UNL     1      -1.330   2.047  -2.008  0.00  0.00    +0.170 HD
ATOM     15  C   UNL     1      -1.913   0.297  -1.069  0.00  0.00    +0.325 A 
ATOM     16  O   UNL     1      -3.061   0.158  -1.447  0.00  0.00    -0.247 OA
ATOM     17  N   UNL     1      -1.263  -0.539  -0.238  0.00  0.00    -0.306 N 
ATOM     18  H   UNL     1      -1.629  -1.347   0.155  0.00  0.00    +0.170 HD
ENDBRANCH   5   7
ENDBRANCH   1   3
BRANCH   1  19
ATOM     19  S   UNL     1       4.518   5.880  -0.951  0.00  0.00    -0.084 S 
BRANCH  19  24
ATOM     20  N   UNL     1       9.341   8.940  -1.945  0.00  0.00    -0.292 N 
ATOM     21  C   UNL     1       8.337   8.032  -1.626  0.00  0.00    +0.187 A 
ATOM     22  N   UNL     1       8.437   6.820  -1.117  0.00  0.00    -0.125 NA
ATOM     23  N   UNL     1       7.300   6.085  -0.872  0.00  0.00    -0.133 NA
ATOM     24  C   UNL     1       6.116   6.592  -1.156  0.00  0.00    +0.161 A 
ATOM     25  S   UNL     1       6.567   8.198  -1.797  0.00  0.00    -0.024 S 
ATOM     26  H   UNL     1       9.111   9.835  -2.237  0.00  0.00    +0.154 HD
BRANCH  20  31
ATOM     27  C   UNL     1      14.785   7.403  -1.534  0.00  0.00    +0.044 C 
ATOM     28  C   UNL     1      13.339   7.811  -1.642  0.00  0.00    -0.047 A 
ATOM     29  C   UNL     1      12.363   6.850  -1.835  0.00  0.00    +0.005 A 
ATOM     30  C   UNL     1      11.037   7.221  -1.936  0.00  0.00    +0.023 A 
ATOM     31  C   UNL     1      10.683   8.561  -1.843  0.00  0.00    +0.033 A 
ATOM     32  C   UNL     1      11.665   9.524  -1.655  0.00  0.00    +0.027 A 
ATOM     33  C   UNL     1      12.990   9.146  -1.550  0.00  0.00    -0.046 A 
ATOM     34  C   UNL     1      14.056  10.190  -1.339  0.00  0.00    +0.044 C 
ENDBRANCH  20  31
ENDBRANCH  19  24
ENDBRANCH   1  19
TORSDOF 5
