REMARK  Name = ZINC62528045
REMARK  4 active torsions:
REMARK  status: ('A' for Active; 'I' for Inactive)
REMARK    1  A    between atoms: C_1  and  C_2
REMARK    2  A    between atoms: C_3  and  C_16
REMARK    3  A    between atoms: C_7  and  N_8
REMARK    4  A    between atoms: N_9  and  C_15
REMARK                            x       y       z     vdW  Elec       q    Type
REMARK                         _______ _______ _______ _____ _____    ______ ____
ROOT
ATOM      1  C   UNL     1      -0.018   1.503   0.010  0.00  0.00    +0.046 C 
ATOM      2  C   UNL     1       0.002  -0.004   0.002  0.00  0.00    -0.023 A 
ATOM      3  C   UNL     1       0.006  -0.687  -1.200  0.00  0.00    -0.002 A 
ATOM      4  C   UNL     1       0.023  -2.071  -1.211  0.00  0.00    +0.145 A 
ATOM      5  C   UNL     1       0.035  -2.775  -0.008  0.00  0.00    +0.080 A 
ATOM      6  C   UNL     1       0.034  -2.092   1.196  0.00  0.00    +0.050 A 
ATOM      7  C   UNL     1       0.023  -0.703   1.202  0.00  0.00    +0.030 A 
ATOM      8  N   UNL     1       0.041  -4.176  -0.032  0.00  0.00    -0.271 N 
ATOM      9  C   UNL     1       0.924  -4.821  -0.826  0.00  0.00    +0.223 C 
ATOM     10  O   UNL     1       0.900  -6.031  -0.908  0.00  0.00    -0.275 OA
ATOM     11  C   UNL     1       1.940  -4.030  -1.609  0.00  0.00    +0.137 C 
ATOM     12  C   UNL     1       1.266  -3.338  -2.792  0.00  0.00    +0.238 C 
ATOM     13  O   UNL     1       0.033  -2.750  -2.389  0.00  0.00    -0.489 OA
ATOM     14  C   UNL     1      -0.901  -4.935   0.795  0.00  0.00    +0.138 C 
ATOM     15  C   UNL     1      -0.010   0.076  -2.500  0.00  0.00    +0.048 C 
ENDROOT
BRANCH   7  16
ATOM     16  N   UNL     1       0.028  -0.008   2.416  0.00  0.00    -0.358 N 
ATOM     17  H   UNL     1       0.016   0.962   2.420  0.00  0.00    +0.142 HD
ATOM     18  H   UNL     1       0.042  -0.496   3.254  0.00  0.00    +0.142 HD
ENDBRANCH   7  16
TORSDOF 1
