REMARK  Name = ZINC55168747
REMARK  2 active torsions:
REMARK  status: ('A' for Active; 'I' for Inactive)
REMARK    1  A    between atoms: C_10  and  C_22
REMARK    2  A    between atoms: C_13  and  C_15
REMARK                            x       y       z     vdW  Elec       q    Type
REMARK                         _______ _______ _______ _____ _____    ______ ____
ROOT
ATOM      1  C   UNL     1      -0.019   1.533   0.011  0.00  0.00    +0.000 C 
ATOM      2  C   UNL     1       1.393   2.111   0.000  0.00  0.00    +0.002 C 
ATOM      3  C   UNL     1       2.235   1.554   1.160  0.00  0.00    +0.023 C 
ATOM      4  C   UNL     1       2.244   0.046   1.029  0.00  0.00    +0.080 C 
ATOM      5  C   UNL     1       0.786  -0.452   1.224  0.00  0.00    +0.012 C 
ATOM      6  C   UNL     1       0.002  -0.004   0.002  0.00  0.00    +0.005 C 
ATOM      7  C   UNL     1       1.027  -1.966   1.329  0.00  0.00    +0.039 C 
ATOM      8  C   UNL     1       2.333  -2.022   2.167  0.00  0.00    +0.190 C 
ATOM      9  N   UNL     1       2.998  -0.715   2.012  0.00  0.00    -0.278 N 
ATOM     10  C   UNL     1       4.108  -0.308   2.659  0.00  0.00    +0.287 C 
ATOM     11  O   UNL     1       4.570   0.794   2.439  0.00  0.00    -0.266 OA
ENDROOT
BRANCH  10  12
ATOM     12  C   UNL     1       4.763  -1.203   3.636  0.00  0.00    +0.238 A 
ATOM     13  N   UNL     1       5.866  -0.912   4.346  0.00  0.00    -0.190 NA
ATOM     14  C   UNL     1       6.176  -1.928   5.117  0.00  0.00    +0.209 A 
ATOM     15  N   UNL     1       5.263  -2.905   4.913  0.00  0.00    -0.246 N 
ATOM     16  H   UNL     1       5.236  -3.773   5.344  0.00  0.00    +0.192 HD
ATOM     17  N   UNL     1       4.358  -2.413   3.958  0.00  0.00    -0.146 NA
ATOM     18  N   UNL     1       7.250  -1.989   5.987  0.00  0.00    -0.328 N 
ATOM     19  H   UNL     1       7.854  -1.234   6.065  0.00  0.00    +0.145 HD
ATOM     20  H   UNL     1       7.399  -2.787   6.518  0.00  0.00    +0.145 HD
ENDBRANCH  10  12
BRANCH   8  21
ATOM     21  C   UNL     1       2.003  -2.253   3.619  0.00  0.00    +0.376 C 
ATOM     22  O   UNL     1       1.923  -3.390   4.053  0.00  0.00    -0.244 OA
ATOM     23  O   UNL     1       1.815  -1.304   4.361  0.00  0.00    -0.244 OA
ENDBRANCH   8  21
TORSDOF 2
