REMARK  Name = ZINC43328530
REMARK  6 active torsions:
REMARK  status: ('A' for Active; 'I' for Inactive)
REMARK    1  A    between atoms: C_1  and  C_2
REMARK    2  A    between atoms: C_5  and  N_9
REMARK    3  A    between atoms: N_12  and  C_13
REMARK    4  A    between atoms: C_13  and  C_14
REMARK    5  A    between atoms: C_17  and  S_20
REMARK    6  A    between atoms: S_20  and  N_23
REMARK                            x       y       z     vdW  Elec       q    Type
REMARK                         _______ _______ _______ _____ _____    ______ ____
ROOT
ATOM      1  N   UNL     1       0.059  -4.171  -0.023  0.00  0.00    -0.268 N 
ATOM      2  C   UNL     1      -0.039  -4.839  -1.189  0.00  0.00    +0.304 C 
ATOM      3  O   UNL     1      -0.053  -4.229  -2.240  0.00  0.00    -0.252 OA
ATOM      4  N   UNL     1      -0.122  -6.184  -1.190  0.00  0.00    -0.295 N 
ATOM      5  H   UNL     1       0.153  -4.660   0.810  0.00  0.00    +0.156 HD
ATOM      6  H   UNL     1      -0.111  -6.671  -0.351  0.00  0.00    +0.151 HD
ENDROOT
BRANCH   1  11
ATOM      7  C   UNL     1      -0.072   1.502   0.016  0.00  0.00    +0.044 C 
ATOM      8  C   UNL     1      -0.037  -0.005   0.006  0.00  0.00    -0.049 A 
ATOM      9  C   UNL     1      -0.627  -0.702  -1.032  0.00  0.00    +0.005 A 
ATOM     10  C   UNL     1      -0.597  -2.083  -1.045  0.00  0.00    +0.025 A 
ATOM     11  C   UNL     1       0.027  -2.771  -0.013  0.00  0.00    +0.049 A 
ATOM     12  C   UNL     1       0.619  -2.069   1.029  0.00  0.00    +0.039 A 
ATOM     13  C   UNL     1       0.590  -0.687   1.032  0.00  0.00    +0.020 A 
ATOM     14 BR   UNL     1       1.471  -3.001   2.436  0.00  0.00    -0.048 Br
ENDBRANCH   1  11
BRANCH   4  15
ATOM     15  C   UNL     1      -0.229  -6.911  -2.457  0.00  0.00    +0.141 C 
BRANCH  15  16
ATOM     16  C   UNL     1      -0.307  -8.391  -2.183  0.00  0.00    -0.030 A 
ATOM     17  C   UNL     1       0.850  -9.142  -2.111  0.00  0.00    +0.007 A 
ATOM     18  C   UNL     1       0.779 -10.500  -1.859  0.00  0.00    +0.029 A 
ATOM     19  C   UNL     1      -0.451 -11.105  -1.680  0.00  0.00    +0.105 A 
ATOM     20  C   UNL     1      -1.609 -10.354  -1.752  0.00  0.00    +0.029 A 
ATOM     21  C   UNL     1      -1.537  -8.995  -1.999  0.00  0.00    +0.007 A 
BRANCH  19  22
ATOM     22  S   UNL     1      -0.542 -12.836  -1.361  0.00  0.00    +0.056 S 
ATOM     23  O   UNL     1      -1.835 -13.257  -1.772  0.00  0.00    -0.153 OA
ATOM     24  O   UNL     1       0.648 -13.409  -1.884  0.00  0.00    -0.153 OA
BRANCH  22  25
ATOM     25  N   UNL     1      -0.480 -13.034   0.282  0.00  0.00    -0.204 NA
ATOM     26  H   UNL     1      -0.407 -12.260   0.862  0.00  0.00    +0.144 HD
ATOM     27  H   UNL     1      -0.517 -13.925   0.665  0.00  0.00    +0.144 HD
ENDBRANCH  22  25
ENDBRANCH  19  22
ENDBRANCH  15  16
ENDBRANCH   4  15
TORSDOF 5
