REMARK  Name = ZINC13427025
REMARK  6 active torsions:
REMARK  status: ('A' for Active; 'I' for Inactive)
REMARK    1  A    between atoms: C_1  and  C_2
REMARK    2  A    between atoms: C_5  and  C_8
REMARK    3  A    between atoms: C_10  and  C_22
REMARK    4  A    between atoms: C_12  and  C_17
REMARK    5  A    between atoms: C_12  and  O_21
REMARK    6  A    between atoms: C_22  and  C_24
REMARK                            x       y       z     vdW  Elec       q    Type
REMARK                         _______ _______ _______ _____ _____    ______ ____
ROOT
ATOM      1  C   UNL     1       0.234  -0.263   0.166  0.00  0.00    +0.120 C 
ATOM      2  C   UNL     1       1.695  -0.436  -0.261  0.00  0.00    +0.144 C 
ATOM      3  C   UNL     1       2.545   0.606   0.473  0.00  0.00    +0.243 C 
ATOM      4  N   UNL     1       2.006   1.940   0.205  0.00  0.00    -0.264 N 
ATOM      5  C   UNL     1       0.703   2.128  -0.049  0.00  0.00    +0.302 C 
ATOM      6  O   UNL     1       0.305   3.259  -0.255  0.00  0.00    -0.253 OA
ATOM      7  N   UNL     1      -0.180   1.119  -0.085  0.00  0.00    -0.292 N 
ATOM      8  H   UNL     1       2.604   2.704   0.212  0.00  0.00    +0.153 HD
ATOM      9  H   UNL     1      -1.110   1.308  -0.285  0.00  0.00    +0.151 HD
ENDROOT
BRANCH   1  14
ATOM     10  C   UNL     1      -0.284  -1.440   5.800  0.00  0.00    +0.044 C 
ATOM     11  C   UNL     1      -0.149  -1.133   4.331  0.00  0.00    -0.050 A 
ATOM     12  C   UNL     1      -0.115   0.180   3.899  0.00  0.00    +0.004 A 
ATOM     13  C   UNL     1       0.008   0.462   2.551  0.00  0.00    +0.006 A 
ATOM     14  C   UNL     1       0.099  -0.570   1.635  0.00  0.00    -0.026 A 
ATOM     15  C   UNL     1       0.061  -1.883   2.067  0.00  0.00    +0.006 A 
ATOM     16  C   UNL     1      -0.059  -2.164   3.415  0.00  0.00    +0.004 A 
ENDBRANCH   1  14
BRANCH   3  17
ATOM     17  C   UNL     1       3.990   0.529  -0.023  0.00  0.00    +0.436 C 
ATOM     18  F   UNL     1       4.046   0.934  -1.361  0.00  0.00    -0.166 F 
ATOM     19  F   UNL     1       4.795   1.369   0.753  0.00  0.00    -0.166 F 
ATOM     20  F   UNL     1       4.451  -0.788   0.085  0.00  0.00    -0.166 F 
ENDBRANCH   3  17
BRANCH   3  21
ATOM     21  O   UNL     1       2.507   0.348   1.878  0.00  0.00    -0.364 OA
ATOM     22  H   UNL     1       3.025   0.972   2.406  0.00  0.00    +0.212 HD
ENDBRANCH   3  21
BRANCH   2  23
ATOM     23  C   UNL     1       1.815  -0.229  -1.749  0.00  0.00    +0.173 C 
ATOM     24  O   UNL     1       1.583   0.860  -2.231  0.00  0.00    -0.292 OA
BRANCH  23  25
ATOM     25  C   UNL     1       2.213  -1.348  -2.618  0.00  0.00    +0.018 A 
ATOM     26  C   UNL     1       2.356  -2.634  -2.086  0.00  0.00    +0.013 A 
ATOM     27  C   UNL     1       2.723  -3.678  -2.907  0.00  0.00    +0.020 A 
ATOM     28  C   UNL     1       2.962  -3.454  -4.253  0.00  0.00    +0.041 A 
ATOM     29  C   UNL     1       2.828  -2.182  -4.786  0.00  0.00    +0.020 A 
ATOM     30  C   UNL     1       2.455  -1.129  -3.978  0.00  0.00    +0.013 A 
ATOM     31 CL   UNL     1       3.432  -4.775  -5.278  0.00  0.00    -0.084 Cl
ENDBRANCH  23  25
ENDBRANCH   2  23
TORSDOF 5
