REMARK  Name = ZINC26109210
REMARK  9 active torsions:
REMARK  status: ('A' for Active; 'I' for Inactive)
REMARK    1  A    between atoms: C_1  and  C_2
REMARK    2  A    between atoms: C_2  and  C_4
REMARK    3  A    between atoms: C_2  and  S_18
REMARK    4  A    between atoms: C_4  and  C_6
REMARK    5  A    between atoms: C_6  and  C_16
REMARK    6  A    between atoms: S_18  and  C_19
REMARK    7  A    between atoms: C_22  and  S_24
REMARK    8  A    between atoms: S_24  and  C_25
REMARK    9  A    between atoms: C_25  and  C_26
REMARK                            x       y       z     vdW  Elec       q    Type
REMARK                         _______ _______ _______ _____ _____    ______ ____
ROOT
ATOM      1  C   UNL     1      -4.442  -4.519   1.461  0.00  0.00    +0.028 C 
ATOM      2  C   UNL     1      -4.203  -4.052   0.024  0.00  0.00    +0.122 C 
ENDROOT
BRANCH   2   3
ATOM      3  C   UNL     1      -3.181  -2.944   0.019  0.00  0.00    +0.189 C 
ATOM      4  O   UNL     1      -3.543  -1.784   0.028  0.00  0.00    -0.290 OA
BRANCH   3   5
ATOM      5  C   UNL     1      -1.811  -3.253   0.004  0.00  0.00    +0.123 C 
ATOM      6  C   UNL     1      -0.857  -2.218  -0.000  0.00  0.00    +0.091 C 
ATOM      7  N   UNL     1      -1.069  -0.876   0.008  0.00  0.00    -0.307 N 
ATOM      8  C   UNL     1       0.002  -0.004   0.002  0.00  0.00    +0.046 A 
ATOM      9  C   UNL     1      -0.017   1.400   0.010  0.00  0.00    +0.024 A 
ATOM     10  C   UNL     1       1.155   2.119   0.002  0.00  0.00    +0.002 A 
ATOM     11  C   UNL     1       2.386   1.485  -0.013  0.00  0.00    +0.001 A 
ATOM     12  C   UNL     1       2.434   0.102  -0.021  0.00  0.00    +0.017 A 
ATOM     13  C   UNL     1       1.263  -0.618  -0.013  0.00  0.00    +0.035 A 
ATOM     14  S   UNL     1       0.872  -2.349  -0.018  0.00  0.00    -0.071 S 
ATOM     15  H   UNL     1      -2.096  -0.482   0.020  0.00  0.00    +0.153 HD
BRANCH   5  16
ATOM     16  C   UNL     1      -1.385  -4.620  -0.006  0.00  0.00    +0.105 C 
ATOM     17  N   UNL     1      -1.047  -5.704  -0.015  0.00  0.00    -0.191 NA
ENDBRANCH   5  16
ENDBRANCH   3   5
ENDBRANCH   2   3
BRANCH   2  18
ATOM     18  S   UNL     1      -5.759  -3.442  -0.681  0.00  0.00    -0.086 S 
BRANCH  18  19
ATOM     19  C   UNL     1      -6.788  -4.872  -0.742  0.00  0.00    +0.160 A 
ATOM     20  N   UNL     1      -6.522  -6.109  -0.371  0.00  0.00    -0.134 NA
ATOM     21  N   UNL     1      -7.482  -7.086  -0.507  0.00  0.00    -0.134 NA
ATOM     22  C   UNL     1      -8.664  -6.779  -1.007  0.00  0.00    +0.160 A 
ATOM     23  S   UNL     1      -8.472  -5.030  -1.316  0.00  0.00    -0.033 S 
BRANCH  22  24
ATOM     24  S   UNL     1     -10.060  -7.816  -1.289  0.00  0.00    -0.088 S 
BRANCH  24  25
ATOM     25  C   UNL     1      -9.513  -9.451  -0.727  0.00  0.00    +0.171 C 
BRANCH  25  26
ATOM     26  C   UNL     1     -10.629 -10.447  -0.915  0.00  0.00    +0.221 C 
ATOM     27  O   UNL     1     -11.689 -10.088  -1.383  0.00  0.00    -0.275 OA
ATOM     28  N   UNL     1     -10.448 -11.736  -0.564  0.00  0.00    -0.329 N 
ATOM     29  H   UNL     1     -11.263 -12.462  -0.701  0.00  0.00    +0.145 HD
ATOM     30  H   UNL     1      -9.487 -12.061  -0.139  0.00  0.00    +0.145 HD
ENDBRANCH  25  26
ENDBRANCH  24  25
ENDBRANCH  22  24
ENDBRANCH  18  19
ENDBRANCH   2  18
TORSDOF 8
