REMARK  Name = ZINC33812656
REMARK  15 active torsions:
REMARK  status: ('A' for Active; 'I' for Inactive)
REMARK    1  A    between atoms: C_1  and  C_2
REMARK    2  A    between atoms: C_2  and  C_3
REMARK    3  A    between atoms: C_3  and  C_4
REMARK    4  A    between atoms: C_4  and  C_5
REMARK    5  A    between atoms: C_5  and  N_6
REMARK    6  A    between atoms: C_10  and  C_11
REMARK    7  A    between atoms: C_12  and  C_32
REMARK    8  A    between atoms: C_13  and  C_30
REMARK    9  A    between atoms: N_16  and  C_26
REMARK   10  A    between atoms: C_17  and  N_18
REMARK   11  A    between atoms: N_21  and  C_24
REMARK   12  A    between atoms: C_24  and  C_25
REMARK   13  A    between atoms: C_26  and  C_27
REMARK   14  A    between atoms: C_27  and  C_28
REMARK   15  A    between atoms: C_28  and  C_29
REMARK                            x       y       z     vdW  Elec       q    Type
REMARK                         _______ _______ _______ _____ _____    ______ ____
ROOT
ATOM      1  C   UNL     1      -2.647  -8.432  -1.785  0.00  0.00    +0.019 A 
ATOM      2  C   UNL     1      -2.654  -8.816  -0.434  0.00  0.00    -0.017 A 
ATOM      3  C   UNL     1      -2.651 -10.172  -0.120  0.00  0.00    +0.120 A 
ATOM      4  C   UNL     1      -2.643 -11.130  -1.166  0.00  0.00    +0.270 A 
ATOM      5  O   UNL     1      -2.641 -12.318  -0.897  0.00  0.00    -0.266 OA
ATOM      6  N   UNL     1      -2.637 -10.736  -2.452  0.00  0.00    -0.295 N 
ATOM      7  C   UNL     1      -2.644  -9.419  -2.784  0.00  0.00    +0.112 A 
ATOM      8  C   UNL     1      -2.662  -7.777   0.658  0.00  0.00    +0.046 C 
ENDROOT
BRANCH   1  13
ATOM      9  N   UNL     1      -5.063  -4.305  -1.653  0.00  0.00    -0.255 N 
ATOM     10  C   UNL     1      -3.905  -4.830  -2.016  0.00  0.00    +0.258 C 
ATOM     11  O   UNL     1      -3.016  -4.134  -2.472  0.00  0.00    -0.269 OA
ATOM     12  C   UNL     1      -3.729  -6.238  -1.857  0.00  0.00    +0.077 C 
ATOM     13  C   UNL     1      -2.650  -7.014  -2.150  0.00  0.00    +0.032 C 
ATOM     14  S   UNL     1      -5.312  -6.704  -1.170  0.00  0.00    -0.061 S 
ATOM     15  C   UNL     1      -6.047  -5.077  -1.142  0.00  0.00    +0.121 C 
ATOM     16  S   UNL     1      -7.605  -4.612  -0.606  0.00  0.00    -0.027 S 
BRANCH   9  17
ATOM     17  C   UNL     1      -5.279  -2.863  -1.802  0.00  0.00    +0.115 C 
BRANCH  17  18
ATOM     18  C   UNL     1      -4.834  -2.146  -0.526  0.00  0.00    +0.019 C 
BRANCH  18  19
ATOM     19  C   UNL     1      -5.061  -0.641  -0.681  0.00  0.00    +0.001 C 
BRANCH  19  21
ATOM     20  C   UNL     1      -4.842   1.581   0.440  0.00  0.00    +0.004 C 
ATOM     21  C   UNL     1      -4.615   0.076   0.595  0.00  0.00    -0.003 C 
ENDBRANCH  19  21
ENDBRANCH  18  19
ENDBRANCH  17  18
ENDBRANCH   9  17
ENDBRANCH   1  13
BRANCH   7  22
ATOM     22  N   UNL     1      -2.644  -9.053  -4.098  0.00  0.00    -0.320 N 
ATOM     23  C   UNL     1      -3.905  -8.828  -4.821  0.00  0.00    +0.088 C 
ATOM     24  C   UNL     1      -3.825  -7.470  -5.526  0.00  0.00    -0.060 C 
ATOM     25  N   UNL     1      -2.626  -7.428  -6.372  0.00  0.00    +0.382 N 
ATOM     26  C   UNL     1      -1.421  -7.511  -5.536  0.00  0.00    -0.060 C 
ATOM     27  C   UNL     1      -1.382  -8.866  -4.831  0.00  0.00    +0.088 C 
ATOM     28  H   UNL     1      -2.642  -8.205  -7.015  0.00  0.00    -0.082 HD
BRANCH  25  29
ATOM     29  C   UNL     1      -2.608  -6.170  -7.131  0.00  0.00    -0.082 C 
ATOM     30  C   UNL     1      -1.427  -6.179  -8.104  0.00  0.00    -0.017 C 
ENDBRANCH  25  29
ENDBRANCH   7  22
BRANCH   3  31
ATOM     31  C   UNL     1      -2.657 -10.597   1.248  0.00  0.00    +0.105 C 
ATOM     32  N   UNL     1      -2.662 -10.933   2.333  0.00  0.00    -0.191 NA
ENDBRANCH   3  31
BRANCH   6  33
ATOM     33  C   UNL     1      -2.628 -11.746  -3.514  0.00  0.00    +0.126 C 
BRANCH  33  34
ATOM     34  C   UNL     1      -4.061 -12.201  -3.797  0.00  0.00    +0.021 C 
BRANCH  34  35
ATOM     35  C   UNL     1      -4.051 -13.255  -4.906  0.00  0.00    -0.002 C 
ATOM     36  C   UNL     1      -5.484 -13.710  -5.189  0.00  0.00    +0.004 C 
ENDBRANCH  34  35
ENDBRANCH  33  34
ENDBRANCH   6  33
TORSDOF 11
