REMARK  Name = ZINC67028961
REMARK  7 active torsions:
REMARK  status: ('A' for Active; 'I' for Inactive)
REMARK    1  A    between atoms: C_1  and  C_2
REMARK    2  A    between atoms: C_2  and  C_3
REMARK    3  A    between atoms: C_4  and  C_22
REMARK    4  A    between atoms: C_5  and  C_11
REMARK    5  A    between atoms: C_13  and  N_19
REMARK    6  A    between atoms: C_22  and  O_24
REMARK    7  A    between atoms: O_24  and  C_25
REMARK                            x       y       z     vdW  Elec       q    Type
REMARK                         _______ _______ _______ _____ _____    ______ ____
ROOT
ATOM      1  C   UNL     1       1.104  -0.809   1.173  0.00  0.00    +0.021 C 
ATOM      2  C   UNL     1       0.243  -0.898   2.209  0.00  0.00    +0.078 C 
ATOM      3  C   UNL     1       0.823  -1.115   3.592  0.00  0.00    +0.144 C 
ATOM      4  N   UNL     1       2.290  -1.210   3.692  0.00  0.00    -0.315 N 
ATOM      5  C   UNL     1       3.018  -1.101   2.564  0.00  0.00    +0.135 C 
ATOM      6  S   UNL     1       4.723  -1.210   2.665  0.00  0.00    -0.019 S 
ATOM      7  N   UNL     1       2.451  -0.915   1.365  0.00  0.00    -0.300 N 
ATOM      8  H   UNL     1       2.721  -1.349   4.550  0.00  0.00    +0.149 HD
ATOM      9  H   UNL     1       3.030  -0.849   0.590  0.00  0.00    +0.154 HD
ENDROOT
BRANCH   3  10
ATOM     10  C   UNL     1       0.237  -2.386   4.149  0.00  0.00    +0.015 A 
ATOM     11  C   UNL     1       0.905  -3.585   3.985  0.00  0.00    +0.044 A 
ATOM     12  C   UNL     1       0.368  -4.752   4.495  0.00  0.00    +0.162 A 
ATOM     13  C   UNL     1      -0.841  -4.722   5.170  0.00  0.00    +0.156 A 
ATOM     14  C   UNL     1      -1.511  -3.522   5.334  0.00  0.00    +0.079 A 
ATOM     15  C   UNL     1      -0.969  -2.353   4.828  0.00  0.00    +0.132 A 
ATOM     16  F   UNL     1      -1.619  -1.180   4.993  0.00  0.00    -0.205 F 
ATOM     17  F   UNL     1      -1.366  -5.863   5.668  0.00  0.00    -0.203 F 
BRANCH  12  18
ATOM     18  N   UNL     1       1.085  -6.035   4.319  0.00  0.00    +0.059 N 
ATOM     19  O   UNL     1       2.140  -6.062   3.730  0.00  0.00    -0.126 OA
ATOM     20  O   UNL     1       0.616  -7.056   4.765  0.00  0.00    -0.126 OA
ENDBRANCH  12  18
ENDBRANCH   3  10
BRANCH   1  22
ATOM     21  C   UNL     1       0.520   0.906  -0.521  0.00  0.00    +0.010 C 
ATOM     22  C   UNL     1       0.569  -0.593  -0.219  0.00  0.00    +0.048 C 
ENDBRANCH   1  22
BRANCH   2  23
ATOM     23  C   UNL     1      -1.154  -0.793   2.011  0.00  0.00    +0.339 C 
ATOM     24  O   UNL     1      -1.726   0.251   2.260  0.00  0.00    -0.245 OA
BRANCH  23  25
ATOM     25  O   UNL     1      -1.851  -1.851   1.546  0.00  0.00    -0.465 OA
ATOM     26  C   UNL     1      -3.258  -1.674   1.370  0.00  0.00    +0.280 C 
ENDBRANCH  23  25
ENDBRANCH   2  23
TORSDOF 5
