REMARK  Name = ZINC67528834
REMARK  5 active torsions:
REMARK  status: ('A' for Active; 'I' for Inactive)
REMARK    1  A    between atoms: C_3  and  C_8
REMARK    2  A    between atoms: C_11  and  N_13
REMARK    3  A    between atoms: N_16  and  C_17
REMARK    4  A    between atoms: C_19  and  C_29
REMARK    5  A    between atoms: C_22  and  N_23
REMARK                            x       y       z     vdW  Elec       q    Type
REMARK                         _______ _______ _______ _____ _____    ______ ____
ROOT
ATOM      1  C   UNL     1       7.044   4.192  -4.685  0.00  0.00    +0.057 A 
ATOM      2  C   UNL     1       6.729   3.136  -5.518  0.00  0.00    +0.038 A 
ATOM      3  C   UNL     1       7.239   3.100  -6.819  0.00  0.00    +0.038 A 
ATOM      4  C   UNL     1       8.066   4.132  -7.272  0.00  0.00    +0.015 A 
ATOM      5  C   UNL     1       8.377   5.183  -6.439  0.00  0.00    +0.026 A 
ATOM      6  C   UNL     1       7.865   5.224  -5.146  0.00  0.00    +0.051 A 
ENDROOT
BRANCH   1  10
ATOM      7  N   UNL     1       4.965   3.520  -1.804  0.00  0.00    -0.296 N 
ATOM      8  C   UNL     1       5.395   3.577  -3.080  0.00  0.00    +0.304 C 
ATOM      9  O   UNL     1       4.755   3.037  -3.962  0.00  0.00    -0.252 OA
ATOM     10  N   UNL     1       6.534   4.232  -3.379  0.00  0.00    -0.268 N 
ATOM     11  H   UNL     1       5.475   3.951  -1.101  0.00  0.00    +0.151 HD
ATOM     12  H   UNL     1       7.001   4.732  -2.691  0.00  0.00    +0.156 HD
BRANCH   7  15
ATOM     13  C   UNL     1       2.978   3.232  -0.214  0.00  0.00    +0.041 C 
ATOM     14  C   UNL     1       3.735   1.903  -0.244  0.00  0.00    +0.033 C 
ATOM     15  C   UNL     1       3.727   2.808  -1.479  0.00  0.00    +0.083 C 
BRANCH  13  18
ATOM     16  C   UNL     1      -0.647   4.277  -0.067  0.00  0.00    +0.003 A 
ATOM     17  C   UNL     1       0.734   4.327  -0.039  0.00  0.00    +0.004 A 
ATOM     18  C   UNL     1       1.472   3.177  -0.245  0.00  0.00    -0.040 A 
ATOM     19  C   UNL     1       0.830   1.976  -0.480  0.00  0.00    +0.042 A 
ATOM     20  C   UNL     1      -0.553   1.925  -0.508  0.00  0.00    +0.124 A 
ATOM     21  C   UNL     1      -1.291   3.078  -0.301  0.00  0.00    +0.038 A 
ATOM     22  F   UNL     1      -1.182   0.751  -0.738  0.00  0.00    -0.205 F 
ENDBRANCH  13  18
ENDBRANCH   7  15
ENDBRANCH   1  10
BRANCH   6  23
ATOM     23  N   UNL     1       8.178   6.292  -4.309  0.00  0.00    -0.328 N 
ATOM     24  C   UNL     1       9.366   6.244  -3.446  0.00  0.00    +0.105 C 
ATOM     25  C   UNL     1      10.214   7.493  -3.706  0.00  0.00    +0.019 C 
ATOM     26  C   UNL     1       9.349   8.741  -3.515  0.00  0.00    +0.003 C 
ATOM     27  C   UNL     1       8.195   8.723  -4.521  0.00  0.00    +0.019 C 
ATOM     28  C   UNL     1       7.328   7.490  -4.275  0.00  0.00    +0.105 C 
ENDBRANCH   6  23
BRANCH   3  29
ATOM     29  C   UNL     1       6.907   1.974  -7.712  0.00  0.00    +0.242 C 
ATOM     30  O   UNL     1       6.188   1.076  -7.316  0.00  0.00    -0.270 OA
ATOM     31  N   UNL     1       7.399   1.940  -8.966  0.00  0.00    -0.325 N 
ATOM     32  H   UNL     1       7.973   2.656  -9.281  0.00  0.00    +0.145 HD
ATOM     33  H   UNL     1       7.181   1.199  -9.553  0.00  0.00    +0.145 HD
ENDBRANCH   3  29
TORSDOF 5
