REMARK  Name = ZINC56917201
REMARK  8 active torsions:
REMARK  status: ('A' for Active; 'I' for Inactive)
REMARK    1  A    between atoms: C_1  and  C_2
REMARK    2  A    between atoms: C_2  and  C_3
REMARK    3  A    between atoms: C_3  and  C_5
REMARK    4  A    between atoms: C_3  and  N_6
REMARK    5  A    between atoms: C_7  and  C_9
REMARK    6  A    between atoms: C_9  and  C_10
REMARK    7  A    between atoms: C_10  and  N_11
REMARK    8  A    between atoms: N_14  and  N_15
REMARK                            x       y       z     vdW  Elec       q    Type
REMARK                         _______ _______ _______ _____ _____    ______ ____
ROOT
ATOM      1  N   UNL     1      -6.323   0.792  -3.556  0.00  0.00    -0.298 N 
ATOM      2  C   UNL     1      -7.666   0.901  -3.590  0.00  0.00    +0.316 C 
ATOM      3  O   UNL     1      -8.320   0.679  -2.589  0.00  0.00    -0.251 OA
ATOM      4  N   UNL     1      -8.285   1.255  -4.734  0.00  0.00    -0.219 N 
ATOM      5  H   UNL     1      -5.802   0.969  -4.354  0.00  0.00    +0.150 HD
ATOM      6  H   UNL     1      -9.251   1.333  -4.759  0.00  0.00    +0.174 HD
ENDROOT
BRANCH   4   7
ATOM      7  N   UNL     1      -7.531   1.510  -5.887  0.00  0.00    -0.246 N 
ATOM      8  C   UNL     1      -8.170   1.876  -7.068  0.00  0.00    +0.155 A 
ATOM      9  C   UNL     1      -7.415   2.123  -8.212  0.00  0.00    +0.083 A 
ATOM     10  C   UNL     1      -8.063   2.486  -9.380  0.00  0.00    +0.046 A 
ATOM     11  C   UNL     1      -9.448   2.590  -9.366  0.00  0.00    +0.079 A 
ATOM     12  C   UNL     1     -10.134   2.331  -8.194  0.00  0.00    +0.150 A 
ATOM     13  N   UNL     1      -9.489   1.981  -7.095  0.00  0.00    -0.216 NA
ATOM     14 CL   UNL     1     -11.865   2.459  -8.167  0.00  0.00    -0.060 Cl
ATOM     15 CL   UNL     1     -10.308   3.042 -10.804  0.00  0.00    -0.080 Cl
ATOM     16 CL   UNL     1      -5.686   1.978  -8.173  0.00  0.00    -0.080 Cl
ATOM     17  H   UNL     1      -6.565   1.432  -5.863  0.00  0.00    +0.172 HD
ENDBRANCH   4   7
BRANCH   1  18
ATOM     18  C   UNL     1      -5.651   0.406  -2.312  0.00  0.00    +0.115 C 
BRANCH  18  19
ATOM     19  C   UNL     1      -4.140   0.357  -2.544  0.00  0.00    +0.114 C 
BRANCH  19  21
ATOM     20  N   UNL     1      -2.105  -0.148  -1.230  0.00  0.00    -0.313 N 
ATOM     21  C   UNL     1      -3.448  -0.040  -1.265  0.00  0.00    +0.215 C 
ATOM     22  O   UNL     1      -4.100  -0.261  -0.267  0.00  0.00    -0.276 OA
ATOM     23  H   UNL     1      -1.584   0.029  -2.029  0.00  0.00    +0.149 HD
BRANCH  20  24
ATOM     24  C   UNL     1      -1.433  -0.534   0.013  0.00  0.00    +0.070 C 
ATOM     25  C   UNL     1      -1.413  -2.059   0.130  0.00  0.00    +0.028 C 
BRANCH  24  27
ATOM     26  C   UNL     1      -0.019   1.526   0.010  0.00  0.00    +0.005 C 
ATOM     27  C   UNL     1       0.002  -0.004   0.002  0.00  0.00    +0.018 C 
ENDBRANCH  24  27
ENDBRANCH  20  24
ENDBRANCH  19  21
ENDBRANCH  18  19
ENDBRANCH   1  18
TORSDOF 6
