REMARK  Name = ZINC40783196
REMARK  7 active torsions:
REMARK  status: ('A' for Active; 'I' for Inactive)
REMARK    1  A    between atoms: C_1  and  C_2
REMARK    2  A    between atoms: C_5  and  S_8
REMARK    3  A    between atoms: S_8  and  N_11
REMARK    4  A    between atoms: N_11  and  N_12
REMARK    5  A    between atoms: C_14  and  N_26
REMARK    6  A    between atoms: C_15  and  S_19
REMARK    7  A    between atoms: S_19  and  C_20
REMARK                            x       y       z     vdW  Elec       q    Type
REMARK                         _______ _______ _______ _____ _____    ______ ____
ROOT
ATOM      1  N   UNL     1       2.502  -4.622   1.012  0.00  0.00    -0.244 N 
ATOM      2  C   UNL     1       3.209  -5.590   1.717  0.00  0.00    +0.159 A 
ATOM      3  C   UNL     1       4.051  -5.226   2.769  0.00  0.00    +0.099 A 
ATOM      4  C   UNL     1       4.737  -6.237   3.444  0.00  0.00    +0.127 A 
ATOM      5  N   UNL     1       4.563  -7.501   3.062  0.00  0.00    -0.227 NA
ATOM      6  C   UNL     1       3.757  -7.801   2.064  0.00  0.00    +0.224 A 
ATOM      7  N   UNL     1       3.088  -6.877   1.404  0.00  0.00    -0.218 NA
ATOM      8  H   UNL     1       2.596  -3.686   1.247  0.00  0.00    +0.169 HD
ENDROOT
BRANCH   3   9
ATOM      9  N   UNL     1       4.205  -3.880   3.138  0.00  0.00    -0.353 N 
ATOM     10  H   UNL     1       3.723  -3.188   2.659  0.00  0.00    +0.142 HD
ATOM     11  H   UNL     1       4.795  -3.642   3.871  0.00  0.00    +0.142 HD
ENDBRANCH   3   9
BRANCH   1  12
ATOM     12  N   UNL     1       1.655  -5.000  -0.038  0.00  0.00    -0.109 NA
ATOM     13  H   UNL     1       1.999  -5.534  -0.771  0.00  0.00    +0.172 HD
BRANCH  12  14
ATOM     14  S   UNL     1       0.066  -4.535  -0.028  0.00  0.00    +0.074 S 
ATOM     15  O   UNL     1      -0.473  -4.958   1.217  0.00  0.00    -0.152 OA
ATOM     16  O   UNL     1      -0.484  -4.940  -1.274  0.00  0.00    -0.152 OA
BRANCH  14  21
ATOM     17  C   UNL     1      -0.030   1.498   0.017  0.00  0.00    +0.044 C 
ATOM     18  C   UNL     1      -0.006  -0.009   0.006  0.00  0.00    -0.050 A 
ATOM     19  C   UNL     1       0.001  -0.691  -1.196  0.00  0.00    +0.005 A 
ATOM     20  C   UNL     1       0.023  -2.073  -1.206  0.00  0.00    +0.029 A 
ATOM     21  C   UNL     1       0.039  -2.773  -0.015  0.00  0.00    +0.107 A 
ATOM     22  C   UNL     1       0.033  -2.091   1.188  0.00  0.00    +0.029 A 
ATOM     23  C   UNL     1       0.015  -0.709   1.198  0.00  0.00    +0.005 A 
ENDBRANCH  14  21
ENDBRANCH  12  14
ENDBRANCH   1  12
BRANCH   4  24
ATOM     24  S   UNL     1       5.817  -5.848   4.781  0.00  0.00    -0.068 S 
BRANCH  24  25
ATOM     25  C   UNL     1       6.318  -7.421   5.397  0.00  0.00    +0.014 A 
ATOM     26  C   UNL     1       7.508  -7.992   4.962  0.00  0.00    +0.015 A 
ATOM     27  C   UNL     1       7.896  -9.226   5.447  0.00  0.00    +0.001 A 
ATOM     28  C   UNL     1       7.104  -9.892   6.364  0.00  0.00    +0.000 A 
ATOM     29  C   UNL     1       5.919  -9.326   6.798  0.00  0.00    +0.001 A 
ATOM     30  C   UNL     1       5.526  -8.090   6.322  0.00  0.00    +0.015 A 
ENDBRANCH  24  25
ENDBRANCH   4  24
TORSDOF 6
