REMARK  Name = ZINC55493217
REMARK  7 active torsions:
REMARK  status: ('A' for Active; 'I' for Inactive)
REMARK    1  A    between atoms: C_1  and  C_2
REMARK    2  A    between atoms: C_2  and  C_3
REMARK    3  A    between atoms: C_4  and  C_25
REMARK    4  A    between atoms: C_12  and  C_14
REMARK    5  A    between atoms: C_17  and  C_20
REMARK    6  A    between atoms: C_20  and  S_21
REMARK    7  A    between atoms: S_21  and  N_24
REMARK                            x       y       z     vdW  Elec       q    Type
REMARK                         _______ _______ _______ _____ _____    ______ ____
ROOT
ATOM      1  C   UNL     1       0.707  -0.490  -1.238  0.00  0.00    -0.023 A 
ATOM      2  C   UNL     1       0.018  -0.714  -2.368  0.00  0.00    -0.007 A 
ATOM      3  S   UNL     1       1.268  -1.261  -3.514  0.00  0.00    -0.073 S 
ATOM      4  C   UNL     1       2.681  -1.173  -2.443  0.00  0.00    +0.116 A 
ATOM      5  C   UNL     1       2.140  -0.715  -1.226  0.00  0.00    +0.075 A 
ATOM      6  C   UNL     1       3.076  -0.543  -0.155  0.00  0.00    +0.260 A 
ATOM      7  O   UNL     1       2.700  -0.155   0.938  0.00  0.00    -0.267 OA
ATOM      8  N   UNL     1       4.376  -0.816  -0.371  0.00  0.00    -0.306 N 
ATOM      9  H   UNL     1       5.014  -0.701   0.351  0.00  0.00    +0.170 HD
ATOM     10  C   UNL     1       4.815  -1.253  -1.591  0.00  0.00    +0.142 A 
ATOM     11  N   UNL     1       3.974  -1.428  -2.588  0.00  0.00    -0.222 NA
ATOM     12  C   UNL     1      -1.460  -0.545  -2.609  0.00  0.00    +0.052 C 
ENDROOT
BRANCH  10  13
ATOM     13  C   UNL     1       6.250  -1.541  -1.789  0.00  0.00    +0.017 A 
ATOM     14  C   UNL     1       7.151  -1.374  -0.735  0.00  0.00    +0.012 A 
ATOM     15  C   UNL     1       8.490  -1.645  -0.926  0.00  0.00    +0.006 A 
ATOM     16  C   UNL     1       8.941  -2.082  -2.159  0.00  0.00    -0.025 A 
ATOM     17  C   UNL     1       8.054  -2.250  -3.208  0.00  0.00    +0.006 A 
ATOM     18  C   UNL     1       6.711  -1.988  -3.029  0.00  0.00    +0.012 A 
BRANCH  16  19
ATOM     19  C   UNL     1      10.405  -2.376  -2.361  0.00  0.00    +0.219 C 
BRANCH  19  20
ATOM     20  S   UNL     1      10.733  -4.115  -1.963  0.00  0.00    +0.031 S 
ATOM     21  O   UNL     1      10.558  -4.340  -0.571  0.00  0.00    -0.158 OA
ATOM     22  O   UNL     1      10.109  -4.962  -2.918  0.00  0.00    -0.158 OA
BRANCH  20  23
ATOM     23  N   UNL     1      12.357  -4.311  -2.221  0.00  0.00    -0.208 NA
ATOM     24  H   UNL     1      12.895  -3.562  -2.522  0.00  0.00    +0.144 HD
ATOM     25  H   UNL     1      12.771  -5.176  -2.071  0.00  0.00    +0.144 HD
ENDBRANCH  20  23
ENDBRANCH  19  20
ENDBRANCH  16  19
ENDBRANCH  10  13
BRANCH   1  27
ATOM     26  C   UNL     1      -0.019   1.526   0.010  0.00  0.00    +0.009 C 
ATOM     27  C   UNL     1       0.002  -0.004   0.002  0.00  0.00    +0.033 C 
ENDBRANCH   1  27
TORSDOF 5
