REMARK  Name = ZINC22569363
REMARK  12 active torsions:
REMARK  status: ('A' for Active; 'I' for Inactive)
REMARK    1  A    between atoms: C_1  and  C_2
REMARK    2  A    between atoms: C_2  and  O_3
REMARK    3  A    between atoms: O_3  and  C_4
REMARK    4  A    between atoms: C_6  and  C_13
REMARK    5  A    between atoms: C_8  and  O_10
REMARK    6  A    between atoms: O_10  and  C_11
REMARK    7  A    between atoms: C_11  and  C_12
REMARK    8  A    between atoms: N_15  and  C_16
REMARK    9  A    between atoms: C_16  and  N_18
REMARK   10  A    between atoms: N_18  and  C_19
REMARK   11  A    between atoms: C_20  and  C_30
REMARK   12  A    between atoms: C_25  and  C_29
REMARK                            x       y       z     vdW  Elec       q    Type
REMARK                         _______ _______ _______ _____ _____    ______ ____
ROOT
ATOM      1  C   UNL     1      -0.021   1.708   0.011  0.00  0.00    +0.141 C 
ATOM      2  S   UNL     1       0.002  -0.004   0.002  0.00  0.00    -0.018 S 
ENDROOT
BRANCH   1   5
ATOM      3  C   UNL     1      -2.355   1.676   0.022  0.00  0.00    +0.250 C 
ATOM      4  O   UNL     1      -2.339   0.461   0.016  0.00  0.00    -0.270 OA
ATOM      5  N   UNL     1      -1.197   2.366   0.021  0.00  0.00    -0.264 N 
ATOM      6  H   UNL     1      -1.212   3.466   0.027  0.00  0.00    +0.157 HD
BRANCH   3   9
ATOM      7  C   UNL     1      -6.052   2.366   0.044  0.00  0.00    +0.125 A 
ATOM      8  C   UNL     1      -4.845   1.685   0.034  0.00  0.00    +0.059 A 
ATOM      9  C   UNL     1      -3.645   2.397   0.032  0.00  0.00    +0.044 A 
ATOM     10  C   UNL     1      -3.666   3.793   0.046  0.00  0.00    +0.059 A 
ATOM     11  C   UNL     1      -4.877   4.465   0.050  0.00  0.00    +0.125 A 
ATOM     12  C   UNL     1      -6.068   3.753   0.052  0.00  0.00    +0.091 A 
BRANCH   7  13
ATOM     13  O   UNL     1      -7.221   1.673   0.046  0.00  0.00    -0.492 OA
BRANCH  13  15
ATOM     14  C   UNL     1      -9.631   1.493   0.057  0.00  0.00    +0.048 C 
ATOM     15  C   UNL     1      -8.428   2.438   0.056  0.00  0.00    +0.225 C 
ENDBRANCH  13  15
ENDBRANCH   7  13
BRANCH  11  16
ATOM     16  O   UNL     1      -4.899   5.824   0.058  0.00  0.00    -0.492 OA
BRANCH  16  17
ATOM     17  C   UNL     1      -6.183   6.452   0.068  0.00  0.00    +0.225 C 
ATOM     18  C   UNL     1      -6.007   7.972   0.076  0.00  0.00    +0.048 C 
ENDBRANCH  16  17
ENDBRANCH  11  16
ENDBRANCH   3   9
ENDBRANCH   1   5
BRANCH   1  19
ATOM     19  N   UNL     1       1.137   2.397   0.004  0.00  0.00    -0.291 N 
ATOM     20  H   UNL     1       1.122   3.497   0.010  0.00  0.00    +0.154 HD
BRANCH  19  21
ATOM     21  C   UNL     1       2.346   1.721  -0.011  0.00  0.00    +0.084 A 
ATOM     22  C   UNL     1       3.630   2.249  -0.026  0.00  0.00    +0.068 A 
ATOM     23  C   UNL     1       4.741   1.313  -0.036  0.00  0.00    -0.023 A 
ATOM     24  C   UNL     1       4.393   0.008  -0.040  0.00  0.00    -0.004 A 
ATOM     25  S   UNL     1       2.623   0.011  -0.024  0.00  0.00    -0.077 S 
ATOM     26  C   UNL     1       5.315  -1.173  -0.058  0.00  0.00    +0.046 C 
ATOM     27  C   UNL     1       6.718  -0.685  -0.447  0.00  0.00    -0.009 C 
ATOM     28  C   UNL     1       7.063   0.547   0.394  0.00  0.00    +0.008 C 
ATOM     29  C   UNL     1       6.205   1.735  -0.046  0.00  0.00    +0.037 C 
ATOM     30  C   UNL     1       7.739  -1.792  -0.177  0.00  0.00    +0.008 C 
BRANCH  22  31
ATOM     31  C   UNL     1       3.856   3.697  -0.028  0.00  0.00    +0.244 C 
ATOM     32  O   UNL     1       3.963   4.298   1.026  0.00  0.00    -0.270 OA
ATOM     33  N   UNL     1       3.945   4.364  -1.196  0.00  0.00    -0.325 N 
ATOM     34  H   UNL     1       4.115   5.451  -1.197  0.00  0.00    +0.145 HD
ATOM     35  H   UNL     1       3.848   3.822  -2.147  0.00  0.00    +0.145 HD
ENDBRANCH  22  31
ENDBRANCH  19  21
ENDBRANCH   1  19
TORSDOF 9
