REMARK  Name = ZINC20969340
REMARK  11 active torsions:
REMARK  status: ('A' for Active; 'I' for Inactive)
REMARK    1  A    between atoms: C_1  and  C_2
REMARK    2  A    between atoms: C_2  and  C_3
REMARK    3  A    between atoms: C_3  and  C_4
REMARK    4  A    between atoms: C_4  and  N_5
REMARK    5  A    between atoms: C_6  and  N_28
REMARK    6  A    between atoms: C_7  and  N_14
REMARK    7  A    between atoms: N_14  and  C_15
REMARK    8  A    between atoms: C_15  and  C_16
REMARK    9  A    between atoms: C_17  and  C_19
REMARK   10  A    between atoms: C_24  and  O_25
REMARK   11  A    between atoms: O_25  and  C_26
REMARK                            x       y       z     vdW  Elec       q    Type
REMARK                         _______ _______ _______ _____ _____    ______ ____
ROOT
ATOM      1  N   UNL     1      -4.314   4.601   0.392  0.00  0.00    -0.280 N 
ATOM      2  C   UNL     1      -3.291   3.682   0.377  0.00  0.00    +0.127 A 
ATOM      3  C   UNL     1      -3.594   2.338   0.290  0.00  0.00    +0.140 A 
ATOM      4  C   UNL     1      -4.945   1.950   0.214  0.00  0.00    +0.277 A 
ATOM      5  O   UNL     1      -5.241   0.770   0.132  0.00  0.00    -0.266 OA
ATOM      6  N   UNL     1      -5.909   2.891   0.239  0.00  0.00    -0.273 N 
ATOM      7  H   UNL     1      -6.967   2.595   0.190  0.00  0.00    +0.173 HD
ATOM      8  C   UNL     1      -5.595   4.196   0.323  0.00  0.00    +0.331 A 
ATOM      9  O   UNL     1      -6.484   5.024   0.337  0.00  0.00    -0.246 OA
ENDROOT
BRANCH   3  10
ATOM     10  N   UNL     1      -2.567   1.371   0.273  0.00  0.00    -0.260 N 
ATOM     11  C   UNL     1      -1.695   1.295   1.297  0.00  0.00    +0.255 C 
ATOM     12  O   UNL     1      -0.783   0.490   1.262  0.00  0.00    -0.270 OA
BRANCH  11  13
ATOM     13  C   UNL     1      -1.845   2.189   2.461  0.00  0.00    +0.080 A 
ATOM     14  C   UNL     1      -3.105   2.679   2.813  0.00  0.00    +0.036 A 
ATOM     15  C   UNL     1      -3.239   3.510   3.905  0.00  0.00    +0.042 A 
ATOM     16  C   UNL     1      -2.128   3.861   4.657  0.00  0.00    +0.023 A 
ATOM     17  C   UNL     1      -0.878   3.383   4.320  0.00  0.00    +0.048 A 
ATOM     18  C   UNL     1      -0.725   2.547   3.224  0.00  0.00    +0.132 A 
ATOM     19 CL   UNL     1      -4.805   4.118   4.342  0.00  0.00    -0.084 Cl
BRANCH  18  20
ATOM     20  O   UNL     1       0.504   2.077   2.892  0.00  0.00    -0.494 OA
ATOM     21  C   UNL     1       1.599   2.484   3.715  0.00  0.00    +0.277 C 
ENDBRANCH  18  20
ENDBRANCH  11  13
BRANCH  10  22
ATOM     22  C   UNL     1      -2.450   0.448  -0.859  0.00  0.00    +0.111 C 
ATOM     23  C   UNL     1      -3.127  -0.879  -0.507  0.00  0.00    +0.025 C 
ENDBRANCH  10  22
ENDBRANCH   3  10
BRANCH   2  24
ATOM     24  N   UNL     1      -1.982   4.096   0.447  0.00  0.00    -0.343 N 
ATOM     25  H   UNL     1      -1.169   3.355   0.435  0.00  0.00    +0.144 HD
ATOM     26  H   UNL     1      -1.748   5.168   0.516  0.00  0.00    +0.144 HD
ENDBRANCH   2  24
BRANCH   1  27
ATOM     27  C   UNL     1      -4.006   6.031   0.483  0.00  0.00    +0.128 C 
BRANCH  27  28
ATOM     28  C   UNL     1      -3.848   6.609  -0.925  0.00  0.00    +0.021 C 
BRANCH  28  30
ATOM     29  C   UNL     1      -3.368   8.681  -2.237  0.00  0.00    +0.004 C 
ATOM     30  C   UNL     1      -3.527   8.102  -0.829  0.00  0.00    -0.002 C 
ENDBRANCH  28  30
ENDBRANCH  27  28
ENDBRANCH   1  27
TORSDOF 8
