REMARK  Name = ZINC14466883
REMARK  3 active torsions:
REMARK  status: ('A' for Active; 'I' for Inactive)
REMARK    1  A    between atoms: C_6  and  O_7
REMARK    2  A    between atoms: C_15  and  C_18
REMARK    3  A    between atoms: C_23  and  O_24
REMARK                            x       y       z     vdW  Elec       q    Type
REMARK                         _______ _______ _______ _____ _____    ______ ____
ROOT
ATOM      1  C   UNL     1      -0.013   1.076   0.008  0.00  0.00    +0.047 A 
ATOM      2  C   UNL     1      -1.218   1.748   0.017  0.00  0.00    +0.027 A 
ATOM      3  C   UNL     1      -1.247   3.137   0.033  0.00  0.00    +0.032 A 
ATOM      4  C   UNL     1      -0.042   3.848   0.015  0.00  0.00    -0.016 A 
ATOM      5  C   UNL     1       1.158   3.171   0.002  0.00  0.00    +0.051 A 
ATOM      6  C   UNL     1       1.179   1.784   0.000  0.00  0.00    +0.117 A 
ATOM      7  C   UNL     1      -0.120   5.325  -0.002  0.00  0.00    +0.049 C 
ATOM      8  C   UNL     1       0.973   6.173   0.537  0.00  0.00    -0.023 C 
ATOM      9  C   UNL     1       0.444   7.290   1.022  0.00  0.00    -0.030 C 
ATOM     10  C   UNL     1      -1.078   7.256   0.871  0.00  0.00    +0.033 C 
ATOM     11  C   UNL     1      -1.353   5.747   0.853  0.00  0.00    +0.029 C 
ATOM     12  C   UNL     1      -2.567   5.273   0.075  0.00  0.00    +0.109 C 
ATOM     13  N   UNL     1      -2.486   3.796   0.072  0.00  0.00    -0.336 N 
ATOM     14  H   UNL     1      -3.303   3.273   0.097  0.00  0.00    +0.147 HD
ENDROOT
BRANCH  12  15
ATOM     15  C   UNL     1      -3.832   5.723   0.758  0.00  0.00    +0.017 A 
ATOM     16  C   UNL     1      -4.484   4.876   1.634  0.00  0.00    +0.029 A 
ATOM     17  C   UNL     1      -5.646   5.288   2.261  0.00  0.00    +0.043 A 
ATOM     18  C   UNL     1      -6.158   6.550   2.014  0.00  0.00    +0.043 A 
ATOM     19  C   UNL     1      -5.509   7.400   1.139  0.00  0.00    +0.084 A 
ATOM     20  C   UNL     1      -4.340   6.990   0.513  0.00  0.00    +0.140 A 
ATOM     21 CL   UNL     1      -6.151   8.983   0.828  0.00  0.00    -0.080 Cl
ATOM     22 CL   UNL     1      -6.463   4.222   3.361  0.00  0.00    -0.083 Cl
BRANCH  20  23
ATOM     23  O   UNL     1      -3.697   7.827  -0.344  0.00  0.00    -0.505 OA
ATOM     24  H   UNL     1      -3.987   7.748  -1.263  0.00  0.00    +0.292 HD
ENDBRANCH  20  23
ENDBRANCH  12  15
BRANCH   6  25
ATOM     25  O   UNL     1       2.367   1.121  -0.008  0.00  0.00    -0.507 OA
ATOM     26  H   UNL     1       2.704   0.929  -0.894  0.00  0.00    +0.292 HD
ENDBRANCH   6  25
TORSDOF 3
