REMARK  Name = ZINC37996485
REMARK  3 active torsions:
REMARK  status: ('A' for Active; 'I' for Inactive)
REMARK    1  A    between atoms: C_3  and  N_20
REMARK    2  A    between atoms: C_4  and  C_8
REMARK    3  A    between atoms: C_15  and  C_17
REMARK                            x       y       z     vdW  Elec       q    Type
REMARK                         _______ _______ _______ _____ _____    ______ ____
ROOT
ATOM      1  C   UNL     1       3.754  -0.657  -0.339  0.00  0.00    +0.249 C 
ATOM      2  O   UNL     1       4.809  -0.060  -0.241  0.00  0.00    -0.270 OA
ATOM      3  N   UNL     1       3.743  -2.005  -0.364  0.00  0.00    -0.286 N 
ATOM      4  C   UNL     1       2.493  -2.738  -0.605  0.00  0.00    +0.109 C 
ATOM      5  C   UNL     1       2.289  -3.750   0.527  0.00  0.00    +0.019 C 
ATOM      6  C   UNL     1       3.529  -4.640   0.640  0.00  0.00    +0.004 C 
ATOM      7  C   UNL     1       4.749  -3.779   0.975  0.00  0.00    +0.032 C 
ATOM      8  C   UNL     1       4.981  -2.768  -0.157  0.00  0.00    +0.162 C 
ENDROOT
BRANCH   1  12
ATOM      9  C   UNL     1       0.104   1.505  -0.601  0.00  0.00    +0.040 A 
ATOM     10  C   UNL     1       0.949   1.721   0.470  0.00  0.00    +0.026 A 
ATOM     11  C   UNL     1       2.144   1.020   0.566  0.00  0.00    +0.037 A 
ATOM     12  C   UNL     1       2.488   0.093  -0.430  0.00  0.00    +0.060 A 
ATOM     13  C   UNL     1       1.624  -0.115  -1.508  0.00  0.00    +0.053 A 
ATOM     14  C   UNL     1       0.441   0.590  -1.587  0.00  0.00    +0.124 A 
ATOM     15  F   UNL     1      -0.394   0.388  -2.630  0.00  0.00    -0.205 F 
BRANCH  11  16
ATOM     16  N   UNL     1       2.995   1.236   1.643  0.00  0.00    -0.357 N 
ATOM     17  H   UNL     1       2.796   1.935   2.286  0.00  0.00    +0.142 HD
ATOM     18  H   UNL     1       3.788   0.688   1.753  0.00  0.00    +0.142 HD
ENDBRANCH  11  16
ENDBRANCH   1  12
BRANCH   8  19
ATOM     19  C   UNL     1       6.096  -1.828   0.223  0.00  0.00    +0.231 C 
ATOM     20  O   UNL     1       6.011  -1.163   1.234  0.00  0.00    -0.274 OA
ATOM     21  N   UNL     1       7.189  -1.726  -0.559  0.00  0.00    -0.328 N 
ATOM     22  H   UNL     1       7.257  -2.258  -1.368  0.00  0.00    +0.145 HD
ATOM     23  H   UNL     1       7.906  -1.121  -0.314  0.00  0.00    +0.145 HD
ENDBRANCH   8  19
TORSDOF 3
