REMARK  Name = ZINC04678926
REMARK  7 active torsions:
REMARK  status: ('A' for Active; 'I' for Inactive)
REMARK    1  A    between atoms: C_1  and  C_2
REMARK    2  A    between atoms: C_2  and  O_3
REMARK    3  A    between atoms: O_3  and  C_4
REMARK    4  A    between atoms: C_6  and  C_11
REMARK    5  A    between atoms: C_9  and  O_10
REMARK    6  A    between atoms: C_16  and  C_20
REMARK    7  A    between atoms: C_16  and  C_21
REMARK                            x       y       z     vdW  Elec       q    Type
REMARK                         _______ _______ _______ _____ _____    ______ ____
ROOT
ATOM      1  C   UNL     1       0.654  -4.954  -0.018  0.00  0.00    +0.089 C 
ATOM      2  C   UNL     1       0.638  -5.831   1.214  0.00  0.00    +0.024 C 
ATOM      3  C   UNL     1       0.324  -7.141   1.160  0.00  0.00    +0.016 C 
ATOM      4  C   UNL     1       0.302  -7.983   2.416  0.00  0.00    +0.058 C 
ATOM      5  C   UNL     1       1.339  -7.456   3.409  0.00  0.00    -0.023 C 
ATOM      6  C   UNL     1       1.006  -5.994   3.724  0.00  0.00    +0.086 C 
ATOM      7  C   UNL     1       0.969  -5.215   2.438  0.00  0.00    +0.162 C 
ATOM      8  O   UNL     1       1.230  -4.029   2.454  0.00  0.00    -0.292 OA
ATOM      9  C   UNL     1       2.736  -7.544   2.790  0.00  0.00    +0.011 C 
ATOM     10  C   UNL     1       1.291  -8.284   4.694  0.00  0.00    +0.011 C 
ATOM     11  N   UNL     1       0.017  -7.774  -0.020  0.00  0.00    -0.317 N 
ATOM     12  C   UNL     1       0.315  -7.150  -1.208  0.00  0.00    +0.047 C 
ATOM     13  C   UNL     1       0.625  -5.815  -1.252  0.00  0.00    +0.033 C 
ATOM     14  C   UNL     1       0.893  -5.435  -2.586  0.00  0.00    +0.193 C 
ATOM     15  O   UNL     1       1.205  -4.324  -2.969  0.00  0.00    -0.287 OA
ATOM     16  C   UNL     1       0.726  -6.637  -3.433  0.00  0.00    +0.031 A 
ATOM     17  C   UNL     1       0.366  -7.698  -2.567  0.00  0.00    +0.007 A 
ATOM     18  C   UNL     1       0.135  -8.972  -3.061  0.00  0.00    +0.010 A 
ATOM     19  C   UNL     1       0.275  -9.152  -4.440  0.00  0.00    +0.001 A 
ATOM     20  C   UNL     1       0.625  -8.120  -5.277  0.00  0.00    +0.001 A 
ATOM     21  C   UNL     1       0.860  -6.830  -4.794  0.00  0.00    +0.012 A 
ATOM     22  H   UNL     1      -0.405  -8.648  -0.015  0.00  0.00    +0.152 HD
ENDROOT
BRANCH   1  25
ATOM     23  C   UNL     1      -1.498  -1.849   0.006  0.00  0.00    +0.162 A 
ATOM     24  C   UNL     1      -0.389  -2.680  -0.003  0.00  0.00    +0.054 A 
ATOM     25  C   UNL     1      -0.553  -4.052  -0.008  0.00  0.00    -0.032 A 
ATOM     26  C   UNL     1      -1.823  -4.600  -0.005  0.00  0.00    +0.008 A 
ATOM     27  C   UNL     1      -2.934  -3.777   0.004  0.00  0.00    +0.049 A 
ATOM     28  C   UNL     1      -2.776  -2.400   0.016  0.00  0.00    +0.158 A 
BRANCH  28  29
ATOM     29  O   UNL     1      -3.868  -1.589   0.030  0.00  0.00    -0.503 OA
ATOM     30  H   UNL     1      -4.192  -1.350  -0.849  0.00  0.00    +0.292 HD
ENDBRANCH  28  29
BRANCH  23  31
ATOM     31  O   UNL     1      -1.339  -0.499   0.012  0.00  0.00    -0.489 OA
BRANCH  31  33
ATOM     32  C   UNL     1      -0.019   1.526   0.010  0.00  0.00    +0.048 C 
ATOM     33  C   UNL     1       0.002  -0.004   0.002  0.00  0.00    +0.226 C 
ENDBRANCH  31  33
ENDBRANCH  23  31
ENDBRANCH   1  25
TORSDOF 4
