REMARK  Name = ZINC66108868
REMARK  10 active torsions:
REMARK  status: ('A' for Active; 'I' for Inactive)
REMARK    1  A    between atoms: C_4  and  C_7
REMARK    2  A    between atoms: C_7  and  C_8
REMARK    3  A    between atoms: C_8  and  C_9
REMARK    4  A    between atoms: N_11  and  C_12
REMARK    5  A    between atoms: C_15  and  N_18
REMARK    6  A    between atoms: C_19  and  C_21
REMARK    7  A    between atoms: C_21  and  N_22
REMARK    8  A    between atoms: N_22  and  C_23
REMARK    9  A    between atoms: C_26  and  C_29
REMARK   10  A    between atoms: N_31  and  C_32
REMARK                            x       y       z     vdW  Elec       q    Type
REMARK                         _______ _______ _______ _____ _____    ______ ____
ROOT
ATOM      1  N   UNL     1      11.029  -4.567   2.107  0.00  0.00    -0.284 N 
ATOM      2  C   UNL     1      11.634  -5.056   3.208  0.00  0.00    +0.234 C 
ATOM      3  O   UNL     1      11.149  -4.865   4.303  0.00  0.00    -0.274 OA
ATOM      4  H   UNL     1      11.451  -4.662   1.239  0.00  0.00    +0.155 HD
ENDROOT
BRANCH   1   8
ATOM      5  C   UNL     1       7.341  -2.650   2.436  0.00  0.00    +0.033 A 
ATOM      6  C   UNL     1       7.624  -3.423   1.317  0.00  0.00    +0.025 A 
ATOM      7  C   UNL     1       8.845  -4.057   1.209  0.00  0.00    +0.025 A 
ATOM      8  C   UNL     1       9.790  -3.923   2.218  0.00  0.00    +0.034 A 
ATOM      9  C   UNL     1       9.507  -3.150   3.336  0.00  0.00    +0.025 A 
ATOM     10  C   UNL     1       8.288  -2.510   3.442  0.00  0.00    +0.025 A 
BRANCH   5  13
ATOM     11  C   UNL     1       6.022  -0.793   3.130  0.00  0.00    +0.218 C 
ATOM     12  O   UNL     1       7.007  -0.297   3.634  0.00  0.00    -0.275 OA
ATOM     13  N   UNL     1       6.102  -2.005   2.546  0.00  0.00    -0.285 N 
ATOM     14  H   UNL     1       5.301  -2.432   2.202  0.00  0.00    +0.155 HD
BRANCH  11  15
ATOM     15  C   UNL     1       4.709  -0.054   3.156  0.00  0.00    +0.101 C 
BRANCH  15  16
ATOM     16  C   UNL     1       4.892   1.285   3.872  0.00  0.00    +0.044 C 
BRANCH  16  20
ATOM     17  C   UNL     1       1.170   3.381   3.947  0.00  0.00    +0.000 A 
ATOM     18  C   UNL     1       1.500   2.521   4.977  0.00  0.00    +0.000 A 
ATOM     19  C   UNL     1       2.704   1.843   4.953  0.00  0.00    +0.003 A 
ATOM     20  C   UNL     1       3.578   2.024   3.898  0.00  0.00    -0.047 A 
ATOM     21  C   UNL     1       3.248   2.884   2.867  0.00  0.00    +0.003 A 
ATOM     22  C   UNL     1       2.045   3.563   2.892  0.00  0.00    +0.000 A 
ENDBRANCH  16  20
ENDBRANCH  15  16
ENDBRANCH  11  15
ENDBRANCH   5  13
ENDBRANCH   1   8
BRANCH   2  23
ATOM     23  C   UNL     1      12.915  -5.840   3.078  0.00  0.00    +0.198 C 
BRANCH  23  24
ATOM     24  N   UNL     1      13.369  -6.258   4.407  0.00  0.00    -0.335 N 
ATOM     25  H   UNL     1      12.854  -6.017   5.193  0.00  0.00    +0.147 HD
BRANCH  24  26
ATOM     26  C   UNL     1      14.537  -6.999   4.541  0.00  0.00    +0.028 A 
ATOM     27  C   UNL     1      15.278  -7.338   3.413  0.00  0.00    +0.023 A 
ATOM     28  C   UNL     1      16.435  -8.072   3.542  0.00  0.00    +0.015 A 
ATOM     29  C   UNL     1      16.867  -8.476   4.809  0.00  0.00    +0.037 A 
ATOM     30  C   UNL     1      16.120  -8.133   5.941  0.00  0.00    +0.015 A 
ATOM     31  C   UNL     1      14.967  -7.395   5.805  0.00  0.00    +0.023 A 
BRANCH  29  32
ATOM     32  C   UNL     1      18.106  -9.263   4.952  0.00  0.00    +0.244 C 
ATOM     33  O   UNL     1      18.754  -9.560   3.967  0.00  0.00    -0.270 OA
ATOM     34  N   UNL     1      18.521  -9.652   6.174  0.00  0.00    -0.308 N 
ATOM     35  H   UNL     1      18.004  -9.414   6.960  0.00  0.00    +0.149 HD
BRANCH  34  36
ATOM     36  C   UNL     1      19.752 -10.433   6.315  0.00  0.00    +0.073 C 
ATOM     37  C   UNL     1      19.441 -11.917   6.110  0.00  0.00    +0.022 C 
ATOM     38  C   UNL     1      20.727 -12.733   6.258  0.00  0.00    +0.002 C 
ATOM     39  C   UNL     1      21.306 -12.523   7.658  0.00  0.00    +0.000 C 
ATOM     40  C   UNL     1      21.617 -11.039   7.864  0.00  0.00    +0.002 C 
ATOM     41  C   UNL     1      20.331 -10.223   7.716  0.00  0.00    +0.022 C 
ENDBRANCH  34  36
ENDBRANCH  29  32
ENDBRANCH  24  26
ENDBRANCH  23  24
ENDBRANCH   2  23
TORSDOF 10
