REMARK  Name = ZINC66072284
REMARK  11 active torsions:
REMARK  status: ('A' for Active; 'I' for Inactive)
REMARK    1  A    between atoms: C_1  and  C_2
REMARK    2  A    between atoms: C_2  and  C_3
REMARK    3  A    between atoms: C_3  and  C_5
REMARK    4  A    between atoms: C_3  and  N_6
REMARK    5  A    between atoms: C_7  and  C_9
REMARK    6  A    between atoms: C_12  and  N_15
REMARK    7  A    between atoms: C_16  and  C_18
REMARK    8  A    between atoms: C_18  and  N_19
REMARK    9  A    between atoms: N_19  and  C_20
REMARK   10  A    between atoms: C_24  and  C_26
REMARK   11  A    between atoms: N_28  and  C_29
REMARK                            x       y       z     vdW  Elec       q    Type
REMARK                         _______ _______ _______ _____ _____    ______ ____
ROOT
ATOM      1  C   UNL     1      -2.567   2.243 -10.546  0.00  0.00    +0.198 C 
ENDROOT
BRANCH   1   3
ATOM      2  N   UNL     1      -2.416   1.505  -8.189  0.00  0.00    -0.284 N 
ATOM      3  C   UNL     1      -1.787   1.740  -9.358  0.00  0.00    +0.234 C 
ATOM      4  O   UNL     1      -0.594   1.546  -9.454  0.00  0.00    -0.274 OA
ATOM      5  H   UNL     1      -3.381   1.586  -8.133  0.00  0.00    +0.155 HD
BRANCH   2   9
ATOM      6  C   UNL     1      -0.216   0.434  -4.818  0.00  0.00    +0.037 A 
ATOM      7  C   UNL     1       0.328   1.311  -5.760  0.00  0.00    +0.015 A 
ATOM      8  C   UNL     1      -0.402   1.663  -6.873  0.00  0.00    +0.024 A 
ATOM      9  C   UNL     1      -1.680   1.146  -7.061  0.00  0.00    +0.033 A 
ATOM     10  C   UNL     1      -2.225   0.272  -6.126  0.00  0.00    +0.024 A 
ATOM     11  C   UNL     1      -1.498  -0.088  -5.013  0.00  0.00    +0.015 A 
BRANCH   6  13
ATOM     12  N   UNL     1       1.799   0.558  -3.437  0.00  0.00    -0.309 N 
ATOM     13  C   UNL     1       0.563   0.054  -3.624  0.00  0.00    +0.244 C 
ATOM     14  O   UNL     1       0.090  -0.714  -2.808  0.00  0.00    -0.270 OA
ATOM     15  H   UNL     1       2.176   1.170  -4.088  0.00  0.00    +0.149 HD
BRANCH  12  16
ATOM     16  C   UNL     1       2.573   0.181  -2.252  0.00  0.00    +0.070 C 
ATOM     17  C   UNL     1       2.186   1.087  -1.081  0.00  0.00    +0.028 C 
BRANCH  16  19
ATOM     18  C   UNL     1       4.479  -0.658  -3.632  0.00  0.00    +0.005 C 
ATOM     19  C   UNL     1       4.066   0.338  -2.546  0.00  0.00    +0.018 C 
ENDBRANCH  16  19
ENDBRANCH  12  16
ENDBRANCH   6  13
ENDBRANCH   2   9
ENDBRANCH   1   3
BRANCH   1  20
ATOM     20  N   UNL     1      -1.663   2.417 -11.685  0.00  0.00    -0.335 N 
ATOM     21  H   UNL     1      -0.719   2.213 -11.591  0.00  0.00    +0.147 HD
BRANCH  20  22
ATOM     22  C   UNL     1      -2.160   2.878 -12.908  0.00  0.00    +0.028 A 
ATOM     23  C   UNL     1      -3.512   3.176 -13.040  0.00  0.00    +0.024 A 
ATOM     24  C   UNL     1      -4.009   3.631 -14.246  0.00  0.00    +0.022 A 
ATOM     25  C   UNL     1      -3.166   3.794 -15.329  0.00  0.00    +0.053 A 
ATOM     26  C   UNL     1      -1.806   3.498 -15.205  0.00  0.00    +0.057 A 
ATOM     27  C   UNL     1      -1.305   3.043 -13.985  0.00  0.00    +0.037 A 
ATOM     28 CL   UNL     1      -3.796   4.365 -16.842  0.00  0.00    -0.083 Cl
BRANCH  26  29
ATOM     29  C   UNL     1      -0.902   3.670 -16.361  0.00  0.00    +0.246 C 
ATOM     30  O   UNL     1      -1.340   4.071 -17.422  0.00  0.00    -0.270 OA
ATOM     31  N   UNL     1       0.410   3.384 -16.239  0.00  0.00    -0.308 N 
ATOM     32  H   UNL     1       0.760   3.064 -15.393  0.00  0.00    +0.149 HD
BRANCH  31  33
ATOM     33  C   UNL     1       1.306   3.555 -17.385  0.00  0.00    +0.073 C 
ATOM     34  C   UNL     1       1.263   2.300 -18.259  0.00  0.00    +0.022 C 
ATOM     35  C   UNL     1       2.200   2.479 -19.455  0.00  0.00    +0.002 C 
ATOM     36  C   UNL     1       3.628   2.704 -18.955  0.00  0.00    +0.000 C 
ATOM     37  C   UNL     1       3.671   3.959 -18.082  0.00  0.00    +0.002 C 
ATOM     38  C   UNL     1       2.735   3.780 -16.885  0.00  0.00    +0.022 C 
ENDBRANCH  31  33
ENDBRANCH  26  29
ENDBRANCH  20  22
ENDBRANCH   1  20
TORSDOF 9
