REMARK  Name = ZINC39693334
REMARK  9 active torsions:
REMARK  status: ('A' for Active; 'I' for Inactive)
REMARK    1  A    between atoms: C_1  and  C_2
REMARK    2  A    between atoms: C_3  and  C_8
REMARK    3  A    between atoms: C_4  and  C_7
REMARK    4  A    between atoms: C_12  and  C_21
REMARK    5  A    between atoms: N_23  and  C_24
REMARK    6  A    between atoms: C_24  and  C_25
REMARK    7  A    between atoms: C_25  and  N_26
REMARK    8  A    between atoms: C_27  and  C_29
REMARK    9  A    between atoms: C_29  and  C_30
REMARK                            x       y       z     vdW  Elec       q    Type
REMARK                         _______ _______ _______ _____ _____    ______ ____
ROOT
ATOM      1  C   UNL     1       0.029  -0.415  -2.749  0.00  0.00    +0.252 C 
ATOM      2  O   UNL     1       1.059  -0.160  -3.343  0.00  0.00    -0.270 OA
ATOM      3  N   UNL     1      -1.161  -0.208  -3.345  0.00  0.00    -0.296 N 
ATOM      4  C   UNL     1      -2.512  -0.450  -2.785  0.00  0.00    +0.121 C 
ATOM      5  C   UNL     1      -3.361   0.741  -3.283  0.00  0.00    +0.100 C 
ATOM      6  C   UNL     1      -2.638   1.237  -4.546  0.00  0.00    -0.004 C 
ATOM      7  C   UNL     1      -1.416   0.320  -4.707  0.00  0.00    +0.115 C 
ATOM      8  C   UNL     1      -3.553   1.116  -5.761  0.00  0.00    -0.010 C 
ATOM      9  C   UNL     1      -2.833   1.669  -6.994  0.00  0.00    -0.082 C 
ATOM     10  N   UNL     1      -2.474   3.074  -6.765  0.00  0.00    +0.379 N 
ATOM     11  C   UNL     1      -1.520   3.171  -5.653  0.00  0.00    -0.082 C 
ATOM     12  C   UNL     1      -2.185   2.682  -4.363  0.00  0.00    -0.010 C 
ATOM     13  H   UNL     1      -2.054   3.453  -7.601  0.00  0.00    -0.086 HD
ATOM     14  H   UNL     1      -3.305   3.600  -6.540  0.00  0.00    -0.086 HD
ENDROOT
BRANCH   1  17
ATOM     15  C   UNL     1       0.046   1.327  -0.020  0.00  0.00    +0.070 C 
ATOM     16  C   UNL     1       0.091  -0.174  -0.136  0.00  0.00    +0.093 A 
ATOM     17  C   UNL     1       0.083  -0.951  -1.377  0.00  0.00    +0.101 A 
ATOM     18  C   UNL     1       0.135  -2.268  -1.019  0.00  0.00    +0.147 A 
ATOM     19  O   UNL     1       0.172  -2.333   0.315  0.00  0.00    -0.359 OA
ATOM     20  N   UNL     1       0.149  -1.024   0.847  0.00  0.00    -0.083 NA
ATOM     21  C   UNL     1       0.148  -3.442  -1.963  0.00  0.00    +0.090 C 
ENDBRANCH   1  17
BRANCH   5  22
ATOM     22  C   UNL     1      -4.757   0.286  -3.619  0.00  0.00    +0.218 C 
ATOM     23  O   UNL     1      -4.947  -0.842  -4.021  0.00  0.00    -0.275 OA
ATOM     24  N   UNL     1      -5.795   1.133  -3.473  0.00  0.00    -0.314 N 
ATOM     25  H   UNL     1      -5.643   2.036  -3.152  0.00  0.00    +0.149 HD
BRANCH  24  26
ATOM     26  C   UNL     1      -7.153   0.691  -3.800  0.00  0.00    +0.123 C 
BRANCH  26  27
ATOM     27  C   UNL     1      -8.137   1.836  -3.548  0.00  0.00    +0.123 C 
BRANCH  27  28
ATOM     28  N   UNL     1      -9.495   1.393  -3.875  0.00  0.00    -0.314 N 
ATOM     29  C   UNL     1     -10.533   2.241  -3.729  0.00  0.00    +0.217 C 
ATOM     30  O   UNL     1     -10.343   3.369  -3.328  0.00  0.00    -0.275 OA
ATOM     31  H   UNL     1      -9.647   0.491  -4.196  0.00  0.00    +0.149 HD
BRANCH  29  32
ATOM     32  C   UNL     1     -11.930   1.786  -4.065  0.00  0.00    +0.131 C 
BRANCH  32  33
ATOM     33  C   UNL     1     -12.899   2.913  -3.817  0.00  0.00    -0.031 A 
ATOM     34  C   UNL     1     -13.557   3.000  -2.629  0.00  0.00    +0.005 A 
ATOM     35  C   UNL     1     -14.457   4.035  -2.381  0.00  0.00    +0.001 A 
ATOM     36  C   UNL     1     -14.703   4.989  -3.320  0.00  0.00    +0.008 A 
ATOM     37  C   UNL     1     -14.042   4.933  -4.559  0.00  0.00    -0.018 A 
ATOM     38  C   UNL     1     -13.122   3.883  -4.808  0.00  0.00    -0.014 A 
ATOM     39  C   UNL     1     -12.456   3.830  -6.045  0.00  0.00    +0.009 A 
ATOM     40  C   UNL     1     -12.698   4.787  -6.981  0.00  0.00    +0.001 A 
ATOM     41  C   UNL     1     -13.598   5.823  -6.734  0.00  0.00    +0.001 A 
ATOM     42  C   UNL     1     -14.271   5.899  -5.553  0.00  0.00    +0.008 A 
ENDBRANCH  32  33
ENDBRANCH  29  32
ENDBRANCH  27  28
ENDBRANCH  26  27
ENDBRANCH  24  26
ENDBRANCH   5  22
TORSDOF 7
