REMARK  Name = ZINC36548797
REMARK  10 active torsions:
REMARK  status: ('A' for Active; 'I' for Inactive)
REMARK    1  A    between atoms: C_1  and  C_2
REMARK    2  A    between atoms: C_2  and  C_4
REMARK    3  A    between atoms: N_6  and  C_7
REMARK    4  A    between atoms: N_6  and  C_14
REMARK    5  A    between atoms: C_14  and  C_16
REMARK    6  A    between atoms: C_14  and  C_25
REMARK    7  A    between atoms: C_17  and  O_24
REMARK    8  A    between atoms: C_19  and  O_23
REMARK    9  A    between atoms: C_21  and  O_22
REMARK   10  A    between atoms: N_27  and  C_28
REMARK                            x       y       z     vdW  Elec       q    Type
REMARK                         _______ _______ _______ _____ _____    ______ ____
ROOT
ATOM      1  C   UNL     1      -0.350   1.417  -2.489  0.00  0.00    +0.204 C 
ENDROOT
BRANCH   1   2
ATOM      2  C   UNL     1      -1.648   1.765  -1.807  0.00  0.00    +0.065 A 
ATOM      3  C   UNL     1      -1.917   1.276  -0.538  0.00  0.00    +0.129 A 
ATOM      4  C   UNL     1      -3.112   1.596   0.090  0.00  0.00    +0.091 A 
ATOM      5  C   UNL     1      -4.037   2.406  -0.552  0.00  0.00    +0.124 A 
ATOM      6  C   UNL     1      -3.767   2.896  -1.821  0.00  0.00    +0.091 A 
ATOM      7  C   UNL     1      -2.571   2.579  -2.447  0.00  0.00    +0.129 A 
BRANCH   7   8
ATOM      8  O   UNL     1      -2.305   3.063  -3.688  0.00  0.00    -0.506 OA
ATOM      9  H   UNL     1      -2.607   2.491  -4.407  0.00  0.00    +0.292 HD
ENDBRANCH   7   8
BRANCH   5  10
ATOM     10  O   UNL     1      -5.208   2.719   0.063  0.00  0.00    -0.507 OA
ATOM     11  H   UNL     1      -5.168   3.524   0.597  0.00  0.00    +0.292 HD
ENDBRANCH   5  10
BRANCH   3  12
ATOM     12  O   UNL     1      -1.011   0.482   0.091  0.00  0.00    -0.506 OA
ATOM     13  H   UNL     1      -0.419   0.959   0.689  0.00  0.00    +0.292 HD
ENDBRANCH   3  12
ENDBRANCH   1   2
BRANCH   1  14
ATOM     14  C   UNL     1       0.800   1.708  -1.559  0.00  0.00    +0.239 C 
ATOM     15  O   UNL     1       1.597   0.834  -1.289  0.00  0.00    -0.273 OA
ATOM     16  N   UNL     1       0.942   2.938  -1.028  0.00  0.00    -0.311 N 
ATOM     17  H   UNL     1       0.305   3.636  -1.244  0.00  0.00    +0.149 HD
BRANCH  16  18
ATOM     18  C   UNL     1       2.060   3.220  -0.124  0.00  0.00    +0.073 C 
ATOM     19  C   UNL     1       1.681   2.810   1.300  0.00  0.00    +0.022 C 
ATOM     20  C   UNL     1       2.848   3.104   2.244  0.00  0.00    +0.002 C 
ATOM     21  C   UNL     1       3.164   4.601   2.212  0.00  0.00    +0.000 C 
ATOM     22  C   UNL     1       3.544   5.012   0.788  0.00  0.00    +0.002 C 
ATOM     23  C   UNL     1       2.376   4.717  -0.156  0.00  0.00    +0.022 C 
ENDBRANCH  16  18
ENDBRANCH   1  14
BRANCH   1  26
ATOM     24  C   UNL     1      -0.087  -0.388  -4.104  0.00  0.00    +0.247 C 
ATOM     25  O   UNL     1       0.043   0.448  -4.978  0.00  0.00    -0.270 OA
ATOM     26  N   UNL     1      -0.348  -0.006  -2.838  0.00  0.00    -0.250 N 
BRANCH  26  27
ATOM     27  C   UNL     1      -0.617  -0.967  -1.858  0.00  0.00    +0.056 A 
ATOM     28  C   UNL     1       0.428  -1.568  -1.168  0.00  0.00    +0.025 A 
ATOM     29  C   UNL     1       0.159  -2.516  -0.201  0.00  0.00    +0.002 A 
ATOM     30  C   UNL     1      -1.148  -2.869   0.081  0.00  0.00    +0.002 A 
ATOM     31  C   UNL     1      -2.191  -2.274  -0.605  0.00  0.00    +0.022 A 
ATOM     32  C   UNL     1      -1.930  -1.319  -1.569  0.00  0.00    +0.062 A 
ATOM     33 CL   UNL     1      -3.240  -0.566  -2.424  0.00  0.00    -0.082 Cl
ENDBRANCH  26  27
BRANCH  24  35
ATOM     34  C   UNL     1      -0.314  -2.858  -3.398  0.00  0.00    +0.048 C 
ATOM     35  C   UNL     1       0.039  -1.817  -4.429  0.00  0.00    +0.005 C 
ATOM     36  C   UNL     1       0.466  -2.190  -5.632  0.00  0.00    +0.017 C 
ENDBRANCH  24  35
ENDBRANCH   1  26
TORSDOF 9
