REMARK  Name = ZINC04082072
REMARK  7 active torsions:
REMARK  status: ('A' for Active; 'I' for Inactive)
REMARK    1  A    between atoms: C_1  and  C_2
REMARK    2  A    between atoms: C_3  and  C_30
REMARK    3  A    between atoms: C_7  and  O_29
REMARK    4  A    between atoms: C_15  and  O_28
REMARK    5  A    between atoms: C_19  and  C_26
REMARK    6  A    between atoms: C_23  and  O_25
REMARK    7  A    between atoms: C_26  and  O_27
REMARK                            x       y       z     vdW  Elec       q    Type
REMARK                         _______ _______ _______ _____ _____    ______ ____
ROOT
ATOM      1  C   UNL     1      -0.080   3.975  -0.265  0.00  0.00    +0.017 C 
ATOM      2  C   UNL     1       1.082   3.248   0.414  0.00  0.00    +0.029 C 
ATOM      3  C   UNL     1       0.977   3.312   1.962  0.00  0.00    +0.030 C 
ATOM      4  C   UNL     1       1.539   1.979   2.489  0.00  0.00    +0.011 C 
ATOM      5  C   UNL     1       1.924   1.140   1.249  0.00  0.00    +0.036 C 
ATOM      6  C   UNL     1       1.052   1.736   0.128  0.00  0.00    +0.077 C 
ATOM      7  C   UNL     1       1.558   1.384  -1.250  0.00  0.00    +0.025 C 
ATOM      8  C   UNL     1       1.652  -0.135  -1.412  0.00  0.00    +0.007 C 
ATOM      9  C   UNL     1       2.091  -0.470  -2.839  0.00  0.00    +0.004 C 
ATOM     10  C   UNL     1       3.459   0.159  -3.112  0.00  0.00    +0.000 C 
ATOM     11  C   UNL     1       3.900  -0.180  -4.538  0.00  0.00    +0.035 C 
ATOM     12  C   UNL     1       5.266   0.452  -4.813  0.00  0.00    +0.115 C 
ATOM     13  C   UNL     1       5.166   1.970  -4.657  0.00  0.00    +0.032 C 
ATOM     14  C   UNL     1       4.726   2.310  -3.232  0.00  0.00    +0.012 C 
ATOM     15  C   UNL     1       3.361   1.636  -2.961  0.00  0.00    +0.000 C 
ATOM     16  C   UNL     1       2.916   1.986  -1.538  0.00  0.00    +0.006 C 
ATOM     17  C   UNL     1       2.801   3.508  -1.404  0.00  0.00    +0.036 C 
ATOM     18  C   UNL     1       2.442   3.842   0.042  0.00  0.00    +0.124 C 
ENDROOT
BRANCH   3  19
ATOM     19  C   UNL     1      -0.464   3.466   2.376  0.00  0.00    -0.022 C 
ATOM     20  C   UNL     1      -0.999   4.508   3.007  0.00  0.00    +0.094 C 
ATOM     21  C   UNL     1      -2.428   4.268   3.224  0.00  0.00    +0.332 C 
ATOM     22  O   UNL     1      -3.190   5.040   3.772  0.00  0.00    -0.246 OA
ATOM     23  O   UNL     1      -2.772   3.063   2.731  0.00  0.00    -0.457 OA
ATOM     24  C   UNL     1      -1.574   2.464   2.161  0.00  0.00    +0.264 C 
ENDBRANCH   3  19
BRANCH  18  25
ATOM     25  O   UNL     1       2.394   5.261   0.198  0.00  0.00    -0.391 OA
ATOM     26  H   UNL     1       3.222   5.710  -0.020  0.00  0.00    +0.210 HD
ENDBRANCH  18  25
BRANCH  12  27
ATOM     27  O   UNL     1       5.678   0.135  -6.144  0.00  0.00    -0.392 OA
ATOM     28  H   UNL     1       6.538   0.504  -6.388  0.00  0.00    +0.210 HD
ENDBRANCH  12  27
BRANCH   6  29
ATOM     29  O   UNL     1      -0.287   1.258   0.273  0.00  0.00    -0.388 OA
ATOM     30  H   UNL     1      -0.372   0.298   0.200  0.00  0.00    +0.210 HD
ENDBRANCH   6  29
BRANCH  15  31
ATOM     31  C   UNL     1       2.346   2.191  -3.963  0.00  0.00    +0.163 C 
BRANCH  31  32
ATOM     32  O   UNL     1       2.377   3.619  -3.931  0.00  0.00    -0.394 OA
ATOM     33  H   UNL     1       1.757   4.039  -4.543  0.00  0.00    +0.209 HD
ENDBRANCH  31  32
ENDBRANCH  15  31
TORSDOF 6
