REMARK  Name = ZINC12501150
REMARK  8 active torsions:
REMARK  status: ('A' for Active; 'I' for Inactive)
REMARK    1  A    between atoms: C_3  and  N_25
REMARK    2  A    between atoms: C_6  and  C_7
REMARK    3  A    between atoms: N_9  and  N_10
REMARK    4  A    between atoms: N_10  and  C_11
REMARK    5  A    between atoms: C_11  and  N_13
REMARK    6  A    between atoms: C_14  and  C_16
REMARK    7  A    between atoms: C_19  and  N_22
REMARK    8  A    between atoms: C_26  and  C_28
REMARK                            x       y       z     vdW  Elec       q    Type
REMARK                         _______ _______ _______ _____ _____    ______ ____
ROOT
ATOM      1  C   UNL     1      -1.275  -0.743   0.040  0.00  0.00    +0.260 C 
ATOM      2  O   UNL     1      -2.335  -0.147   0.064  0.00  0.00    -0.269 OA
ATOM      3  N   UNL     1      -1.260  -2.091   0.029  0.00  0.00    -0.231 N 
ATOM      4  H   UNL     1      -0.415  -2.567   0.011  0.00  0.00    +0.173 HD
ENDROOT
BRANCH   1  10
ATOM      5  C   UNL     1      -0.019   1.406   0.036  0.00  0.00    +0.015 A 
ATOM      6  C   UNL     1       1.167   2.105   0.021  0.00  0.00    +0.024 A 
ATOM      7  C   UNL     1       2.378   1.421  -0.006  0.00  0.00    +0.033 A 
ATOM      8  C   UNL     1       2.396   0.030  -0.018  0.00  0.00    +0.024 A 
ATOM      9  C   UNL     1       1.213  -0.674  -0.003  0.00  0.00    +0.015 A 
ATOM     10  C   UNL     1      -0.005   0.009   0.024  0.00  0.00    +0.038 A 
BRANCH   7  11
ATOM     11  N   UNL     1       3.578   2.132  -0.022  0.00  0.00    -0.285 N 
ATOM     12  C   UNL     1       3.660   3.302  -0.686  0.00  0.00    +0.220 C 
ATOM     13  O   UNL     1       2.670   3.778  -1.200  0.00  0.00    -0.275 OA
ATOM     14  H   UNL     1       4.354   1.784   0.446  0.00  0.00    +0.155 HD
BRANCH  12  15
ATOM     15  C   UNL     1       4.981   4.019  -0.789  0.00  0.00    +0.075 C 
ATOM     16  C   UNL     1       5.491   4.354   0.614  0.00  0.00    +0.013 C 
ATOM     17  C   UNL     1       6.833   5.082   0.508  0.00  0.00    +0.001 C 
ATOM     18  C   UNL     1       6.651   6.374  -0.290  0.00  0.00    +0.000 C 
ATOM     19  C   UNL     1       6.141   6.039  -1.693  0.00  0.00    +0.001 C 
ATOM     20  C   UNL     1       4.799   5.311  -1.588  0.00  0.00    +0.013 C 
ENDBRANCH  12  15
ENDBRANCH   7  11
ENDBRANCH   1  10
BRANCH   3  21
ATOM     21  N   UNL     1      -2.466  -2.805   0.045  0.00  0.00    -0.245 N 
ATOM     22  H   UNL     1      -3.311  -2.330   0.064  0.00  0.00    +0.172 HD
BRANCH  21  23
ATOM     23  C   UNL     1      -2.450  -4.153   0.034  0.00  0.00    +0.153 C 
ATOM     24  S   UNL     1      -3.923  -5.025   0.053  0.00  0.00    -0.017 S 
BRANCH  23  25
ATOM     25  N   UNL     1      -1.276  -4.813   0.008  0.00  0.00    -0.263 N 
ATOM     26  C   UNL     1      -1.261  -6.161  -0.004  0.00  0.00    +0.250 C 
ATOM     27  O   UNL     1      -2.307  -6.780   0.010  0.00  0.00    -0.270 OA
ATOM     28  H   UNL     1      -0.442  -4.319  -0.003  0.00  0.00    +0.157 HD
BRANCH  26  29
ATOM     29  C   UNL     1       0.027  -6.885  -0.032  0.00  0.00    +0.037 A 
ATOM     30  C   UNL     1       1.230  -6.177  -0.042  0.00  0.00    +0.015 A 
ATOM     31  C   UNL     1       2.428  -6.859  -0.068  0.00  0.00    +0.033 A 
ATOM     32  C   UNL     1       2.440  -8.243  -0.086  0.00  0.00    +0.126 A 
ATOM     33  C   UNL     1       1.251  -8.951  -0.076  0.00  0.00    +0.033 A 
ATOM     34  C   UNL     1       0.046  -8.281  -0.044  0.00  0.00    +0.015 A 
BRANCH  32  35
ATOM     35  N   UNL     1       3.730  -8.969  -0.115  0.00  0.00    +0.056 N 
ATOM     36  O   UNL     1       4.770  -8.352  -0.123  0.00  0.00    -0.126 OA
ATOM     37  O   UNL     1       3.743 -10.177  -0.130  0.00  0.00    -0.126 OA
ENDBRANCH  32  35
ENDBRANCH  26  29
ENDBRANCH  23  25
ENDBRANCH  21  23
ENDBRANCH   3  21
TORSDOF 8
