REMARK  Name = ZINC42349765
REMARK  5 active torsions:
REMARK  status: ('A' for Active; 'I' for Inactive)
REMARK    1  A    between atoms: C_1  and  N_2
REMARK    2  A    between atoms: C_6  and  S_7
REMARK    3  A    between atoms: S_7  and  C_8
REMARK    4  A    between atoms: C_8  and  C_9
REMARK    5  A    between atoms: N_11  and  C_12
REMARK                            x       y       z     vdW  Elec       q    Type
REMARK                         _______ _______ _______ _____ _____    ______ ____
ROOT
ATOM      1  C   UNL     1       1.148  -2.319   5.293  0.00  0.00    +0.228 C 
ATOM      2  O   UNL     1       2.166  -1.815   5.718  0.00  0.00    -0.275 OA
ATOM      3  N   UNL     1       0.093  -2.501   6.113  0.00  0.00    -0.282 N 
ATOM      4  H   UNL     1      -0.745  -2.836   5.758  0.00  0.00    +0.155 HD
ENDROOT
BRANCH   3   5
ATOM      5  C   UNL     1       0.208  -2.206   7.478  0.00  0.00    +0.071 A 
ATOM      6  C   UNL     1      -0.119  -0.940   7.946  0.00  0.00    +0.065 A 
ATOM      7  C   UNL     1      -0.005  -0.652   9.293  0.00  0.00    +0.042 A 
ATOM      8  C   UNL     1       0.433  -1.624  10.175  0.00  0.00    +0.044 A 
ATOM      9  C   UNL     1       0.759  -2.886   9.711  0.00  0.00    +0.042 A 
ATOM     10  C   UNL     1       0.643  -3.182   8.366  0.00  0.00    +0.065 A 
ATOM     11 CL   UNL     1       1.046  -4.768   7.786  0.00  0.00    -0.082 Cl
ATOM     12 CL   UNL     1       0.576  -1.259  11.866  0.00  0.00    -0.083 Cl
ATOM     13 CL   UNL     1      -0.668   0.280   6.840  0.00  0.00    -0.082 Cl
ENDBRANCH   3   5
BRANCH   1  14
ATOM     14  C   UNL     1       1.062  -2.741   3.849  0.00  0.00    +0.173 C 
BRANCH  14  15
ATOM     15  S   UNL     1       2.629  -2.367   3.015  0.00  0.00    -0.077 S 
BRANCH  15  21
ATOM     16  C   UNL     1       4.636  -2.297   0.431  0.00  0.00    +0.154 C 
ATOM     17  N   UNL     1       3.279  -2.841   0.340  0.00  0.00    -0.294 N 
ATOM     18  C   UNL     1       2.699  -3.370  -0.778  0.00  0.00    +0.215 A 
ATOM     19  N   UNL     1       1.485  -3.749  -0.465  0.00  0.00    -0.113 NA
ATOM     20  N   UNL     1       1.275  -3.456   0.889  0.00  0.00    -0.121 NA
ATOM     21  C   UNL     1       2.371  -2.912   1.360  0.00  0.00    +0.193 A 
ATOM     22  N   UNL     1       3.294  -3.487  -2.028  0.00  0.00    -0.328 N 
ATOM     23  H   UNL     1       4.203  -3.176  -2.164  0.00  0.00    +0.145 HD
ATOM     24  H   UNL     1       2.800  -3.879  -2.765  0.00  0.00    +0.145 HD
ENDBRANCH  15  21
ENDBRANCH  14  15
ENDBRANCH   1  14
TORSDOF 4
