REMARK  Name = ZINC65742907
REMARK  12 active torsions:
REMARK  status: ('A' for Active; 'I' for Inactive)
REMARK    1  A    between atoms: C_1  and  N_2
REMARK    2  A    between atoms: N_2  and  C_3
REMARK    3  A    between atoms: N_2  and  C_4
REMARK    4  A    between atoms: C_4  and  C_5
REMARK    5  A    between atoms: C_5  and  C_6
REMARK    6  A    between atoms: C_6  and  N_7
REMARK    7  A    between atoms: C_20  and  O_22
REMARK    8  A    between atoms: O_22  and  C_23
REMARK    9  A    between atoms: C_25  and  O_39
REMARK   10  A    between atoms: C_27  and  O_38
REMARK   11  A    between atoms: C_29  and  O_37
REMARK   12  A    between atoms: C_31  and  C_34
REMARK                            x       y       z     vdW  Elec       q    Type
REMARK                         _______ _______ _______ _____ _____    ______ ____
ROOT
ATOM      1  N   UNL     1      -4.144  -0.357  -2.567  0.00  0.00    -0.300 N 
ATOM      2  C   UNL     1      -4.787   0.863  -2.734  0.00  0.00    +0.037 A 
ATOM      3  C   UNL     1      -4.096   1.986  -2.261  0.00  0.00    +0.024 A 
ATOM      4  C   UNL     1      -4.622   3.249  -2.397  0.00  0.00    +0.002 A 
ATOM      5  C   UNL     1      -5.851   3.409  -3.013  0.00  0.00    +0.000 A 
ATOM      6  C   UNL     1      -6.536   2.307  -3.470  0.00  0.00    +0.005 A 
ATOM      7  C   UNL     1      -6.021   1.016  -3.324  0.00  0.00    -0.026 A 
ATOM      8  C   UNL     1      -6.935  -0.077  -3.821  0.00  0.00    +0.042 C 
ATOM      9  C   UNL     1      -6.546  -1.466  -3.378  0.00  0.00    +0.042 C 
ATOM     10  C   UNL     1      -5.243  -1.907  -3.972  0.00  0.00    -0.022 A 
ATOM     11  C   UNL     1      -4.065  -1.324  -3.569  0.00  0.00    +0.037 A 
ATOM     12  C   UNL     1      -2.849  -1.687  -4.128  0.00  0.00    +0.027 A 
ATOM     13  C   UNL     1      -2.820  -2.671  -5.101  0.00  0.00    +0.047 A 
ATOM     14  C   UNL     1      -3.999  -3.280  -5.502  0.00  0.00    +0.124 A 
ATOM     15  C   UNL     1      -5.223  -2.901  -4.937  0.00  0.00    +0.051 A 
ENDROOT
BRANCH   1  16
ATOM     16  C   UNL     1      -3.513  -0.640  -1.275  0.00  0.00    +0.109 C 
BRANCH  16  17
ATOM     17  C   UNL     1      -4.478  -1.443  -0.401  0.00  0.00    +0.001 C 
BRANCH  17  18
ATOM     18  C   UNL     1      -3.779  -1.836   0.902  0.00  0.00    -0.078 C 
BRANCH  18  20
ATOM     19  C   UNL     1      -5.029  -3.877   1.075  0.00  0.00    -0.097 C 
ATOM     20  N   UNL     1      -4.706  -2.608   1.741  0.00  0.00    +0.376 N 
ATOM     21  C   UNL     1      -4.077  -2.882   3.040  0.00  0.00    -0.097 C 
ATOM     22  H   UNL     1      -5.552  -2.077   1.883  0.00  0.00    -0.083 HD
ENDBRANCH  18  20
ENDBRANCH  17  18
ENDBRANCH  16  17
ENDBRANCH   1  16
BRANCH  14  23
ATOM     23  O   UNL     1      -3.968  -4.255  -6.450  0.00  0.00    -0.461 OA
BRANCH  23  24
ATOM     24  C   UNL     1      -2.689  -4.598  -6.986  0.00  0.00    +0.340 C 
ATOM     25  C   UNL     1      -2.872  -5.518  -8.196  0.00  0.00    +0.214 C 
ATOM     26  C   UNL     1      -1.496  -5.930  -8.727  0.00  0.00    +0.180 C 
ATOM     27  C   UNL     1      -0.706  -6.602  -7.601  0.00  0.00    +0.186 C 
ATOM     28  C   UNL     1      -0.606  -5.641  -6.413  0.00  0.00    +0.266 C 
ATOM     29  O   UNL     1      -1.920  -5.273  -5.988  0.00  0.00    -0.322 OA
BRANCH  28  30
ATOM     30  C   UNL     1       0.119  -6.317  -5.279  0.00  0.00    +0.387 C 
ATOM     31  O   UNL     1       1.291  -6.630  -5.404  0.00  0.00    -0.243 OA
ATOM     32  O   UNL     1      -0.466  -6.552  -4.235  0.00  0.00    -0.243 OA
ENDBRANCH  28  30
BRANCH  27  33
ATOM     33  O   UNL     1      -1.377  -7.797  -7.194  0.00  0.00    -0.386 OA
ATOM     34  H   UNL     1      -0.931  -8.275  -6.482  0.00  0.00    +0.210 HD
ENDBRANCH  27  33
BRANCH  26  35
ATOM     35  O   UNL     1      -1.657  -6.845  -9.813  0.00  0.00    -0.386 OA
ATOM     36  H   UNL     1      -0.824  -7.148 -10.199  0.00  0.00    +0.210 HD
ENDBRANCH  26  35
BRANCH  25  37
ATOM     37  O   UNL     1      -3.602  -6.682  -7.805  0.00  0.00    -0.383 OA
ATOM     38  H   UNL     1      -4.484  -6.494  -7.454  0.00  0.00    +0.210 HD
ENDBRANCH  25  37
ENDBRANCH  23  24
ENDBRANCH  14  23
TORSDOF 10
