REMARK  Name = ZINC07875332
REMARK  14 active torsions:
REMARK  status: ('A' for Active; 'I' for Inactive)
REMARK    1  A    between atoms: C_1  and  C_2
REMARK    2  A    between atoms: C_2  and  C_3
REMARK    3  A    between atoms: C_2  and  C_4
REMARK    4  A    between atoms: C_4  and  C_5
REMARK    5  A    between atoms: C_8  and  C_11
REMARK    6  A    between atoms: C_11  and  C_13
REMARK    7  A    between atoms: C_11  and  N_57
REMARK    8  A    between atoms: C_13  and  C_14
REMARK    9  A    between atoms: C_13  and  C_15
REMARK   10  A    between atoms: C_16  and  C_17
REMARK   11  A    between atoms: C_16  and  N_57
REMARK   12  A    between atoms: N_22  and  C_23
REMARK   13  A    between atoms: C_23  and  C_24
REMARK   14  A    between atoms: C_23  and  C_25
REMARK                            x       y       z     vdW  Elec       q    Type
REMARK                         _______ _______ _______ _____ _____    ______ ____
ROOT
ATOM      1  N   UNL     1      -2.944   4.403   4.652  0.00  0.00    +0.389 N 
ATOM      2  H   UNL     1      -3.135   4.642   3.672  0.00  0.00    -0.084 HD
ATOM      3  H   UNL     1      -2.104   4.901   4.969  0.00  0.00    -0.084 HD
ENDROOT
BRANCH   1   4
ATOM      4  C   UNL     1      -2.717   2.949   4.763  0.00  0.00    -0.038 C 
BRANCH   4   8
ATOM      5  C   UNL     1      -0.718   1.572   1.248  0.00  0.00    -0.047 A 
ATOM      6  C   UNL     1      -0.360   2.779   1.819  0.00  0.00    +0.004 A 
ATOM      7  C   UNL     1      -1.010   3.227   2.953  0.00  0.00    +0.002 A 
ATOM      8  C   UNL     1      -2.012   2.463   3.523  0.00  0.00    -0.061 A 
ATOM      9  C   UNL     1      -2.366   1.254   2.955  0.00  0.00    +0.002 A 
ATOM     10  C   UNL     1      -1.719   0.808   1.818  0.00  0.00    +0.004 A 
BRANCH   5  11
ATOM     11  C   UNL     1      -0.013   1.086   0.008  0.00  0.00    +0.038 C 
BRANCH  11  13
ATOM     12  C   UNL     1       0.031   1.205  -2.487  0.00  0.00    +0.007 C 
ATOM     13  C   UNL     1      -0.753   1.593  -1.232  0.00  0.00    -0.013 C 
ATOM     14  C   UNL     1      -2.147   0.964  -1.286  0.00  0.00    +0.007 C 
ENDBRANCH  11  13
ENDBRANCH   5  11
ENDBRANCH   4   8
BRANCH   4  15
ATOM     15  C   UNL     1      -1.850   2.659   5.989  0.00  0.00    -0.027 C 
ATOM     16  C   UNL     1      -1.608   1.152   6.098  0.00  0.00    +0.006 C 
ATOM     17  C   UNL     1      -0.509   3.382   5.849  0.00  0.00    +0.006 C 
ENDBRANCH   4  15
ENDBRANCH   1   4
BRANCH   1  18
ATOM     18  C   UNL     1      -4.093   4.806   5.485  0.00  0.00    +0.016 C 
BRANCH  18  19
ATOM     19  C   UNL     1      -4.300   6.293   5.353  0.00  0.00    +0.203 C 
ATOM     20  O   UNL     1      -3.568   6.946   4.640  0.00  0.00    -0.277 OA
ATOM     21  N   UNL     1      -5.300   6.897   6.026  0.00  0.00    -0.242 N 
ATOM     22  C   UNL     1      -5.485   8.226   5.908  0.00  0.00    +0.306 C 
ATOM     23  O   UNL     1      -4.751   8.881   5.194  0.00  0.00    -0.252 OA
ATOM     24  N   UNL     1      -6.484   8.830   6.582  0.00  0.00    -0.297 N 
ATOM     25  H   UNL     1      -5.885   6.374   6.596  0.00  0.00    +0.159 HD
ATOM     26  H   UNL     1      -7.070   8.307   7.151  0.00  0.00    +0.151 HD
BRANCH  24  27
ATOM     27  C   UNL     1      -6.686  10.275   6.453  0.00  0.00    +0.068 C 
ATOM     28  C   UNL     1      -8.146  10.616   6.757  0.00  0.00    +0.027 C 
ATOM     29  C   UNL     1      -5.775  11.007   7.441  0.00  0.00    +0.027 C 
ENDBRANCH  24  27
ENDBRANCH  18  19
ENDBRANCH   1  18
TORSDOF 8
