REMARK  Name = ZINC65178144
REMARK  7 active torsions:
REMARK  status: ('A' for Active; 'I' for Inactive)
REMARK    1  A    between atoms: C_1  and  C_2
REMARK    2  A    between atoms: C_2  and  C_3
REMARK    3  A    between atoms: C_2  and  C_4
REMARK    4  A    between atoms: C_4  and  N_5
REMARK    5  A    between atoms: N_8  and  N_9
REMARK    6  A    between atoms: C_10  and  C_12
REMARK    7  A    between atoms: C_12  and  C_18
REMARK                            x       y       z     vdW  Elec       q    Type
REMARK                         _______ _______ _______ _____ _____    ______ ____
ROOT
ATOM      1  N   UNL     1      -1.102   1.147   6.237  0.00  0.00    -0.232 N 
ATOM      2  C   UNL     1      -2.299   0.662   5.853  0.00  0.00    +0.240 C 
ATOM      3  O   UNL     1      -2.380  -0.456   5.391  0.00  0.00    -0.273 OA
ATOM      4  H   UNL     1      -1.025   2.066   6.538  0.00  0.00    +0.173 HD
ENDROOT
BRANCH   1   8
ATOM      5  N   UNL     1       1.270   1.976   7.290  0.00  0.00    -0.298 N 
ATOM      6  C   UNL     1       1.207   0.775   6.683  0.00  0.00    +0.316 C 
ATOM      7  O   UNL     1       2.210   0.097   6.569  0.00  0.00    -0.251 OA
ATOM      8  N   UNL     1       0.032   0.324   6.201  0.00  0.00    -0.218 N 
ATOM      9  H   UNL     1       0.487   2.548   7.317  0.00  0.00    +0.150 HD
ATOM     10  H   UNL     1      -0.030  -0.570   5.830  0.00  0.00    +0.174 HD
BRANCH   5  11
ATOM     11  C   UNL     1       2.522   2.418   7.911  0.00  0.00    +0.108 C 
BRANCH  11  13
ATOM     12  C   UNL     1       1.313   3.717   9.670  0.00  0.00    +0.009 C 
ATOM     13  C   UNL     1       2.324   3.806   8.525  0.00  0.00    -0.000 C 
ATOM     14  C   UNL     1       3.661   4.321   9.062  0.00  0.00    +0.009 C 
ENDBRANCH  11  13
ENDBRANCH   5  11
ENDBRANCH   1   8
BRANCH   2  15
ATOM     15  C   UNL     1      -3.537   1.509   5.998  0.00  0.00    +0.079 C 
ATOM     16  C   UNL     1      -4.772   0.678   5.637  0.00  0.00    +0.049 C 
ATOM     17  C   UNL     1      -4.901  -0.485   6.624  0.00  0.00    +0.161 C 
ATOM     18  O   UNL     1      -4.983   0.029   7.955  0.00  0.00    -0.380 OA
ATOM     19  C   UNL     1      -3.835   0.775   8.364  0.00  0.00    +0.161 C 
ATOM     20  C   UNL     1      -3.663   1.988   7.447  0.00  0.00    +0.049 C 
BRANCH  15  21
ATOM     21  C   UNL     1      -3.443   2.700   5.079  0.00  0.00    -0.014 A 
ATOM     22  C   UNL     1      -3.558   3.979   5.592  0.00  0.00    +0.007 A 
ATOM     23  C   UNL     1      -3.472   5.072   4.750  0.00  0.00    +0.020 A 
ATOM     24  C   UNL     1      -3.270   4.887   3.394  0.00  0.00    +0.042 A 
ATOM     25  C   UNL     1      -3.154   3.608   2.881  0.00  0.00    +0.040 A 
ATOM     26  C   UNL     1      -3.235   2.514   3.724  0.00  0.00    +0.047 A 
ATOM     27 CL   UNL     1      -3.084   0.909   3.082  0.00  0.00    -0.083 Cl
ATOM     28 CL   UNL     1      -3.162   6.260   2.337  0.00  0.00    -0.083 Cl
ENDBRANCH  15  21
ENDBRANCH   2  15
TORSDOF 5
