REMARK  Name = ZINC09813353
REMARK  9 active torsions:
REMARK  status: ('A' for Active; 'I' for Inactive)
REMARK    1  A    between atoms: C_1  and  C_2
REMARK    2  A    between atoms: C_2  and  C_3
REMARK    3  A    between atoms: C_3  and  C_4
REMARK    4  A    between atoms: C_4  and  N_5
REMARK    5  A    between atoms: C_6  and  N_34
REMARK    6  A    between atoms: C_7  and  N_14
REMARK    7  A    between atoms: N_14  and  C_15
REMARK    8  A    between atoms: C_20  and  C_22
REMARK    9  A    between atoms: C_25  and  C_27
REMARK                            x       y       z     vdW  Elec       q    Type
REMARK                         _______ _______ _______ _____ _____    ______ ____
ROOT
ATOM      1  N   UNL     1      -2.604  -0.428  -0.091  0.00  0.00    -0.257 N 
ATOM      2  C   UNL     1      -1.490  -1.186  -0.119  0.00  0.00    +0.258 C 
ATOM      3  O   UNL     1      -1.567  -2.371  -0.388  0.00  0.00    -0.269 OA
ENDROOT
BRANCH   1   6
ATOM      4  N   UNL     1      -1.969   3.146  -0.663  0.00  0.00    -0.280 N 
ATOM      5  C   UNL     1      -2.060   1.793  -0.896  0.00  0.00    +0.127 A 
ATOM      6  C   UNL     1      -2.505   0.964   0.114  0.00  0.00    +0.140 A 
ATOM      7  C   UNL     1      -2.857   1.532   1.353  0.00  0.00    +0.277 A 
ATOM      8  O   UNL     1      -3.252   0.823   2.263  0.00  0.00    -0.266 OA
ATOM      9  N   UNL     1      -2.753   2.864   1.528  0.00  0.00    -0.273 N 
ATOM     10  H   UNL     1      -3.003   3.268   2.408  0.00  0.00    +0.173 HD
ATOM     11  C   UNL     1      -2.319   3.656   0.532  0.00  0.00    +0.331 A 
ATOM     12  O   UNL     1      -2.236   4.855   0.716  0.00  0.00    -0.246 OA
BRANCH   5  13
ATOM     13  N   UNL     1      -1.708   1.272  -2.118  0.00  0.00    -0.343 N 
ATOM     14  H   UNL     1      -1.686   0.311  -2.248  0.00  0.00    +0.144 HD
ATOM     15  H   UNL     1      -1.486   1.866  -2.852  0.00  0.00    +0.144 HD
ENDBRANCH   5  13
BRANCH   4  16
ATOM     16  C   UNL     1      -1.492   4.036  -1.724  0.00  0.00    +0.128 C 
BRANCH  16  17
ATOM     17  C   UNL     1      -2.682   4.518  -2.557  0.00  0.00    +0.021 C 
BRANCH  17  19
ATOM     18  C   UNL     1      -3.373   5.931  -4.499  0.00  0.00    +0.004 C 
ATOM     19  C   UNL     1      -2.184   5.449  -3.666  0.00  0.00    -0.002 C 
ENDBRANCH  17  19
ENDBRANCH  16  17
ENDBRANCH   4  16
ENDBRANCH   1   6
BRANCH   1  20
ATOM     20  C   UNL     1      -3.918  -1.049  -0.275  0.00  0.00    +0.082 C 
ATOM     21  C   UNL     1      -4.145  -2.131   0.801  0.00  0.00    +0.023 C 
ATOM     22  C   UNL     1      -4.910  -3.254   0.054  0.00  0.00    +0.002 C 
ATOM     23  C   UNL     1      -4.239  -3.254  -1.342  0.00  0.00    +0.002 C 
ATOM     24  C   UNL     1      -3.978  -1.763  -1.637  0.00  0.00    +0.023 C 
ENDBRANCH   1  20
BRANCH   2  25
ATOM     25  C   UNL     1      -0.187  -0.584   0.173  0.00  0.00    +0.075 A 
ATOM     26  C   UNL     1       1.073  -1.163   0.119  0.00  0.00    +0.021 A 
ATOM     27  C   UNL     1       2.160  -0.400   0.438  0.00  0.00    +0.017 A 
ATOM     28  C   UNL     1       1.963   0.922   0.802  0.00  0.00    +0.020 A 
ATOM     29  S   UNL     1       0.189   1.085   0.681  0.00  0.00    -0.084 S 
BRANCH  28  30
ATOM     30  C   UNL     1       2.964   1.939   1.186  0.00  0.00    -0.011 A 
ATOM     31  C   UNL     1       4.320   1.609   1.218  0.00  0.00    +0.012 A 
ATOM     32  C   UNL     1       5.251   2.563   1.572  0.00  0.00    +0.039 A 
ATOM     33  C   UNL     1       4.841   3.845   1.906  0.00  0.00    +0.123 A 
ATOM     34  C   UNL     1       3.496   4.176   1.880  0.00  0.00    +0.039 A 
ATOM     35  C   UNL     1       2.557   3.231   1.522  0.00  0.00    +0.012 A 
ATOM     36  F   UNL     1       5.757   4.774   2.257  0.00  0.00    -0.205 F 
ENDBRANCH  28  30
ENDBRANCH   2  25
TORSDOF 8
