REMARK  Name = ZINC19374648
REMARK  1 active torsions:
REMARK  status: ('A' for Active; 'I' for Inactive)
REMARK    1  A    between atoms: C_17  and  C_19
REMARK                            x       y       z     vdW  Elec       q    Type
REMARK                         _______ _______ _______ _____ _____    ______ ____
ROOT
ATOM      1  C   UNL     1      -4.676 -10.292   0.063  0.00  0.00    +0.001 A 
ATOM      2  C   UNL     1      -4.849  -9.847  -1.238  0.00  0.00    +0.002 A 
ATOM      3  C   UNL     1      -3.979  -8.923  -1.786  0.00  0.00    +0.024 A 
ATOM      4  C   UNL     1      -2.927  -8.438  -1.028  0.00  0.00    +0.041 A 
ATOM      5  C   UNL     1      -2.748  -8.890   0.292  0.00  0.00    +0.058 A 
ATOM      6  C   UNL     1      -3.632  -9.821   0.832  0.00  0.00    +0.015 A 
ATOM      7  C   UNL     1      -1.614  -8.356   1.068  0.00  0.00    +0.247 C 
ATOM      8  O   UNL     1      -1.274  -8.890   2.106  0.00  0.00    -0.270 OA
ATOM      9  N   UNL     1      -0.957  -7.270   0.613  0.00  0.00    -0.290 N 
ATOM     10  C   UNL     1      -1.395  -6.565  -0.593  0.00  0.00    +0.102 C 
ATOM     11  N   UNL     1      -2.028  -7.504  -1.528  0.00  0.00    -0.323 N 
ATOM     12  C   UNL     1      -2.403  -5.478  -0.210  0.00  0.00    +0.064 C 
ATOM     13  C   UNL     1      -1.751  -4.510   0.782  0.00  0.00    +0.112 C 
ATOM     14  N   UNL     1      -0.505  -3.998   0.196  0.00  0.00    -0.298 N 
ATOM     15  C   UNL     1       0.491  -4.960  -0.295  0.00  0.00    +0.112 C 
ATOM     16  C   UNL     1      -0.184  -5.920  -1.272  0.00  0.00    +0.064 C 
ATOM     17  C   UNL     1      -0.283  -2.672   0.106  0.00  0.00    +0.241 C 
ATOM     18  O   UNL     1      -1.116  -1.889   0.511  0.00  0.00    -0.271 OA
ATOM     19  H   UNL     1      -0.075  -6.915   1.167  0.00  0.00    +0.151 HD
ATOM     20  H   UNL     1      -1.788  -7.458  -2.600  0.00  0.00    +0.148 HD
ENDROOT
BRANCH  17  21
ATOM     21  C   UNL     1       1.000  -2.163  -0.498  0.00  0.00    +0.088 C 
ATOM     22  C   UNL     1       1.000  -0.656  -0.480  0.00  0.00    +0.035 C 
ATOM     23  N   UNL     1       0.002  -0.004   0.002  0.00  0.00    -0.268 N 
ATOM     24  N   UNL     1      -0.017   1.397   0.010  0.00  0.00    -0.236 N 
ATOM     25  C   UNL     1       1.143   2.100   0.002  0.00  0.00    +0.237 C 
ATOM     26  O   UNL     1       1.149   3.311   0.075  0.00  0.00    -0.274 OA
ATOM     27  C   UNL     1       2.423   1.317  -0.101  0.00  0.00    +0.111 C 
ATOM     28  C   UNL     1       2.164   0.118  -1.025  0.00  0.00    +0.073 C 
ATOM     29  C   UNL     1       3.425  -0.690  -1.118  0.00  0.00    -0.016 C 
ATOM     30  C   UNL     1       4.585  -0.014  -1.212  0.00  0.00    -0.004 C 
ATOM     31  C   UNL     1       4.581   1.460  -1.212  0.00  0.00    -0.004 C 
ATOM     32  C   UNL     1       3.551   2.123  -0.676  0.00  0.00    -0.013 C 
ATOM     33  H   UNL     1      -0.848  -0.568   0.414  0.00  0.00    +0.170 HD
ATOM     34  H   UNL     1      -0.977   1.934   0.023  0.00  0.00    +0.173 HD
ENDBRANCH  17  21
TORSDOF 1
