REMARK  Name = ZINC39323309
REMARK  6 active torsions:
REMARK  status: ('A' for Active; 'I' for Inactive)
REMARK    1  A    between atoms: C_1  and  O_2
REMARK    2  A    between atoms: O_2  and  C_3
REMARK    3  A    between atoms: C_3  and  C_4
REMARK    4  A    between atoms: C_6  and  C_18
REMARK    5  A    between atoms: C_8  and  C_16
REMARK    6  A    between atoms: C_9  and  N_15
REMARK                            x       y       z     vdW  Elec       q    Type
REMARK                         _______ _______ _______ _____ _____    ______ ____
ROOT
ATOM      1  C   UNL     1       0.633  -2.085   1.012  0.00  0.00    +0.094 C 
ATOM      2  C   UNL     1       1.684  -2.853   0.857  0.00  0.00    +0.032 C 
ATOM      3  C   UNL     1       3.167  -2.598   0.875  0.00  0.00    +0.100 C 
ATOM      4  C   UNL     1       3.768  -3.747   1.663  0.00  0.00    +0.098 C 
ATOM      5  C   UNL     1       3.033  -4.816   2.031  0.00  0.00    +0.195 C 
ATOM      6  O   UNL     1       1.722  -5.010   1.796  0.00  0.00    -0.448 OA
ATOM      7  C   UNL     1       1.127  -4.271   0.726  0.00  0.00    +0.343 C 
ATOM      8  N   UNL     1      -0.309  -4.053   0.934  0.00  0.00    -0.138 NA
ATOM      9  N   UNL     1      -0.496  -2.837   1.065  0.00  0.00    -0.153 NA
ENDROOT
BRANCH   3  10
ATOM     10  C   UNL     1       3.461  -1.285   1.555  0.00  0.00    +0.002 A 
ATOM     11  C   UNL     1       3.089  -1.090   2.873  0.00  0.00    +0.046 A 
ATOM     12  C   UNL     1       3.359   0.115   3.497  0.00  0.00    +0.020 A 
ATOM     13  C   UNL     1       4.001   1.124   2.803  0.00  0.00    +0.003 A 
ATOM     14  C   UNL     1       4.373   0.929   1.486  0.00  0.00    +0.020 A 
ATOM     15  C   UNL     1       4.109  -0.278   0.863  0.00  0.00    +0.046 A 
ATOM     16 CL   UNL     1       4.583  -0.524  -0.788  0.00  0.00    -0.083 Cl
ATOM     17 CL   UNL     1       2.282  -2.357   3.744  0.00  0.00    -0.083 Cl
ENDBRANCH   3  10
BRANCH   5  18
ATOM     18  N   UNL     1       3.688  -5.809   2.714  0.00  0.00    -0.329 N 
ATOM     19  H   UNL     1       4.634  -5.720   2.909  0.00  0.00    +0.145 HD
ATOM     20  H   UNL     1       3.206  -6.600   3.002  0.00  0.00    +0.145 HD
ENDBRANCH   5  18
BRANCH   4  21
ATOM     21  C   UNL     1       5.153  -3.694   2.025  0.00  0.00    +0.101 C 
ATOM     22  N   UNL     1       6.251  -3.653   2.312  0.00  0.00    -0.191 NA
ENDBRANCH   4  21
BRANCH   1  23
ATOM     23  C   UNL     1       0.673  -0.582   1.123  0.00  0.00    +0.216 C 
BRANCH  23  25
ATOM     24  C   UNL     1      -0.017   1.425   0.010  0.00  0.00    +0.194 C 
ATOM     25  O   UNL     1       0.002  -0.004   0.002  0.00  0.00    -0.377 OA
ENDBRANCH  23  25
ENDBRANCH   1  23
TORSDOF 5
