REMARK  Name = ZINC10113983
REMARK  9 active torsions:
REMARK  status: ('A' for Active; 'I' for Inactive)
REMARK    1  A    between atoms: C_1  and  C_2
REMARK    2  A    between atoms: N_4  and  C_5
REMARK    3  A    between atoms: C_8  and  S_11
REMARK    4  A    between atoms: S_11  and  N_14
REMARK    5  A    between atoms: C_17  and  N_20
REMARK    6  A    between atoms: C_21  and  C_23
REMARK    7  A    between atoms: C_24  and  C_25
REMARK    8  A    between atoms: N_27  and  C_34
REMARK    9  A    between atoms: N_30  and  C_33
REMARK                            x       y       z     vdW  Elec       q    Type
REMARK                         _______ _______ _______ _____ _____    ______ ____
ROOT
ATOM      1  N   UNL     1      -5.325   4.040   2.323  0.00  0.00    -0.176 NA
ATOM      2  C   UNL     1      -5.802   2.939   3.172  0.00  0.00    +0.111 C 
ATOM      3  C   UNL     1      -7.162   3.316   3.757  0.00  0.00    +0.039 C 
ATOM      4  C   UNL     1      -7.049   4.662   4.477  0.00  0.00    +0.076 C 
ATOM      5  C   UNL     1      -6.635   5.744   3.477  0.00  0.00    +0.039 C 
ATOM      6  C   UNL     1      -5.264   5.394   2.890  0.00  0.00    +0.111 C 
ENDROOT
BRANCH   4   7
ATOM      7  N   UNL     1      -8.345   5.011   5.065  0.00  0.00    -0.309 N 
ATOM      8  C   UNL     1      -8.684   4.535   6.279  0.00  0.00    +0.237 C 
ATOM      9  O   UNL     1      -7.914   3.814   6.888  0.00  0.00    -0.271 OA
ATOM     10  H   UNL     1      -8.959   5.585   4.580  0.00  0.00    +0.149 HD
BRANCH   8  11
ATOM     11  C   UNL     1      -9.937   4.872   6.847  0.00  0.00    +0.068 C 
ATOM     12  C   UNL     1     -10.277   4.394   8.066  0.00  0.00    +0.020 C 
BRANCH  12  13
ATOM     13  C   UNL     1     -11.509   4.852   8.716  0.00  0.00    +0.056 A 
ATOM     14  C   UNL     1     -11.939   4.290   9.904  0.00  0.00    +0.103 A 
ATOM     15  N   UNL     1     -13.087   4.742  10.476  0.00  0.00    -0.303 N 
ATOM     16  C   UNL     1     -13.812   5.721   9.915  0.00  0.00    +0.331 A 
ATOM     17  O   UNL     1     -14.831   6.089  10.467  0.00  0.00    -0.246 OA
ATOM     18  N   UNL     1     -13.450   6.309   8.762  0.00  0.00    -0.264 N 
ATOM     19  C   UNL     1     -12.322   5.929   8.124  0.00  0.00    +0.263 A 
ATOM     20  O   UNL     1     -11.987   6.462   7.083  0.00  0.00    -0.267 OA
ATOM     21  C   UNL     1     -14.281   7.374   8.196  0.00  0.00    +0.157 C 
ATOM     22  C   UNL     1     -13.542   4.146  11.735  0.00  0.00    +0.153 C 
ENDBRANCH  12  13
ENDBRANCH   8  11
ENDBRANCH   4   7
BRANCH   1  23
ATOM     23  S   UNL     1      -4.870   3.760   0.756  0.00  0.00    +0.061 S 
ATOM     24  O   UNL     1      -5.013   4.994   0.065  0.00  0.00    -0.153 OA
ATOM     25  O   UNL     1      -5.537   2.575   0.344  0.00  0.00    -0.153 OA
BRANCH  23  29
ATOM     26  C   UNL     1      -0.443   2.805   0.796  0.00  0.00    +0.033 A 
ATOM     27  C   UNL     1      -0.870   4.119   0.661  0.00  0.00    +0.025 A 
ATOM     28  C   UNL     1      -2.221   4.407   0.643  0.00  0.00    +0.030 A 
ATOM     29  C   UNL     1      -3.148   3.389   0.771  0.00  0.00    +0.106 A 
ATOM     30  C   UNL     1      -2.726   2.079   0.911  0.00  0.00    +0.030 A 
ATOM     31  C   UNL     1      -1.376   1.785   0.925  0.00  0.00    +0.025 A 
BRANCH  26  35
ATOM     32  C   UNL     1       3.264   3.007   0.178  0.00  0.00    +0.109 C 
ATOM     33  C   UNL     1       1.780   3.246   0.071  0.00  0.00    +0.214 C 
ATOM     34  O   UNL     1       1.355   4.100  -0.678  0.00  0.00    -0.276 OA
ATOM     35  N   UNL     1       0.925   2.510   0.809  0.00  0.00    -0.286 N 
ATOM     36  H   UNL     1       1.257   1.773   1.345  0.00  0.00    +0.155 HD
ENDBRANCH  26  35
ENDBRANCH  23  29
ENDBRANCH   1  23
TORSDOF 6
