REMARK  Name = ZINC04904928
REMARK  5 active torsions:
REMARK  status: ('A' for Active; 'I' for Inactive)
REMARK    1  A    between atoms: C_1  and  C_2
REMARK    2  A    between atoms: C_5  and  N_8
REMARK    3  A    between atoms: N_17  and  C_20
REMARK    4  A    between atoms: C_20  and  C_21
REMARK    5  A    between atoms: C_26  and  C_27
REMARK                            x       y       z     vdW  Elec       q    Type
REMARK                         _______ _______ _______ _____ _____    ______ ____
ROOT
ATOM      1  N   UNL     1      -1.221   3.625  -2.126  0.00  0.00    -0.228 N 
ATOM      2  C   UNL     1      -2.514   3.233  -2.131  0.00  0.00    +0.269 A 
ATOM      3  O   UNL     1      -3.406   4.031  -2.348  0.00  0.00    -0.266 OA
ATOM      4  C   UNL     1      -2.815   1.816  -1.865  0.00  0.00    +0.064 A 
ATOM      5  C   UNL     1      -4.122   1.334  -1.852  0.00  0.00    +0.015 A 
ATOM      6  C   UNL     1      -4.351  -0.005  -1.615  0.00  0.00    +0.001 A 
ATOM      7  C   UNL     1      -3.291  -0.866  -1.374  0.00  0.00    +0.002 A 
ATOM      8  C   UNL     1      -1.991  -0.400  -1.378  0.00  0.00    +0.027 A 
ATOM      9  C   UNL     1      -1.741   0.941  -1.626  0.00  0.00    +0.059 A 
ATOM     10  N   UNL     1      -0.451   1.450  -1.639  0.00  0.00    -0.289 N 
ATOM     11  C   UNL     1      -0.230   2.752  -1.887  0.00  0.00    +0.337 A 
ATOM     12  O   UNL     1       0.916   3.157  -1.896  0.00  0.00    -0.246 OA
ENDROOT
BRANCH   1  17
ATOM     13  C   UNL     1       0.044   9.064  -3.139  0.00  0.00    +0.044 C 
ATOM     14  C   UNL     1      -0.292   7.619  -2.870  0.00  0.00    -0.050 A 
ATOM     15  C   UNL     1      -0.310   6.710  -3.911  0.00  0.00    +0.005 A 
ATOM     16  C   UNL     1      -0.617   5.385  -3.668  0.00  0.00    +0.026 A 
ATOM     17  C   UNL     1      -0.909   4.968  -2.376  0.00  0.00    +0.054 A 
ATOM     18  C   UNL     1      -0.896   5.885  -1.334  0.00  0.00    +0.026 A 
ATOM     19  C   UNL     1      -0.583   7.207  -1.583  0.00  0.00    +0.005 A 
ENDBRANCH   1  17
BRANCH  10  20
ATOM     20  C   UNL     1       0.684   0.557  -1.387  0.00  0.00    +0.163 C 
BRANCH  20  21
ATOM     21  C   UNL     1       1.244   0.832  -0.016  0.00  0.00    -0.010 A 
ATOM     22  C   UNL     1       2.326   1.676   0.133  0.00  0.00    +0.006 A 
ATOM     23  C   UNL     1       2.842   1.929   1.391  0.00  0.00    +0.000 A 
ATOM     24  C   UNL     1       2.278   1.339   2.509  0.00  0.00    +0.001 A 
ATOM     25  C   UNL     1       1.196   0.494   2.375  0.00  0.00    +0.019 A 
ATOM     26  C   UNL     1       0.667   0.238   1.108  0.00  0.00    +0.057 A 
BRANCH  26  27
ATOM     27  C   UNL     1      -0.460  -0.634   0.962  0.00  0.00    +0.099 C 
ATOM     28  N   UNL     1      -1.353  -1.326   0.846  0.00  0.00    -0.191 NA
ENDBRANCH  26  27
ENDBRANCH  20  21
ENDBRANCH  10  20
TORSDOF 4
