REMARK  Name = ZINC39361575
REMARK  7 active torsions:
REMARK  status: ('A' for Active; 'I' for Inactive)
REMARK    1  A    between atoms: C_4  and  N_7
REMARK    2  A    between atoms: C_8  and  C_24
REMARK    3  A    between atoms: C_12  and  S_13
REMARK    4  A    between atoms: S_13  and  C_14
REMARK    5  A    between atoms: C_14  and  C_15
REMARK    6  A    between atoms: N_17  and  C_18
REMARK    7  A    between atoms: C_24  and  C_25
REMARK                            x       y       z     vdW  Elec       q    Type
REMARK                         _______ _______ _______ _____ _____    ______ ____
ROOT
ATOM      1  N   UNL     1       3.620  -0.649  -0.037  0.00  0.00    -0.258 N 
ATOM      2  C   UNL     1       3.817  -2.106   0.050  0.00  0.00    +0.187 C 
ATOM      3  N   UNL     1       5.280  -2.270  -0.013  0.00  0.00    -0.246 N 
ATOM      4  N   UNL     1       5.812  -0.980  -0.127  0.00  0.00    -0.162 NA
ATOM      5  C   UNL     1       4.883  -0.085  -0.145  0.00  0.00    +0.180 C 
ATOM      6  H   UNL     1       5.774  -3.104   0.018  0.00  0.00    +0.170 HD
ENDROOT
BRANCH   1  10
ATOM      7  C   UNL     1      -0.017   1.378   0.012  0.00  0.00    +0.000 A 
ATOM      8  C   UNL     1       0.298   0.551  -1.051  0.00  0.00    +0.002 A 
ATOM      9  C   UNL     1       1.503  -0.123  -1.071  0.00  0.00    +0.023 A 
ATOM     10  C   UNL     1       2.400   0.031  -0.021  0.00  0.00    +0.037 A 
ATOM     11  C   UNL     1       2.081   0.863   1.045  0.00  0.00    +0.023 A 
ATOM     12  C   UNL     1       0.873   1.533   1.058  0.00  0.00    +0.002 A 
ENDBRANCH   1  10
BRANCH   5  13
ATOM     13  S   UNL     1       5.183   1.646  -0.284  0.00  0.00    -0.079 S 
BRANCH  13  14
ATOM     14  C   UNL     1       6.989   1.772  -0.389  0.00  0.00    +0.172 C 
BRANCH  14  15
ATOM     15  C   UNL     1       7.386   3.220  -0.513  0.00  0.00    +0.224 C 
ATOM     16  O   UNL     1       6.533   4.083  -0.529  0.00  0.00    -0.275 OA
ATOM     17  N   UNL     1       8.687   3.557  -0.606  0.00  0.00    -0.312 N 
ATOM     18  H   UNL     1       9.369   2.867  -0.594  0.00  0.00    +0.149 HD
BRANCH  17  19
ATOM     19  C   UNL     1       9.073   4.965  -0.727  0.00  0.00    +0.073 C 
ATOM     20  C   UNL     1       9.009   5.387  -2.196  0.00  0.00    +0.022 C 
ATOM     21  C   UNL     1       9.412   6.858  -2.322  0.00  0.00    +0.002 C 
ATOM     22  C   UNL     1      10.838   7.043  -1.800  0.00  0.00    +0.000 C 
ATOM     23  C   UNL     1      10.901   6.621  -0.330  0.00  0.00    +0.002 C 
ATOM     24  C   UNL     1      10.498   5.151  -0.204  0.00  0.00    +0.022 C 
ENDBRANCH  17  19
ENDBRANCH  14  15
ENDBRANCH  13  14
ENDBRANCH   5  13
BRANCH   2  25
ATOM     25  C   UNL     1       3.271  -2.643   1.374  0.00  0.00    +0.097 C 
BRANCH  25  26
ATOM     26  C   UNL     1       3.484  -4.134   1.438  0.00  0.00    +0.029 A 
ATOM     27  N   UNL     1       2.577  -4.984   0.865  0.00  0.00    -0.311 N 
ATOM     28  C   UNL     1       2.759  -6.316   0.916  0.00  0.00    +0.327 A 
ATOM     29  O   UNL     1       1.941  -7.052   0.400  0.00  0.00    -0.247 OA
ATOM     30  N   UNL     1       3.834  -6.844   1.530  0.00  0.00    -0.275 N 
ATOM     31  C   UNL     1       4.751  -6.041   2.106  0.00  0.00    +0.254 A 
ATOM     32  O   UNL     1       5.724  -6.518   2.662  0.00  0.00    -0.268 OA
ATOM     33  C   UNL     1       4.574  -4.637   2.056  0.00  0.00    +0.091 A 
ATOM     34  H   UNL     1       3.950  -7.807   1.557  0.00  0.00    +0.173 HD
ATOM     35  H   UNL     1       1.796  -4.622   0.418  0.00  0.00    +0.170 HD
ENDBRANCH  25  26
ENDBRANCH   2  25
TORSDOF 7
