REMARK  Name = ZINC02727937
REMARK  7 active torsions:
REMARK  status: ('A' for Active; 'I' for Inactive)
REMARK    1  A    between atoms: C_1  and  C_2
REMARK    2  A    between atoms: C_4  and  C_23
REMARK    3  A    between atoms: C_5  and  C_17
REMARK    4  A    between atoms: C_7  and  C_8
REMARK    5  A    between atoms: C_8  and  O_9
REMARK    6  A    between atoms: O_9  and  C_10
REMARK    7  A    between atoms: N_18  and  N_19
REMARK                            x       y       z     vdW  Elec       q    Type
REMARK                         _______ _______ _______ _____ _____    ______ ____
ROOT
ATOM      1  C   UNL     1      -1.115  -6.369  -0.539  0.00  0.00    +0.044 C 
ATOM      2  C   UNL     1      -1.093  -4.888  -0.261  0.00  0.00    -0.044 A 
ATOM      3  C   UNL     1       0.093  -4.184  -0.373  0.00  0.00    +0.007 A 
ATOM      4  C   UNL     1       0.119  -2.828  -0.125  0.00  0.00    -0.042 A 
ATOM      5  C   UNL     1      -1.054  -2.167   0.250  0.00  0.00    -0.002 A 
ATOM      6  C   UNL     1      -2.247  -2.884   0.361  0.00  0.00    +0.017 A 
ATOM      7  C   UNL     1      -2.259  -4.239   0.105  0.00  0.00    -0.007 A 
ATOM      8  C   UNL     1       1.410  -2.061  -0.253  0.00  0.00    +0.044 C 
ENDROOT
BRANCH   5   9
ATOM      9  C   UNL     1      -1.032  -0.717   0.521  0.00  0.00    +0.138 C 
ATOM     10  N   UNL     1       0.094  -0.074   0.522  0.00  0.00    -0.186 NA
BRANCH  10  11
ATOM     11  N   UNL     1       0.114   1.303   0.780  0.00  0.00    -0.191 N 
ATOM     12  C   UNL     1       1.284   1.972   0.781  0.00  0.00    +0.317 C 
ATOM     13  O   UNL     1       1.302   3.167   1.005  0.00  0.00    -0.251 OA
ATOM     14  N   UNL     1       2.435   1.315   0.535  0.00  0.00    -0.312 N 
ATOM     15  H   UNL     1      -0.715   1.776   0.954  0.00  0.00    +0.179 HD
ATOM     16  H   UNL     1       2.421   0.362   0.356  0.00  0.00    +0.147 HD
ATOM     17  H   UNL     1       3.278   1.797   0.536  0.00  0.00    +0.147 HD
ENDBRANCH  10  11
ENDBRANCH   5   9
BRANCH   7  18
ATOM     18  C   UNL     1      -3.546  -5.015   0.225  0.00  0.00    +0.264 C 
BRANCH  18  19
ATOM     19  O   UNL     1      -4.600  -4.132   0.612  0.00  0.00    -0.487 OA
BRANCH  19  20
ATOM     20  C   UNL     1      -5.836  -4.677   0.765  0.00  0.00    +0.121 A 
ATOM     21  C   UNL     1      -6.030  -6.032   0.542  0.00  0.00    +0.047 A 
ATOM     22  C   UNL     1      -7.286  -6.585   0.704  0.00  0.00    +0.019 A 
ATOM     23  C   UNL     1      -8.351  -5.786   1.078  0.00  0.00    +0.018 A 
ATOM     24  C   UNL     1      -8.161  -4.433   1.296  0.00  0.00    +0.019 A 
ATOM     25  C   UNL     1      -6.906  -3.877   1.141  0.00  0.00    +0.047 A 
ATOM     26 BR   UNL     1     -10.071  -6.543   1.293  0.00  0.00    -0.050 Br
ENDBRANCH  19  20
ENDBRANCH  18  19
ENDBRANCH   7  18
TORSDOF 5
