REMARK  Name = ZINC04366152
REMARK  5 active torsions:
REMARK  status: ('A' for Active; 'I' for Inactive)
REMARK    1  A    between atoms: C_5  and  C_7
REMARK    2  A    between atoms: C_7  and  O_9
REMARK    3  A    between atoms: O_9  and  C_10
REMARK    4  A    between atoms: C_13  and  C_16
REMARK    5  A    between atoms: N_17  and  N_18
REMARK                            x       y       z     vdW  Elec       q    Type
REMARK                         _______ _______ _______ _____ _____    ______ ____
ROOT
ATOM      1  C   UNL     1      -0.031  -0.004   0.035  0.00  0.00    +0.132 A 
ATOM      2  C   UNL     1       1.161  -0.711  -0.066  0.00  0.00    +0.047 A 
ATOM      3  C   UNL     1       1.152  -2.088  -0.035  0.00  0.00    +0.013 A 
ATOM      4  C   UNL     1      -0.060  -2.774   0.086  0.00  0.00    -0.005 A 
ATOM      5  C   UNL     1      -1.256  -2.059   0.182  0.00  0.00    +0.013 A 
ATOM      6  C   UNL     1      -1.237  -0.682   0.156  0.00  0.00    +0.047 A 
ENDROOT
BRANCH   4   7
ATOM      7  C   UNL     1      -0.075  -4.249   0.114  0.00  0.00    +0.138 C 
ATOM      8  N   UNL     1       1.037  -4.911   0.025  0.00  0.00    -0.186 NA
BRANCH   8   9
ATOM      9  N   UNL     1       1.023  -6.311   0.052  0.00  0.00    -0.191 N 
ATOM     10  C   UNL     1       2.178  -6.999  -0.041  0.00  0.00    +0.317 C 
ATOM     11  O   UNL     1       2.165  -8.215  -0.017  0.00  0.00    -0.251 OA
ATOM     12  N   UNL     1       3.347  -6.340  -0.159  0.00  0.00    -0.312 N 
ATOM     13  H   UNL     1       0.181  -6.786   0.137  0.00  0.00    +0.179 HD
ATOM     14  H   UNL     1       3.357  -5.370  -0.177  0.00  0.00    +0.147 HD
ATOM     15  H   UNL     1       4.179  -6.835  -0.225  0.00  0.00    +0.147 HD
ENDBRANCH   8   9
ENDBRANCH   4   7
BRANCH   1  16
ATOM     16  O   UNL     1      -0.016   1.354   0.009  0.00  0.00    -0.422 OA
BRANCH  16  17
ATOM     17  C   UNL     1      -0.336   1.991   1.153  0.00  0.00    +0.345 C 
ATOM     18  O   UNL     1      -0.518   1.355   2.172  0.00  0.00    -0.244 OA
BRANCH  17  23
ATOM     19  C   UNL     1      -0.381   5.570   0.020  0.00  0.00    +0.001 A 
ATOM     20  C   UNL     1      -0.710   6.221   1.196  0.00  0.00    +0.001 A 
ATOM     21  C   UNL     1      -0.917   5.500   2.358  0.00  0.00    +0.015 A 
ATOM     22  C   UNL     1      -0.798   4.125   2.352  0.00  0.00    +0.027 A 
ATOM     23  C   UNL     1      -0.467   3.462   1.168  0.00  0.00    +0.072 A 
ATOM     24  C   UNL     1      -0.253   4.197  -0.000  0.00  0.00    +0.016 A 
ATOM     25  I   UNL     1      -1.112   3.035   4.113  0.00  0.00    -0.043 I 
ENDBRANCH  17  23
ENDBRANCH  16  17
ENDBRANCH   1  16
TORSDOF 5
