REMARK  Name = ZINC13065257
REMARK  12 active torsions:
REMARK  status: ('A' for Active; 'I' for Inactive)
REMARK    1  A    between atoms: C_1  and  C_2
REMARK    2  A    between atoms: C_2  and  C_3
REMARK    3  A    between atoms: C_3  and  C_5
REMARK    4  A    between atoms: C_3  and  N_72
REMARK    5  A    between atoms: N_9  and  C_10
REMARK    6  A    between atoms: C_15  and  C_16
REMARK    7  A    between atoms: C_15  and  N_72
REMARK    8  A    between atoms: C_19  and  C_22
REMARK    9  A    between atoms: C_23  and  C_24
REMARK   10  A    between atoms: C_23  and  N_72
REMARK   11  A    between atoms: C_27  and  C_37
REMARK   12  A    between atoms: C_30  and  C_36
REMARK                            x       y       z     vdW  Elec       q    Type
REMARK                         _______ _______ _______ _____ _____    ______ ____
ROOT
ATOM      1  N   UNL     1      -1.620   2.273   1.139  0.00  0.00    +0.392 N 
ATOM      2  H   UNL     1      -0.855   2.790   1.587  0.00  0.00    -0.080 HD
ENDROOT
BRANCH   1   3
ATOM      3  C   UNL     1      -1.799   0.981   1.835  0.00  0.00    +0.003 C 
BRANCH   3   4
ATOM      4  C   UNL     1      -0.474   0.565   2.421  0.00  0.00    +0.138 A 
ATOM      5  N   UNL     1       0.714   0.830   1.935  0.00  0.00    -0.115 NA
ATOM      6  N   UNL     1       1.591   0.304   2.719  0.00  0.00    -0.023 NA
ATOM      7  N   UNL     1       0.993  -0.288   3.693  0.00  0.00    -0.044 NA
ATOM      8  N   UNL     1      -0.281  -0.145   3.547  0.00  0.00    -0.228 N 
BRANCH   8   9
ATOM      9  C   UNL     1      -1.321  -0.662   4.439  0.00  0.00    +0.111 C 
ATOM     10  C   UNL     1      -1.190  -0.018   5.835  0.00  0.00    +0.027 C 
ATOM     11  C   UNL     1      -1.547  -1.162   6.816  0.00  0.00    +0.002 C 
ATOM     12  C   UNL     1      -0.907  -2.402   6.144  0.00  0.00    +0.002 C 
ATOM     13  C   UNL     1      -1.142  -2.178   4.636  0.00  0.00    +0.027 C 
ENDBRANCH   8   9
ENDBRANCH   3   4
BRANCH   3  15
ATOM     14  C   UNL     1      -3.652   0.307   0.302  0.00  0.00    +0.002 C 
ATOM     15  C   UNL     1      -2.282  -0.089   0.856  0.00  0.00    -0.011 C 
ENDBRANCH   3  15
ENDBRANCH   1   3
BRANCH   1  16
ATOM     16  C   UNL     1      -1.276   2.039  -0.279  0.00  0.00    -0.042 C 
BRANCH  16  17
ATOM     17  C   UNL     1       0.130   1.501  -0.354  0.00  0.00    -0.064 A 
ATOM     18  C   UNL     1       1.200   2.316  -0.035  0.00  0.00    +0.002 A 
ATOM     19  C   UNL     1       2.490   1.824  -0.111  0.00  0.00    +0.003 A 
ATOM     20  C   UNL     1       2.709   0.517  -0.504  0.00  0.00    -0.050 A 
ATOM     21  C   UNL     1       1.639  -0.299  -0.822  0.00  0.00    +0.003 A 
ATOM     22  C   UNL     1       0.349   0.194  -0.747  0.00  0.00    +0.002 A 
ATOM     23  C   UNL     1       4.115  -0.020  -0.585  0.00  0.00    +0.044 C 
ENDBRANCH  16  17
ENDBRANCH   1  16
BRANCH   1  24
ATOM     24  C   UNL     1      -2.859   3.073   1.233  0.00  0.00    -0.036 C 
BRANCH  24  25
ATOM     25  C   UNL     1      -2.960   3.648   2.622  0.00  0.00    +0.001 A 
ATOM     26  C   UNL     1      -2.449   4.877   2.883  0.00  0.00    +0.017 A 
ATOM     27  C   UNL     1      -2.567   5.409   4.242  0.00  0.00    +0.002 A 
ATOM     28  C   UNL     1      -2.064   6.673   4.570  0.00  0.00    -0.041 A 
ATOM     29  C   UNL     1      -2.187   7.139   5.848  0.00  0.00    +0.004 A 
ATOM     30  C   UNL     1      -2.805   6.370   6.824  0.00  0.00    +0.005 A 
ATOM     31  C   UNL     1      -3.307   5.122   6.524  0.00  0.00    -0.026 A 
ATOM     32  C   UNL     1      -3.195   4.627   5.229  0.00  0.00    +0.052 A 
ATOM     33  N   UNL     1      -3.689   3.382   4.900  0.00  0.00    -0.322 N 
ATOM     34  H   UNL     1      -4.121   2.845   5.582  0.00  0.00    +0.169 HD
ATOM     35  C   UNL     1      -3.580   2.904   3.648  0.00  0.00    +0.251 A 
ATOM     36  O   UNL     1      -4.028   1.799   3.393  0.00  0.00    -0.268 OA
ATOM     37  C   UNL     1      -3.976   4.298   7.593  0.00  0.00    +0.046 C 
ATOM     38  C   UNL     1      -1.391   7.516   3.518  0.00  0.00    +0.044 C 
ENDBRANCH  24  25
ENDBRANCH   1  24
TORSDOF 8
