REMARK  Name = ZINC60102948
REMARK  9 active torsions:
REMARK  status: ('A' for Active; 'I' for Inactive)
REMARK    1  A    between atoms: C_1  and  C_2
REMARK    2  A    between atoms: C_4  and  C_24
REMARK    3  A    between atoms: C_5  and  C_9
REMARK    4  A    between atoms: C_6  and  C_8
REMARK    5  A    between atoms: C_9  and  O_10
REMARK    6  A    between atoms: O_10  and  C_11
REMARK    7  A    between atoms: C_14  and  S_20
REMARK    8  A    between atoms: C_16  and  N_17
REMARK    9  A    between atoms: S_20  and  N_23
REMARK                            x       y       z     vdW  Elec       q    Type
REMARK                         _______ _______ _______ _____ _____    ______ ____
ROOT
ATOM      1  C   UNL     1       1.608  -6.079  -0.040  0.00  0.00    +0.151 A 
ATOM      2  C   UNL     1       0.520  -6.939  -0.044  0.00  0.00    +0.050 A 
ATOM      3  C   UNL     1       0.721  -8.306  -0.053  0.00  0.00    +0.032 A 
ATOM      4  C   UNL     1       2.006  -8.817  -0.058  0.00  0.00    +0.107 A 
ATOM      5  C   UNL     1       3.092  -7.962  -0.053  0.00  0.00    +0.065 A 
ATOM      6  C   UNL     1       2.896  -6.594  -0.050  0.00  0.00    +0.169 A 
ENDROOT
BRANCH   6   7
ATOM      7  N   UNL     1       4.059  -5.679  -0.051  0.00  0.00    +0.060 N 
ATOM      8  O   UNL     1       5.182  -6.128  -0.059  0.00  0.00    -0.126 OA
ATOM      9  O   UNL     1       3.887  -4.482  -0.043  0.00  0.00    -0.126 OA
ENDBRANCH   6   7
BRANCH   4  10
ATOM     10  S   UNL     1       2.259 -10.560  -0.069  0.00  0.00    +0.056 S 
ATOM     11  O   UNL     1       3.551 -10.787   0.479  0.00  0.00    -0.153 OA
ATOM     12  O   UNL     1       1.086 -11.145   0.479  0.00  0.00    -0.153 OA
BRANCH  10  13
ATOM     13  N   UNL     1       2.328 -11.035  -1.655  0.00  0.00    -0.204 NA
ATOM     14  H   UNL     1       2.864 -11.802  -1.908  0.00  0.00    +0.144 HD
ATOM     15  H   UNL     1       1.833 -10.545  -2.329  0.00  0.00    +0.144 HD
ENDBRANCH  10  13
ENDBRANCH   4  10
BRANCH   1  16
ATOM     16  O   UNL     1       1.413  -4.734  -0.032  0.00  0.00    -0.485 OA
BRANCH  16  17
ATOM     17  C   UNL     1       0.059  -4.275  -0.021  0.00  0.00    +0.265 C 
BRANCH  17  22
ATOM     18  C   UNL     1      -0.018   1.503   0.010  0.00  0.00    +0.044 C 
ATOM     19  C   UNL     1       0.002  -0.004   0.002  0.00  0.00    -0.050 A 
ATOM     20  C   UNL     1       0.006  -0.689  -1.199  0.00  0.00    +0.007 A 
ATOM     21  C   UNL     1       0.025  -2.071  -1.206  0.00  0.00    -0.044 A 
ATOM     22  C   UNL     1       0.040  -2.768  -0.013  0.00  0.00    -0.005 A 
ATOM     23  C   UNL     1       0.037  -2.084   1.188  0.00  0.00    -0.044 A 
ATOM     24  C   UNL     1       0.023  -0.702   1.195  0.00  0.00    +0.007 A 
ATOM     25  C   UNL     1       0.054  -2.844   2.489  0.00  0.00    +0.044 C 
ATOM     26  C   UNL     1       0.027  -2.817  -2.516  0.00  0.00    +0.044 C 
ENDBRANCH  17  22
ENDBRANCH  16  17
ENDBRANCH   1  16
TORSDOF 6
