REMARK  Name = ZINC48701636
REMARK  7 active torsions:
REMARK  status: ('A' for Active; 'I' for Inactive)
REMARK    1  A    between atoms: C_1  and  C_2
REMARK    2  A    between atoms: C_3  and  C_26
REMARK    3  A    between atoms: C_7  and  N_8
REMARK    4  A    between atoms: C_9  and  C_11
REMARK    5  A    between atoms: N_13  and  C_14
REMARK    6  A    between atoms: C_14  and  C_15
REMARK    7  A    between atoms: C_15  and  C_16
REMARK                            x       y       z     vdW  Elec       q    Type
REMARK                         _______ _______ _______ _____ _____    ______ ____
ROOT
ATOM      1  N   UNL     1       0.135   0.086   2.417  0.00  0.00    -0.277 N 
ATOM      2  C   UNL     1       0.340  -0.569   3.577  0.00  0.00    +0.303 C 
ATOM      3  O   UNL     1       0.386  -1.782   3.588  0.00  0.00    -0.265 OA
ATOM      4  H   UNL     1       0.023   1.050   2.418  0.00  0.00    +0.155 HD
ENDROOT
BRANCH   1  11
ATOM      5  C   UNL     1      -1.157   1.306   0.198  0.00  0.00    +0.046 C 
ATOM      6  C   UNL     1      -0.536  -0.064   0.106  0.00  0.00    -0.017 A 
ATOM      7  C   UNL     1      -0.578  -0.773  -1.094  0.00  0.00    +0.041 A 
ATOM      8  C   UNL     1      -0.001  -2.041  -1.171  0.00  0.00    +0.013 A 
ATOM      9  C   UNL     1       0.610  -2.590  -0.062  0.00  0.00    +0.003 A 
ATOM     10  C   UNL     1       0.652  -1.889   1.128  0.00  0.00    +0.023 A 
ATOM     11  C   UNL     1       0.085  -0.622   1.214  0.00  0.00    +0.037 A 
BRANCH   7  12
ATOM     12  C   UNL     1      -1.234  -0.183  -2.281  0.00  0.00    +0.242 C 
ATOM     13  O   UNL     1      -1.624   0.968  -2.251  0.00  0.00    -0.270 OA
ATOM     14  N   UNL     1      -1.398  -0.921  -3.397  0.00  0.00    -0.325 N 
ATOM     15  H   UNL     1      -1.087  -1.839  -3.421  0.00  0.00    +0.145 HD
ATOM     16  H   UNL     1      -1.828  -0.534  -4.175  0.00  0.00    +0.145 HD
ENDBRANCH   7  12
ENDBRANCH   1  11
BRANCH   2  17
ATOM     17  C   UNL     1       0.509   0.197   4.848  0.00  0.00    +0.299 C 
ATOM     18  O   UNL     1       0.463   1.409   4.837  0.00  0.00    -0.265 OA
ATOM     19  N   UNL     1       0.714  -0.459   6.008  0.00  0.00    -0.308 N 
ATOM     20  H   UNL     1       0.751  -1.428   6.017  0.00  0.00    +0.149 HD
BRANCH  19  21
ATOM     21  C   UNL     1       0.880   0.292   7.254  0.00  0.00    +0.105 C 
BRANCH  21  22
ATOM     22  C   UNL     1       1.096  -0.683   8.413  0.00  0.00    +0.025 C 
BRANCH  22  23
ATOM     23  C   UNL     1       1.270   0.101   9.715  0.00  0.00    -0.027 C 
ATOM     24  C   UNL     1       2.482   1.027   9.595  0.00  0.00    +0.010 C 
ATOM     25  C   UNL     1       2.655   1.811  10.897  0.00  0.00    -0.010 C 
ATOM     26  C   UNL     1       2.872   0.836  12.055  0.00  0.00    +0.007 C 
ATOM     27  C   UNL     1       1.659  -0.090  12.175  0.00  0.00    -0.010 C 
ATOM     28  C   UNL     1       1.486  -0.875  10.873  0.00  0.00    +0.010 C 
ATOM     29  C   UNL     1       0.404   0.745  12.439  0.00  0.00    +0.007 C 
ATOM     30  C   UNL     1       0.188   1.720  11.280  0.00  0.00    -0.010 C 
ATOM     31  C   UNL     1       1.401   2.646  11.160  0.00  0.00    +0.007 C 
ATOM     32  C   UNL     1       0.015   0.936   9.978  0.00  0.00    +0.010 C 
ENDBRANCH  22  23
ENDBRANCH  21  22
ENDBRANCH  19  21
ENDBRANCH   2  17
TORSDOF 6
