REMARK  Name = ZINC62831877
REMARK  3 active torsions:
REMARK  status: ('A' for Active; 'I' for Inactive)
REMARK    1  A    between atoms: C_3  and  C_12
REMARK    2  A    between atoms: C_4  and  N_8
REMARK    3  A    between atoms: C_6  and  N_7
REMARK                            x       y       z     vdW  Elec       q    Type
REMARK                         _______ _______ _______ _____ _____    ______ ____
ROOT
ATOM      1  C   UNL     1      -0.037   1.450   0.055  0.00  0.00    +0.023 A 
ATOM      2  C   UNL     1       1.140   2.138   0.024  0.00  0.00    +0.019 A 
ATOM      3  C   UNL     1       2.358   1.447  -0.006  0.00  0.00    +0.084 A 
ATOM      4  C   UNL     1       2.362   0.040  -0.004  0.00  0.00    +0.051 A 
ATOM      5  C   UNL     1       1.160  -0.647   0.028  0.00  0.00    +0.047 A 
ATOM      6  C   UNL     1      -0.038   0.055   0.057  0.00  0.00    +0.026 A 
ENDROOT
BRANCH   4   7
ATOM      7  N   UNL     1       3.566  -0.657  -0.034  0.00  0.00    -0.269 N 
ATOM      8  C   UNL     1       3.653  -1.823  -0.704  0.00  0.00    +0.301 C 
ATOM      9  O   UNL     1       2.710  -2.219  -1.361  0.00  0.00    -0.253 OA
ATOM     10  N   UNL     1       4.786  -2.551  -0.645  0.00  0.00    -0.313 N 
ATOM     11  H   UNL     1       4.343  -0.303   0.427  0.00  0.00    +0.156 HD
ATOM     12  H   UNL     1       5.539  -2.235  -0.120  0.00  0.00    +0.146 HD
ATOM     13  H   UNL     1       4.849  -3.390  -1.127  0.00  0.00    +0.146 HD
ENDBRANCH   4   7
BRANCH   6  14
ATOM     14  N   UNL     1      -1.244  -0.635   0.089  0.00  0.00    -0.358 N 
ATOM     15  H   UNL     1      -2.082  -0.147   0.110  0.00  0.00    +0.142 HD
ATOM     16  H   UNL     1      -1.248  -1.605   0.091  0.00  0.00    +0.142 HD
ENDBRANCH   6  14
BRANCH   3  17
ATOM     17  C   UNL     1       3.625   2.188  -0.040  0.00  0.00    +0.388 C 
ATOM     18  O   UNL     1       3.618   3.408  -0.134  0.00  0.00    -0.241 OA
ATOM     19  O   UNL     1       4.688   1.585   0.025  0.00  0.00    -0.241 OA
ENDBRANCH   3  17
TORSDOF 3
