REMARK  Name = ZINC50398245
REMARK  3 active torsions:
REMARK  status: ('A' for Active; 'I' for Inactive)
REMARK    1  A    between atoms: C_4  and  C_6
REMARK    2  A    between atoms: C_4  and  N_9
REMARK    3  A    between atoms: N_12  and  C_13
REMARK                            x       y       z     vdW  Elec       q    Type
REMARK                         _______ _______ _______ _____ _____    ______ ____
ROOT
ATOM      1  N   UNL     1       1.933  -0.674  -1.387  0.00  0.00    -0.284 N 
ATOM      2  C   UNL     1       1.406  -1.693  -2.093  0.00  0.00    +0.301 C 
ATOM      3  O   UNL     1       0.558  -2.406  -1.591  0.00  0.00    -0.253 OA
ATOM      4  N   UNL     1       1.817  -1.922  -3.356  0.00  0.00    -0.288 N 
ATOM      5  H   UNL     1       2.609  -0.105  -1.788  0.00  0.00    +0.151 HD
ATOM      6  H   UNL     1       2.493  -1.353  -3.757  0.00  0.00    +0.151 HD
ENDROOT
BRANCH   4   7
ATOM      7  C   UNL     1       1.243  -3.030  -4.124  0.00  0.00    +0.160 C 
ATOM      8  C   UNL     1       2.240  -3.474  -5.198  0.00  0.00    +0.033 C 
ATOM      9  C   UNL     1       1.524  -4.434  -6.156  0.00  0.00    +0.021 C 
ATOM     10  C   UNL     1       0.466  -3.650  -6.934  0.00  0.00    +0.104 C 
ATOM     11  N   UNL     1      -0.376  -2.886  -6.021  0.00  0.00    -0.314 N 
ATOM     12  C   UNL     1      -0.035  -2.580  -4.770  0.00  0.00    +0.233 C 
ATOM     13  O   UNL     1      -0.801  -1.903  -4.117  0.00  0.00    -0.274 OA
ATOM     14  H   UNL     1      -1.238  -2.580  -6.346  0.00  0.00    +0.149 HD
ENDBRANCH   4   7
BRANCH   1  18
ATOM     15  C   UNL     1      -0.019   1.534   0.011  0.00  0.00    +0.003 C 
ATOM     16  C   UNL     1       1.453   1.995  -0.001  0.00  0.00    +0.003 C 
ATOM     17  C   UNL     1       2.232   0.792   0.586  0.00  0.00    +0.037 C 
ATOM     18  C   UNL     1       1.486  -0.425  -0.014  0.00  0.00    +0.137 C 
ATOM     19  C   UNL     1       0.002  -0.004   0.002  0.00  0.00    +0.037 C 
BRANCH  18  20
ATOM     20  C   UNL     1       1.697  -1.647   0.841  0.00  0.00    +0.379 C 
ATOM     21  O   UNL     1       1.340  -1.646   2.006  0.00  0.00    -0.244 OA
ATOM     22  O   UNL     1       2.226  -2.639   0.367  0.00  0.00    -0.244 OA
ENDBRANCH  18  20
ENDBRANCH   1  18
TORSDOF 3
