REMARK  Name = ZINC20934133
REMARK  7 active torsions:
REMARK  status: ('A' for Active; 'I' for Inactive)
REMARK    1  A    between atoms: C_1  and  C_2
REMARK    2  A    between atoms: C_3  and  C_27
REMARK    3  A    between atoms: C_11  and  C_13
REMARK    4  A    between atoms: C_13  and  C_14
REMARK    5  A    between atoms: N_16  and  N_17
REMARK    6  A    between atoms: C_18  and  C_19
REMARK    7  A    between atoms: C_18  and  C_20
REMARK                            x       y       z     vdW  Elec       q    Type
REMARK                         _______ _______ _______ _____ _____    ______ ____
ROOT
ATOM      1  C   UNL     1       0.090  -3.432   4.547  0.00  0.00    +0.171 C 
ENDROOT
BRANCH   1  12
ATOM      2  C   UNL     1      -0.018   1.503   0.010  0.00  0.00    +0.045 C 
ATOM      3  C   UNL     1       0.002  -0.004   0.002  0.00  0.00    -0.026 A 
ATOM      4  C   UNL     1       0.006  -0.677  -1.160  0.00  0.00    -0.008 A 
ATOM      5  S   UNL     1       0.032  -2.385  -0.648  0.00  0.00    -0.073 S 
ATOM      6  C   UNL     1       0.037  -2.144   1.110  0.00  0.00    +0.116 A 
ATOM      7  C   UNL     1       0.024  -0.745   1.250  0.00  0.00    +0.075 A 
ATOM      8  C   UNL     1       0.029  -0.257   2.597  0.00  0.00    +0.260 A 
ATOM      9  O   UNL     1       0.014   0.942   2.821  0.00  0.00    -0.267 OA
ATOM     10  N   UNL     1       0.051  -1.142   3.611  0.00  0.00    -0.310 N 
ATOM     11  H   UNL     1       0.054  -0.817   4.525  0.00  0.00    +0.170 HD
ATOM     12  C   UNL     1       0.067  -2.480   3.380  0.00  0.00    +0.120 A 
ATOM     13  N   UNL     1       0.053  -2.956   2.163  0.00  0.00    -0.226 NA
ATOM     14  C   UNL     1      -0.009  -0.122  -2.561  0.00  0.00    +0.052 C 
ENDBRANCH   1  12
BRANCH   1  15
ATOM     15  C   UNL     1       0.105  -4.851   4.038  0.00  0.00    +0.240 C 
ATOM     16  O   UNL     1       0.097  -5.067   2.845  0.00  0.00    -0.274 OA
ATOM     17  N   UNL     1       0.126  -5.879   4.909  0.00  0.00    -0.206 N 
ATOM     18  H   UNL     1       0.132  -5.706   5.864  0.00  0.00    +0.177 HD
BRANCH  17  19
ATOM     19  N   UNL     1       0.140  -7.197   4.436  0.00  0.00    -0.185 NA
ATOM     20  C   UNL     1       0.161  -8.187   5.275  0.00  0.00    +0.064 C 
ATOM     21  C   UNL     1       0.170  -7.919   6.758  0.00  0.00    +0.068 C 
BRANCH  20  22
ATOM     22  C   UNL     1       0.175  -9.575   4.777  0.00  0.00    +0.011 A 
ATOM     23  C   UNL     1       0.192 -10.644   5.677  0.00  0.00    +0.011 A 
ATOM     24  C   UNL     1       0.205 -11.939   5.204  0.00  0.00    +0.001 A 
ATOM     25  C   UNL     1       0.202 -12.183   3.841  0.00  0.00    +0.001 A 
ATOM     26  C   UNL     1       0.186 -11.130   2.944  0.00  0.00    +0.016 A 
ATOM     27  C   UNL     1       0.167  -9.828   3.402  0.00  0.00    +0.027 A 
ATOM     28 BR   UNL     1       0.136  -8.391   2.174  0.00  0.00    -0.050 Br
ENDBRANCH  20  22
ENDBRANCH  17  19
ENDBRANCH   1  15
TORSDOF 4
