REMARK  Name = ZINC36283825
REMARK  5 active torsions:
REMARK  status: ('A' for Active; 'I' for Inactive)
REMARK    1  A    between atoms: C_1  and  C_2
REMARK    2  A    between atoms: C_3  and  S_8
REMARK    3  A    between atoms: S_8  and  N_11
REMARK    4  A    between atoms: N_11  and  C_12
REMARK    5  A    between atoms: C_15  and  N_18
REMARK                            x       y       z     vdW  Elec       q    Type
REMARK                         _______ _______ _______ _____ _____    ______ ____
ROOT
ATOM      1  N   UNL     1       0.730  -1.346  -3.662  0.00  0.00    -0.216 N 
ATOM      2  H   UNL     1       1.634  -1.223  -3.991  0.00  0.00    +0.174 HD
ENDROOT
BRANCH   1   3
ATOM      3  C   UNL     1       0.103  -2.591  -3.788  0.00  0.00    +0.048 A 
ATOM      4  C   UNL     1      -0.584  -3.135  -2.710  0.00  0.00    +0.026 A 
ATOM      5  C   UNL     1      -1.202  -4.363  -2.834  0.00  0.00    +0.024 A 
ATOM      6  C   UNL     1      -1.138  -5.054  -4.037  0.00  0.00    +0.025 A 
ATOM      7  C   UNL     1      -0.452  -4.510  -5.115  0.00  0.00    +0.024 A 
ATOM      8  C   UNL     1       0.162  -3.280  -4.992  0.00  0.00    +0.026 A 
BRANCH   6   9
ATOM      9  N   UNL     1      -1.765  -6.300  -4.163  0.00  0.00    -0.358 N 
ATOM     10  H   UNL     1      -2.244  -6.680  -3.410  0.00  0.00    +0.142 HD
ATOM     11  H   UNL     1      -1.720  -6.783  -5.003  0.00  0.00    +0.142 HD
ENDBRANCH   6   9
ENDBRANCH   1   3
BRANCH   1  12
ATOM     12  S   UNL     1      -0.071  -0.083  -2.951  0.00  0.00    +0.081 S 
ATOM     13  O   UNL     1       0.775   1.052  -3.067  0.00  0.00    -0.149 OA
ATOM     14  O   UNL     1      -0.543  -0.556  -1.696  0.00  0.00    -0.149 OA
BRANCH  12  17
ATOM     15  C   UNL     1      -2.990   1.139  -2.139  0.00  0.00    +0.068 C 
ATOM     16  C   UNL     1      -2.698   0.758  -3.567  0.00  0.00    +0.076 A 
ATOM     17  C   UNL     1      -1.496   0.249  -3.932  0.00  0.00    +0.171 A 
ATOM     18  S   UNL     1      -1.755   0.007  -5.682  0.00  0.00    -0.004 S 
ATOM     19  C   UNL     1      -3.339   0.570  -5.763  0.00  0.00    +0.312 A 
ATOM     20  O   UNL     1      -4.148   0.657  -6.847  0.00  0.00    -0.258 OA
ATOM     21  N   UNL     1      -3.603   0.900  -4.518  0.00  0.00    -0.206 NA
ENDBRANCH  12  17
ENDBRANCH   1  12
TORSDOF 4
