REMARK  Name = ZINC03871804
REMARK  7 active torsions:
REMARK  status: ('A' for Active; 'I' for Inactive)
REMARK    1  A    between atoms: C_3  and  O_20
REMARK    2  A    between atoms: C_4  and  O_19
REMARK    3  A    between atoms: C_6  and  C_7
REMARK    4  A    between atoms: C_8  and  C_9
REMARK    5  A    between atoms: C_9  and  C_11
REMARK    6  A    between atoms: C_14  and  O_18
REMARK    7  A    between atoms: C_16  and  O_17
REMARK                            x       y       z     vdW  Elec       q    Type
REMARK                         _______ _______ _______ _____ _____    ______ ____
ROOT
ATOM      1  C   UNL     1       2.434   5.655  -0.094  0.00  0.00    +0.012 C 
ATOM      2  C   UNL     1       2.491   4.385   0.363  0.00  0.00    +0.052 C 
ENDROOT
BRANCH   1   8
ATOM      3  C   UNL     1       1.119   7.719   0.343  0.00  0.00    +0.012 A 
ATOM      4  C   UNL     1      -0.078   8.401   0.356  0.00  0.00    +0.050 A 
ATOM      5  C   UNL     1      -1.246   7.768  -0.047  0.00  0.00    +0.158 A 
ATOM      6  C   UNL     1      -1.215   6.439  -0.468  0.00  0.00    +0.159 A 
ATOM      7  C   UNL     1      -0.019   5.750  -0.491  0.00  0.00    +0.057 A 
ATOM      8  C   UNL     1       1.159   6.385  -0.078  0.00  0.00    -0.021 A 
BRANCH   6   9
ATOM      9  O   UNL     1      -2.361   5.823  -0.863  0.00  0.00    -0.503 OA
ATOM     10  H   UNL     1      -2.551   5.912  -1.807  0.00  0.00    +0.292 HD
ENDBRANCH   6   9
BRANCH   5  11
ATOM     11  O   UNL     1      -2.423   8.446  -0.032  0.00  0.00    -0.503 OA
ATOM     12  H   UNL     1      -2.621   8.908  -0.858  0.00  0.00    +0.292 HD
ENDBRANCH   5  11
ENDBRANCH   1   8
BRANCH   2  13
ATOM     13  C   UNL     1       1.356   3.817   1.089  0.00  0.00    +0.190 C 
ATOM     14  O   UNL     1       0.409   4.523   1.386  0.00  0.00    -0.287 OA
BRANCH  13  15
ATOM     15  C   UNL     1       1.358   2.391   1.462  0.00  0.00    +0.063 A 
ATOM     16  C   UNL     1       2.444   1.578   1.122  0.00  0.00    +0.019 A 
ATOM     17  C   UNL     1       2.442   0.248   1.472  0.00  0.00    +0.046 A 
ATOM     18  C   UNL     1       1.362  -0.294   2.163  0.00  0.00    +0.120 A 
ATOM     19  C   UNL     1       0.279   0.503   2.505  0.00  0.00    +0.091 A 
ATOM     20  C   UNL     1       0.270   1.844   2.159  0.00  0.00    +0.131 A 
BRANCH  20  21
ATOM     21  O   UNL     1      -0.790   2.624   2.487  0.00  0.00    -0.506 OA
ATOM     22  H   UNL     1      -0.711   3.051   3.351  0.00  0.00    +0.292 HD
ENDBRANCH  20  21
BRANCH  18  23
ATOM     23  O   UNL     1       1.367  -1.608   2.503  0.00  0.00    -0.507 OA
ATOM     24  H   UNL     1       0.979  -2.189   1.835  0.00  0.00    +0.292 HD
ENDBRANCH  18  23
ENDBRANCH  13  15
ENDBRANCH   2  13
TORSDOF 7
