REMARK  Name = ZINC44004541
REMARK  5 active torsions:
REMARK  status: ('A' for Active; 'I' for Inactive)
REMARK    1  A    between atoms: C_3  and  C_6
REMARK    2  A    between atoms: C_6  and  N_7
REMARK    3  A    between atoms: N_10  and  C_11
REMARK    4  A    between atoms: C_11  and  C_12
REMARK    5  A    between atoms: N_20  and  C_21
REMARK                            x       y       z     vdW  Elec       q    Type
REMARK                         _______ _______ _______ _____ _____    ______ ____
ROOT
ATOM      1  C   UNL     1       7.519   3.150   4.619  0.00  0.00    +0.009 C 
ATOM      2  C   UNL     1       7.472   1.740   5.213  0.00  0.00    +0.024 C 
ATOM      3  C   UNL     1       7.675   1.822   6.729  0.00  0.00    +0.109 C 
ATOM      4  N   UNL     1       8.922   2.551   7.001  0.00  0.00    -0.285 N 
ATOM      5  C   UNL     1       9.108   3.880   6.402  0.00  0.00    +0.109 C 
ATOM      6  C   UNL     1       8.889   3.774   4.890  0.00  0.00    +0.024 C 
ATOM      7  C   UNL     1       9.876   2.010   7.784  0.00  0.00    +0.307 C 
ATOM      8  O   UNL     1       9.673   0.952   8.347  0.00  0.00    -0.252 OA
ATOM      9  N   UNL     1      11.055   2.643   7.943  0.00  0.00    -0.264 N 
ATOM     10  H   UNL     1      11.191   3.521   7.555  0.00  0.00    +0.157 HD
ENDROOT
BRANCH   9  11
ATOM     11  C   UNL     1      12.084   2.033   8.668  0.00  0.00    +0.073 A 
ATOM     12  C   UNL     1      13.332   2.500   8.944  0.00  0.00    +0.031 A 
ATOM     13  C   UNL     1      14.190   1.711   9.689  0.00  0.00    +0.009 A 
ATOM     14  C   UNL     1      13.763   0.499  10.119  0.00  0.00    +0.047 A 
ATOM     15  S   UNL     1      12.098   0.441   9.477  0.00  0.00    -0.082 S 
ENDBRANCH   9  11
BRANCH   1  16
ATOM     16  C   UNL     1       7.282   3.075   3.109  0.00  0.00    +0.109 C 
BRANCH  16  20
ATOM     17  N   UNL     1       4.242   1.994   1.346  0.00  0.00    -0.295 N 
ATOM     18  C   UNL     1       5.490   2.442   1.584  0.00  0.00    +0.300 C 
ATOM     19  O   UNL     1       6.226   2.712   0.654  0.00  0.00    -0.253 OA
ATOM     20  N   UNL     1       5.924   2.589   2.851  0.00  0.00    -0.299 N 
ATOM     21  H   UNL     1       3.655   1.778   2.088  0.00  0.00    +0.151 HD
ATOM     22  H   UNL     1       5.337   2.373   3.593  0.00  0.00    +0.150 HD
BRANCH  17  23
ATOM     23  C   UNL     1       3.770   1.834  -0.032  0.00  0.00    +0.148 C 
BRANCH  23  26
ATOM     24  C   UNL     1      -0.007   1.340  -0.002  0.00  0.00    +0.008 A 
ATOM     25  C   UNL     1       1.193   2.026  -0.009  0.00  0.00    +0.013 A 
ATOM     26  C   UNL     1       2.352   1.324  -0.021  0.00  0.00    +0.007 A 
ATOM     27  S   UNL     1       1.763  -0.361  -0.023  0.00  0.00    -0.100 S 
ATOM     28  C   UNL     1       0.012  -0.016  -0.007  0.00  0.00    +0.045 A 
ENDBRANCH  23  26
ENDBRANCH  17  23
ENDBRANCH  16  20
ENDBRANCH   1  16
TORSDOF 5
