REMARK  Name = ZINC37692053
REMARK  3 active torsions:
REMARK  status: ('A' for Active; 'I' for Inactive)
REMARK    1  A    between atoms: C_4  and  O_19
REMARK    2  A    between atoms: C_6  and  N_9
REMARK    3  A    between atoms: C_13  and  C_16
REMARK                            x       y       z     vdW  Elec       q    Type
REMARK                         _______ _______ _______ _____ _____    ______ ____
ROOT
ATOM      1  N   UNL     1       0.762  -1.980   1.234  0.00  0.00    +0.384 N 
ATOM      2  C   UNL     1      -0.610  -2.487   1.355  0.00  0.00    -0.078 C 
ATOM      3  C   UNL     1      -0.603  -4.014   1.266  0.00  0.00    -0.018 C 
ATOM      4  C   UNL     1       0.256  -4.583   2.400  0.00  0.00    +0.011 C 
ATOM      5  C   UNL     1       1.664  -3.989   2.307  0.00  0.00    +0.086 C 
ATOM      6  C   UNL     1       1.573  -2.463   2.357  0.00  0.00    -0.064 C 
ATOM      7  H   UNL     1       1.163  -2.305   0.366  0.00  0.00    -0.081 HD
ENDROOT
BRANCH   1  12
ATOM      8  C   UNL     1      -0.010   1.512   2.500  0.00  0.00    -0.001 C 
ATOM      9  C   UNL     1      -0.735   2.019   1.251  0.00  0.00    +0.002 C 
ATOM     10  C   UNL     1      -0.003   1.526   0.001  0.00  0.00    +0.030 C 
ATOM     11  C   UNL     1       0.018  -0.004  -0.007  0.00  0.00    +0.101 C 
ATOM     12  C   UNL     1       0.742  -0.511   1.242  0.00  0.00    -0.039 C 
ATOM     13  C   UNL     1       0.010  -0.018   2.491  0.00  0.00    -0.013 C 
BRANCH  11  14
ATOM     14  O   UNL     1       0.701  -0.465  -1.174  0.00  0.00    -0.393 OA
ATOM     15  H   UNL     1       0.296  -0.180  -2.005  0.00  0.00    +0.210 HD
ENDBRANCH  11  14
ENDBRANCH   1  12
BRANCH   5  16
ATOM     16  C   UNL     1       2.496  -4.484   3.462  0.00  0.00    +0.357 C 
ATOM     17  O   UNL     1       2.689  -5.679   3.607  0.00  0.00    -0.246 OA
ATOM     18  O   UNL     1       2.976  -3.688   4.252  0.00  0.00    -0.246 OA
ENDBRANCH   5  16
TORSDOF 3
