REMARK  Name = ZINC13976348
REMARK  12 active torsions:
REMARK  status: ('A' for Active; 'I' for Inactive)
REMARK    1  A    between atoms: C_1  and  C_2
REMARK    2  A    between atoms: C_2  and  C_3
REMARK    3  A    between atoms: C_2  and  C_4
REMARK    4  A    between atoms: C_2  and  C_5
REMARK    5  A    between atoms: C_8  and  O_11
REMARK    6  A    between atoms: O_11  and  C_12
REMARK    7  A    between atoms: C_12  and  C_13
REMARK    8  A    between atoms: N_15  and  C_16
REMARK    9  A    between atoms: C_16  and  N_18
REMARK   10  A    between atoms: N_18  and  N_19
REMARK   11  A    between atoms: C_20  and  C_22
REMARK   12  A    between atoms: C_27  and  O_28
REMARK                            x       y       z     vdW  Elec       q    Type
REMARK                         _______ _______ _______ _____ _____    ______ ____
ROOT
ATOM      1  C   UNL     1      -3.527   2.023   0.030  0.00  0.00    +0.256 C 
ATOM      2  O   UNL     1      -3.544   3.235   0.036  0.00  0.00    -0.272 OA
ATOM      3  N   UNL     1      -2.351   1.365   0.021  0.00  0.00    -0.264 N 
ATOM      4  H   UNL     1      -2.338   0.395   0.015  0.00  0.00    +0.157 HD
ENDROOT
BRANCH   3   5
ATOM      5  C   UNL     1      -1.193   2.055   0.019  0.00  0.00    +0.153 C 
ATOM      6  S   UNL     1      -1.216   3.767   0.028  0.00  0.00    -0.017 S 
BRANCH   5   7
ATOM      7  N   UNL     1      -0.017   1.397   0.010  0.00  0.00    -0.245 N 
ATOM      8  H   UNL     1       0.816   1.893   0.004  0.00  0.00    +0.172 HD
BRANCH   7   9
ATOM      9  N   UNL     1       0.002  -0.004   0.002  0.00  0.00    -0.231 N 
ATOM     10  C   UNL     1       1.178  -0.662  -0.013  0.00  0.00    +0.264 C 
ATOM     11  O   UNL     1       2.223  -0.040  -0.019  0.00  0.00    -0.269 OA
ATOM     12  H   UNL     1      -0.831  -0.500   0.007  0.00  0.00    +0.173 HD
BRANCH  10  13
ATOM     13  C   UNL     1       1.198  -2.137  -0.021  0.00  0.00    +0.079 A 
ATOM     14  C   UNL     1       0.001  -2.856  -0.007  0.00  0.00    +0.017 A 
ATOM     15  C   UNL     1       0.026  -4.234  -0.021  0.00  0.00    +0.001 A 
ATOM     16  C   UNL     1       1.235  -4.910  -0.036  0.00  0.00    +0.004 A 
ATOM     17  C   UNL     1       2.426  -4.212  -0.044  0.00  0.00    +0.046 A 
ATOM     18  C   UNL     1       2.419  -2.825  -0.036  0.00  0.00    +0.129 A 
BRANCH  18  19
ATOM     19  O   UNL     1       3.588  -2.138  -0.043  0.00  0.00    -0.506 OA
ATOM     20  H   UNL     1       3.936  -1.944   0.838  0.00  0.00    +0.292 HD
ENDBRANCH  18  19
ENDBRANCH  10  13
ENDBRANCH   7   9
ENDBRANCH   5   7
ENDBRANCH   3   5
BRANCH   1  21
ATOM     21  C   UNL     1      -4.822   1.252   0.032  0.00  0.00    +0.324 C 
BRANCH  21  22
ATOM     22  O   UNL     1      -5.921   2.166   0.042  0.00  0.00    -0.483 OA
BRANCH  22  26
ATOM     23  C   UNL     1      -9.711   0.537   0.051  0.00  0.00    -0.042 A 
ATOM     24  C   UNL     1      -9.550   1.910   0.058  0.00  0.00    +0.008 A 
ATOM     25  C   UNL     1      -8.282   2.458   0.055  0.00  0.00    +0.046 A 
ATOM     26  C   UNL     1      -7.169   1.629   0.045  0.00  0.00    +0.121 A 
ATOM     27  C   UNL     1      -7.334   0.252   0.033  0.00  0.00    +0.046 A 
ATOM     28  C   UNL     1      -8.604  -0.291   0.042  0.00  0.00    +0.008 A 
BRANCH  23  30
ATOM     29  C   UNL     1     -11.855   0.410  -1.189  0.00  0.00    +0.015 C 
ATOM     30  C   UNL     1     -11.096  -0.058   0.054  0.00  0.00    -0.013 C 
ATOM     31  C   UNL     1     -10.995  -1.584   0.046  0.00  0.00    +0.015 C 
ATOM     32  C   UNL     1     -11.843   0.397   1.310  0.00  0.00    +0.015 C 
ENDBRANCH  23  30
ENDBRANCH  22  26
ENDBRANCH  21  22
ENDBRANCH   1  21
TORSDOF 9
