REMARK  Name = ZINC36501353
REMARK  19 active torsions:
REMARK  status: ('A' for Active; 'I' for Inactive)
REMARK    1  A    between atoms: C_1  and  C_2
REMARK    2  A    between atoms: C_2  and  C_3
REMARK    3  A    between atoms: C_2  and  C_4
REMARK    4  A    between atoms: C_2  and  C_5
REMARK    5  A    between atoms: C_5  and  C_6
REMARK    6  A    between atoms: C_6  and  C_7
REMARK    7  A    between atoms: C_6  and  C_8
REMARK    8  A    between atoms: C_6  and  N_9
REMARK    9  A    between atoms: C_10  and  C_12
REMARK   10  A    between atoms: C_12  and  C_14
REMARK   11  A    between atoms: C_12  and  N_23
REMARK   12  A    between atoms: C_15  and  O_22
REMARK   13  A    between atoms: C_17  and  O_21
REMARK   14  A    between atoms: C_19  and  O_20
REMARK   15  A    between atoms: N_23  and  C_24
REMARK   16  A    between atoms: C_24  and  C_25
REMARK   17  A    between atoms: C_30  and  C_32
REMARK   18  A    between atoms: C_32  and  C_33
REMARK   19  A    between atoms: C_33  and  S_34
REMARK                            x       y       z     vdW  Elec       q    Type
REMARK                         _______ _______ _______ _____ _____    ______ ____
ROOT
ATOM      1  C   UNL     1       4.873   0.071  -4.423  0.00  0.00    +0.200 C 
ENDROOT
BRANCH   1   2
ATOM      2  C   UNL     1       4.789  -1.161  -5.286  0.00  0.00    +0.065 A 
ATOM      3  C   UNL     1       5.495  -2.303  -4.936  0.00  0.00    +0.129 A 
ATOM      4  C   UNL     1       5.418  -3.437  -5.730  0.00  0.00    +0.091 A 
ATOM      5  C   UNL     1       4.635  -3.429  -6.875  0.00  0.00    +0.124 A 
ATOM      6  C   UNL     1       3.929  -2.288  -7.225  0.00  0.00    +0.091 A 
ATOM      7  C   UNL     1       4.002  -1.156  -6.428  0.00  0.00    +0.129 A 
BRANCH   7   8
ATOM      8  O   UNL     1       3.307  -0.039  -6.768  0.00  0.00    -0.506 OA
ATOM      9  H   UNL     1       3.794   0.569  -7.340  0.00  0.00    +0.292 HD
ENDBRANCH   7   8
BRANCH   5  10
ATOM     10  O   UNL     1       4.560  -4.540  -7.654  0.00  0.00    -0.507 OA
ATOM     11  H   UNL     1       3.847  -5.146  -7.408  0.00  0.00    +0.292 HD
ENDBRANCH   5  10
BRANCH   3  12
ATOM     12  O   UNL     1       6.262  -2.310  -3.814  0.00  0.00    -0.506 OA
ATOM     13  H   UNL     1       5.821  -2.684  -3.038  0.00  0.00    +0.292 HD
ENDBRANCH   3  12
ENDBRANCH   1   2
BRANCH   1  15
ATOM     14  N   UNL     1       2.969  -0.652  -3.018  0.00  0.00    -0.308 N 
ATOM     15  C   UNL     1       4.241  -0.210  -3.083  0.00  0.00    +0.239 C 
ATOM     16  O   UNL     1       4.877  -0.038  -2.065  0.00  0.00    -0.273 OA
ATOM     17  H   UNL     1       2.461  -0.789  -3.832  0.00  0.00    +0.149 HD
BRANCH  14  18
ATOM     18  C   UNL     1       2.355  -0.925  -1.716  0.00  0.00    +0.030 C 
ATOM     19  C   UNL     1       2.575   0.271  -0.787  0.00  0.00    +0.031 C 
ATOM     20  C   UNL     1       2.995  -2.172  -1.102  0.00  0.00    +0.031 C 
BRANCH  18  21
ATOM     21  C   UNL     1       0.855  -1.160  -1.899  0.00  0.00    +0.031 C 
BRANCH  21  23
ATOM     22  C   UNL     1       0.566  -0.575  -4.311  0.00  0.00    +0.010 C 
ATOM     23  C   UNL     1       0.292  -0.124  -2.875  0.00  0.00    -0.036 C 
ATOM     24  C   UNL     1       0.964   1.228  -2.627  0.00  0.00    +0.010 C 
ATOM     25  C   UNL     1      -1.218   0.009  -2.662  0.00  0.00    +0.010 C 
ENDBRANCH  21  23
ENDBRANCH  18  21
ENDBRANCH  14  18
ENDBRANCH   1  15
BRANCH   1  26
ATOM     26  N   UNL     1       6.278   0.440  -4.232  0.00  0.00    -0.278 N 
ATOM     27  C   UNL     1       7.110   0.493  -5.291  0.00  0.00    +0.218 C 
ATOM     28  O   UNL     1       6.696   0.236  -6.401  0.00  0.00    -0.276 OA
BRANCH  26  29
ATOM     29  C   UNL     1       6.778   0.750  -2.891  0.00  0.00    +0.183 C 
BRANCH  29  30
ATOM     30  C   UNL     1       7.272  -0.513  -2.234  0.00  0.00    +0.122 A 
ATOM     31  C   UNL     1       8.499  -1.046  -2.377  0.00  0.00    +0.046 A 
ATOM     32  C   UNL     1       8.531  -2.220  -1.590  0.00  0.00    +0.041 A 
ATOM     33  C   UNL     1       7.321  -2.335  -1.013  0.00  0.00    +0.195 A 
ATOM     34  O   UNL     1       6.565  -1.295  -1.402  0.00  0.00    -0.466 OA
ENDBRANCH  29  30
ENDBRANCH  26  29
BRANCH  27  35
ATOM     35  C   UNL     1       8.555   0.872  -5.095  0.00  0.00    +0.106 C 
BRANCH  35  36
ATOM     36  C   UNL     1       9.274   0.856  -6.445  0.00  0.00    +0.075 C 
BRANCH  36  37
ATOM     37  S   UNL     1      11.014   1.313  -6.209  0.00  0.00    -0.178 S 
ATOM     38  H   UNL     1      11.534   1.265  -7.449  0.00  0.00    +0.102 HD
ENDBRANCH  36  37
ENDBRANCH  35  36
ENDBRANCH  27  35
ENDBRANCH   1  26
TORSDOF 14
