REMARK  Name = ZINC02791823
REMARK  7 active torsions:
REMARK  status: ('A' for Active; 'I' for Inactive)
REMARK    1  A    between atoms: C_4  and  C_7
REMARK    2  A    between atoms: C_10  and  C_31
REMARK    3  A    between atoms: C_14  and  C_17
REMARK    4  A    between atoms: N_19  and  N_20
REMARK    5  A    between atoms: N_20  and  C_21
REMARK    6  A    between atoms: C_21  and  N_23
REMARK    7  A    between atoms: N_23  and  C_24
REMARK                            x       y       z     vdW  Elec       q    Type
REMARK                         _______ _______ _______ _____ _____    ______ ____
ROOT
ATOM      1  C   UNL     1       4.160  -0.033   0.431  0.00  0.00    +0.104 C 
ATOM      2  C   UNL     1       5.107   0.848  -0.391  0.00  0.00    +0.059 C 
ATOM      3  C   UNL     1       4.855   2.319  -0.030  0.00  0.00    +0.177 C 
ATOM      4  N   UNL     1       3.403   2.539  -0.036  0.00  0.00    -0.241 N 
ATOM      5  C   UNL     1       2.486   1.546  -0.017  0.00  0.00    +0.130 A 
ATOM      6  C   UNL     1       1.233   2.145  -0.033  0.00  0.00    +0.097 A 
ATOM      7  C   UNL     1       1.446   3.545  -0.052  0.00  0.00    +0.149 A 
ATOM      8  N   UNL     1       2.732   3.762  -0.054  0.00  0.00    -0.177 NA
ATOM      9  N   UNL     1       2.774   0.198  -0.002  0.00  0.00    -0.322 N 
ATOM     10  H   UNL     1       2.129  -0.655  -0.260  0.00  0.00    +0.148 HD
ENDROOT
BRANCH   1  14
ATOM     11  C   UNL     1       5.170  -4.142  -0.155  0.00  0.00    +0.000 A 
ATOM     12  C   UNL     1       5.597  -3.480   0.981  0.00  0.00    +0.000 A 
ATOM     13  C   UNL     1       5.270  -2.151   1.171  0.00  0.00    +0.005 A 
ATOM     14  C   UNL     1       4.517  -1.482   0.224  0.00  0.00    -0.027 A 
ATOM     15  C   UNL     1       4.085  -2.145  -0.910  0.00  0.00    +0.005 A 
ATOM     16  C   UNL     1       4.416  -3.473  -1.102  0.00  0.00    +0.000 A 
ENDBRANCH   1  14
BRANCH   6  17
ATOM     17  C   UNL     1      -0.064   1.458  -0.024  0.00  0.00    +0.265 C 
ATOM     18  O   UNL     1      -0.108   0.242  -0.006  0.00  0.00    -0.268 OA
ATOM     19  N   UNL     1      -1.206   2.174  -0.041  0.00  0.00    -0.231 N 
ATOM     20  H   UNL     1      -1.166   3.273  -0.057  0.00  0.00    +0.173 HD
BRANCH  19  21
ATOM     21  N   UNL     1      -2.444   1.518  -0.038  0.00  0.00    -0.246 N 
ATOM     22  H   UNL     1      -2.484   0.419  -0.022  0.00  0.00    +0.172 HD
BRANCH  21  23
ATOM     23  C   UNL     1      -3.586   2.234  -0.055  0.00  0.00    +0.147 C 
ATOM     24  S   UNL     1      -5.098   1.433  -0.052  0.00  0.00    -0.017 S 
BRANCH  23  25
ATOM     25  N   UNL     1      -3.536   3.581  -0.075  0.00  0.00    -0.323 N 
ATOM     26  H   UNL     1      -2.564   4.096  -0.077  0.00  0.00    +0.148 HD
BRANCH  25  27
ATOM     27  C   UNL     1      -4.777   4.359  -0.094  0.00  0.00    +0.072 C 
ATOM     28  C   UNL     1      -5.268   4.502  -1.536  0.00  0.00    +0.022 C 
ATOM     29  C   UNL     1      -6.564   5.314  -1.555  0.00  0.00    +0.002 C 
ATOM     30  C   UNL     1      -6.305   6.702  -0.965  0.00  0.00    +0.000 C 
ATOM     31  C   UNL     1      -5.815   6.559   0.477  0.00  0.00    +0.002 C 
ATOM     32  C   UNL     1      -4.519   5.746   0.497  0.00  0.00    +0.022 C 
ENDBRANCH  25  27
ENDBRANCH  23  25
ENDBRANCH  21  23
ENDBRANCH  19  21
ENDBRANCH   6  17
BRANCH   3  33
ATOM     33  C   UNL     1       5.419   2.616   1.361  0.00  0.00    +0.365 C 
ATOM     34  F   UNL     1       6.795   2.364   1.369  0.00  0.00    -0.207 F 
ATOM     35  F   UNL     1       5.188   3.958   1.681  0.00  0.00    -0.207 F 
ENDBRANCH   3  33
TORSDOF 7
