REMARK  Name = ZINC41898356
REMARK  4 active torsions:
REMARK  status: ('A' for Active; 'I' for Inactive)
REMARK    1  A    between atoms: C_3  and  N_18
REMARK    2  A    between atoms: C_6  and  N_7
REMARK    3  A    between atoms: C_8  and  C_10
REMARK    4  A    between atoms: C_11  and  C_12
REMARK                            x       y       z     vdW  Elec       q    Type
REMARK                         _______ _______ _______ _____ _____    ______ ____
ROOT
ATOM      1  C   UNL     1      -0.089   1.400  -0.333  0.00  0.00    +0.025 A 
ATOM      2  C   UNL     1       1.077   2.138  -0.366  0.00  0.00    +0.025 A 
ATOM      3  C   UNL     1       2.296   1.522  -0.116  0.00  0.00    +0.035 A 
ATOM      4  C   UNL     1       2.343   0.163   0.168  0.00  0.00    +0.025 A 
ATOM      5  C   UNL     1       1.177  -0.575   0.201  0.00  0.00    +0.025 A 
ATOM      6  C   UNL     1      -0.043   0.041  -0.049  0.00  0.00    +0.034 A 
ENDROOT
BRANCH   3   7
ATOM      7  N   UNL     1       3.480   2.271  -0.149  0.00  0.00    -0.270 N 
ATOM      8  C   UNL     1       3.485   3.543   0.295  0.00  0.00    +0.301 C 
ATOM      9  O   UNL     1       2.446   4.069   0.646  0.00  0.00    -0.253 OA
ATOM     10  N   UNL     1       4.641   4.234   0.350  0.00  0.00    -0.313 N 
ATOM     11  H   UNL     1       4.296   1.874  -0.493  0.00  0.00    +0.156 HD
ATOM     12  H   UNL     1       5.470   3.814   0.070  0.00  0.00    +0.146 HD
ATOM     13  H   UNL     1       4.645   5.149   0.670  0.00  0.00    +0.146 HD
ENDBRANCH   3   7
BRANCH   6  14
ATOM     14  N   UNL     1      -1.225  -0.708  -0.015  0.00  0.00    -0.282 N 
ATOM     15  C   UNL     1      -2.245  -0.394  -0.838  0.00  0.00    +0.241 C 
ATOM     16  O   UNL     1      -2.105   0.479  -1.676  0.00  0.00    -0.270 OA
ATOM     17  H   UNL     1      -1.310  -1.452   0.601  0.00  0.00    +0.155 HD
BRANCH  15  18
ATOM     18  C   UNL     1      -3.479  -1.078  -0.728  0.00  0.00    +0.071 C 
ATOM     19  C   UNL     1      -4.506  -0.762  -1.556  0.00  0.00    +0.051 C 
BRANCH  19  20
ATOM     20  C   UNL     1      -5.740  -1.446  -1.447  0.00  0.00    +0.129 A 
ATOM     21  C   UNL     1      -6.860  -1.232  -2.224  0.00  0.00    +0.050 A 
ATOM     22  C   UNL     1      -7.839  -2.127  -1.768  0.00  0.00    +0.056 A 
ATOM     23  C   UNL     1      -7.292  -2.837  -0.754  0.00  0.00    +0.165 A 
ATOM     24  O   UNL     1      -6.029  -2.429  -0.568  0.00  0.00    -0.450 OA
ATOM     25  I   UNL     1      -8.260  -4.337   0.342  0.00  0.00    -0.001 I 
ENDBRANCH  19  20
ENDBRANCH  15  18
ENDBRANCH   6  14
TORSDOF 4
