REMARK  Name = ZINC14668404
REMARK  9 active torsions:
REMARK  status: ('A' for Active; 'I' for Inactive)
REMARK    1  A    between atoms: C_1  and  C_2
REMARK    2  A    between atoms: C_2  and  C_3
REMARK    3  A    between atoms: C_2  and  O_4
REMARK    4  A    between atoms: O_4  and  C_5
REMARK    5  A    between atoms: C_10  and  C_11
REMARK    6  A    between atoms: N_13  and  C_14
REMARK    7  A    between atoms: C_14  and  N_16
REMARK    8  A    between atoms: N_16  and  C_17
REMARK    9  A    between atoms: C_18  and  C_26
REMARK                            x       y       z     vdW  Elec       q    Type
REMARK                         _______ _______ _______ _____ _____    ______ ____
ROOT
ATOM      1  C   UNL     1      -1.065  -0.712   0.213  0.00  0.00    +0.141 C 
ATOM      2  S   UNL     1      -2.544   0.101   0.501  0.00  0.00    -0.018 S 
ENDROOT
BRANCH   1   5
ATOM      3  C   UNL     1       0.025   1.343   0.015  0.00  0.00    +0.253 C 
ATOM      4  O   UNL     1      -1.026   1.920   0.214  0.00  0.00    -0.270 OA
ATOM      5  N   UNL     1       0.062  -0.004   0.000  0.00  0.00    -0.263 N 
ATOM      6  H   UNL     1       0.900  -0.465  -0.163  0.00  0.00    +0.157 HD
BRANCH   3  12
ATOM      7  C   UNL     1       1.224   3.518  -0.204  0.00  0.00    +0.133 A 
ATOM      8  C   UNL     1       2.390   4.236  -0.423  0.00  0.00    +0.047 A 
ATOM      9  C   UNL     1       3.579   3.573  -0.655  0.00  0.00    +0.019 A 
ATOM     10  C   UNL     1       3.617   2.187  -0.669  0.00  0.00    +0.019 A 
ATOM     11  C   UNL     1       2.469   1.458  -0.447  0.00  0.00    +0.032 A 
ATOM     12  C   UNL     1       1.258   2.117  -0.218  0.00  0.00    +0.080 A 
ATOM     13 BR   UNL     1       5.254   1.294  -0.987  0.00  0.00    -0.050 Br
BRANCH   7  14
ATOM     14  O   UNL     1       0.056   4.169   0.024  0.00  0.00    -0.489 OA
BRANCH  14  16
ATOM     15  C   UNL     1       0.063   6.222  -1.250  0.00  0.00    +0.051 C 
ATOM     16  C   UNL     1       0.119   5.592   0.143  0.00  0.00    +0.167 C 
ATOM     17  C   UNL     1      -1.066   6.087   0.974  0.00  0.00    +0.051 C 
ENDBRANCH  14  16
ENDBRANCH   7  14
ENDBRANCH   3  12
ENDBRANCH   1   5
BRANCH   1  18
ATOM     18  N   UNL     1      -1.028  -2.059   0.199  0.00  0.00    -0.291 N 
ATOM     19  H   UNL     1      -0.190  -2.519   0.035  0.00  0.00    +0.154 HD
BRANCH  18  20
ATOM     20  C   UNL     1      -2.187  -2.786   0.417  0.00  0.00    +0.084 A 
ATOM     21  C   UNL     1      -2.350  -4.165   0.435  0.00  0.00    +0.068 A 
ATOM     22  C   UNL     1      -3.684  -4.680   0.693  0.00  0.00    -0.023 A 
ATOM     23  C   UNL     1      -4.637  -3.741   0.880  0.00  0.00    -0.004 A 
ATOM     24  S   UNL     1      -3.787  -2.196   0.726  0.00  0.00    -0.077 S 
ATOM     25  C   UNL     1      -6.091  -3.972   1.156  0.00  0.00    +0.043 C 
ATOM     26  C   UNL     1      -6.419  -5.435   0.825  0.00  0.00    +0.005 C 
ATOM     27  C   UNL     1      -5.362  -6.336   1.469  0.00  0.00    +0.005 C 
ATOM     28  C   UNL     1      -4.023  -6.164   0.750  0.00  0.00    +0.037 C 
BRANCH  21  29
ATOM     29  C   UNL     1      -1.218  -5.067   0.206  0.00  0.00    +0.244 C 
ATOM     30  O   UNL     1      -0.547  -5.452   1.146  0.00  0.00    -0.270 OA
ATOM     31  N   UNL     1      -0.920  -5.470  -1.045  0.00  0.00    -0.325 N 
ATOM     32  H   UNL     1      -1.454  -5.163  -1.794  0.00  0.00    +0.145 HD
ATOM     33  H   UNL     1      -0.171  -6.067  -1.197  0.00  0.00    +0.145 HD
ENDBRANCH  21  29
ENDBRANCH  18  20
ENDBRANCH   1  18
TORSDOF 7
