REMARK  Name = ZINC66898339
REMARK  6 active torsions:
REMARK  status: ('A' for Active; 'I' for Inactive)
REMARK    1  A    between atoms: C_1  and  C_2
REMARK    2  A    between atoms: C_2  and  C_4
REMARK    3  A    between atoms: C_2  and  N_15
REMARK    4  A    between atoms: N_6  and  C_7
REMARK    5  A    between atoms: C_8  and  C_12
REMARK    6  A    between atoms: C_19  and  C_23
REMARK                            x       y       z     vdW  Elec       q    Type
REMARK                         _______ _______ _______ _____ _____    ______ ____
ROOT
ATOM      1  C   UNL     1      -0.059   1.524   0.039  0.00  0.00    -0.004 C 
ATOM      2  C   UNL     1       0.002  -0.004   0.002  0.00  0.00    +0.016 C 
ENDROOT
BRANCH   2   3
ATOM      3  N   UNL     1       0.814  -0.489   1.126  0.00  0.00    +0.387 N 
ATOM      4  C   UNL     1       0.971  -1.922   1.035  0.00  0.00    -0.078 C 
ATOM      5  C   UNL     1       0.953  -2.576   2.427  0.00  0.00    -0.018 C 
ATOM      6  C   UNL     1       1.744  -1.767   3.474  0.00  0.00    +0.006 C 
ATOM      7  C   UNL     1       3.052  -1.234   2.950  0.00  0.00    +0.017 C 
ATOM      8  C   UNL     1       2.827   0.181   2.364  0.00  0.00    -0.011 C 
ATOM      9  C   UNL     1       2.158   0.113   1.068  0.00  0.00    -0.077 C 
ATOM     10  H   UNL     1       0.368  -0.248   1.999  0.00  0.00    -0.081 HD
BRANCH   7  11
ATOM     11  C   UNL     1       4.052  -1.160   4.076  0.00  0.00    -0.044 A 
ATOM     12  C   UNL     1       3.788  -0.379   5.185  0.00  0.00    +0.004 A 
ATOM     13  C   UNL     1       4.705  -0.311   6.217  0.00  0.00    +0.000 A 
ATOM     14  C   UNL     1       5.886  -1.026   6.140  0.00  0.00    +0.000 A 
ATOM     15  C   UNL     1       6.149  -1.808   5.031  0.00  0.00    +0.000 A 
ATOM     16  C   UNL     1       5.230  -1.879   4.001  0.00  0.00    +0.004 A 
ENDBRANCH   7  11
ENDBRANCH   2   3
BRANCH   2  17
ATOM     17  C   UNL     1      -1.392  -0.566   0.110  0.00  0.00    +0.204 C 
ATOM     18  O   UNL     1      -1.681  -1.297   1.033  0.00  0.00    -0.277 OA
ATOM     19  N   UNL     1      -2.318  -0.254  -0.818  0.00  0.00    -0.281 N 
ATOM     20  H   UNL     1      -2.087   0.331  -1.556  0.00  0.00    +0.155 HD
BRANCH  19  21
ATOM     21  C   UNL     1      -3.601  -0.771  -0.719  0.00  0.00    +0.084 A 
ATOM     22  C   UNL     1      -4.672  -0.566  -1.576  0.00  0.00    +0.065 A 
ATOM     23  C   UNL     1      -5.909  -1.230  -1.235  0.00  0.00    +0.022 A 
ATOM     24  C   UNL     1      -5.885  -1.977  -0.117  0.00  0.00    +0.048 A 
ATOM     25  S   UNL     1      -4.213  -1.793   0.463  0.00  0.00    -0.081 S 
BRANCH  22  26
ATOM     26  C   UNL     1      -4.554   0.281  -2.768  0.00  0.00    +0.244 C 
ATOM     27  O   UNL     1      -3.497   0.826  -3.025  0.00  0.00    -0.270 OA
ATOM     28  N   UNL     1      -5.617   0.457  -3.577  0.00  0.00    -0.325 N 
ATOM     29  H   UNL     1      -6.460   0.022  -3.372  0.00  0.00    +0.145 HD
ATOM     30  H   UNL     1      -5.540   1.017  -4.365  0.00  0.00    +0.145 HD
ENDBRANCH  22  26
ENDBRANCH  19  21
ENDBRANCH   2  17
TORSDOF 5
