REMARK  Name = ZINC38709021
REMARK  4 active torsions:
REMARK  status: ('A' for Active; 'I' for Inactive)
REMARK    1  A    between atoms: C_2  and  C_3
REMARK    2  A    between atoms: C_3  and  N_4
REMARK    3  A    between atoms: N_7  and  C_8
REMARK    4  A    between atoms: C_17  and  C_19
REMARK                            x       y       z     vdW  Elec       q    Type
REMARK                         _______ _______ _______ _____ _____    ______ ____
ROOT
ATOM      1  C   UNL     1      -3.452  -4.260  -2.563  0.00  0.00    +0.037 A 
ATOM      2  C   UNL     1      -4.560  -4.238  -1.725  0.00  0.00    +0.024 A 
ATOM      3  C   UNL     1      -5.587  -5.139  -1.923  0.00  0.00    +0.007 A 
ATOM      4  C   UNL     1      -5.517  -6.061  -2.950  0.00  0.00    -0.024 A 
ATOM      5  C   UNL     1      -4.417  -6.094  -3.794  0.00  0.00    +0.041 A 
ATOM      6  C   UNL     1      -3.382  -5.180  -3.596  0.00  0.00    +0.047 A 
ATOM      7  N   UNL     1      -4.541  -7.095  -4.763  0.00  0.00    -0.271 N 
ATOM      8  C   UNL     1      -5.808  -7.810  -4.588  0.00  0.00    +0.118 C 
ATOM      9  C   UNL     1      -6.485  -7.140  -3.381  0.00  0.00    +0.056 C 
ATOM     10  C   UNL     1      -3.628  -7.363  -5.718  0.00  0.00    +0.223 C 
ATOM     11  O   UNL     1      -2.607  -6.712  -5.780  0.00  0.00    -0.275 OA
ENDROOT
BRANCH   1  15
ATOM     12  N   UNL     1      -1.005  -2.168  -0.923  0.00  0.00    -0.296 N 
ATOM     13  C   UNL     1      -2.068  -2.972  -1.119  0.00  0.00    +0.304 C 
ATOM     14  O   UNL     1      -2.721  -3.358  -0.168  0.00  0.00    -0.253 OA
ATOM     15  N   UNL     1      -2.409  -3.349  -2.367  0.00  0.00    -0.269 N 
ATOM     16  H   UNL     1      -0.484  -1.860  -1.682  0.00  0.00    +0.151 HD
ATOM     17  H   UNL     1      -1.930  -2.987  -3.130  0.00  0.00    +0.156 HD
BRANCH  12  18
ATOM     18  C   UNL     1      -0.635  -1.759   0.434  0.00  0.00    +0.132 C 
BRANCH  18  20
ATOM     19  C   UNL     1       0.546   0.321   0.925  0.00  0.00    +0.005 C 
ATOM     20  C   UNL     1       0.580  -0.868   0.377  0.00  0.00    -0.016 C 
ENDBRANCH  18  20
ENDBRANCH  12  18
ENDBRANCH   1  15
BRANCH  10  21
ATOM     21  C   UNL     1      -3.877  -8.471  -6.708  0.00  0.00    +0.076 C 
ATOM     22  C   UNL     1      -3.964  -9.826  -5.975  0.00  0.00    +0.013 C 
ATOM     23  C   UNL     1      -3.278 -10.825  -6.940  0.00  0.00    +0.001 C 
ATOM     24  C   UNL     1      -2.107  -9.992  -7.517  0.00  0.00    +0.001 C 
ATOM     25  C   UNL     1      -2.696  -8.577  -7.689  0.00  0.00    +0.013 C 
ENDBRANCH  10  21
TORSDOF 4
