REMARK  Name = ZINC42622951
REMARK  7 active torsions:
REMARK  status: ('A' for Active; 'I' for Inactive)
REMARK    1  A    between atoms: C_1  and  C_2
REMARK    2  A    between atoms: C_5  and  C_30
REMARK    3  A    between atoms: C_6  and  C_8
REMARK    4  A    between atoms: N_17  and  C_19
REMARK    5  A    between atoms: C_19  and  N_20
REMARK    6  A    between atoms: C_22  and  C_29
REMARK    7  A    between atoms: C_25  and  C_28
REMARK                            x       y       z     vdW  Elec       q    Type
REMARK                         _______ _______ _______ _____ _____    ______ ____
ROOT
ATOM      1  C   UNL     1      -0.068  -2.641   2.569  0.00  0.00    +0.100 A 
ATOM      2  C   UNL     1      -0.153  -1.819   3.785  0.00  0.00    +0.015 A 
ATOM      3  C   UNL     1      -0.193  -0.426   3.728  0.00  0.00    +0.011 A 
ATOM      4  C   UNL     1      -0.273   0.300   4.896  0.00  0.00    +0.001 A 
ATOM      5  C   UNL     1      -0.314  -0.340   6.128  0.00  0.00    +0.001 A 
ATOM      6  C   UNL     1      -0.277  -1.714   6.208  0.00  0.00    +0.014 A 
ATOM      7  C   UNL     1      -0.196  -2.469   5.038  0.00  0.00    +0.050 A 
ATOM      8  C   UNL     1      -0.153  -3.937   5.062  0.00  0.00    +0.276 A 
ATOM      9  O   UNL     1      -0.188  -4.539   6.120  0.00  0.00    -0.266 OA
ATOM     10  N   UNL     1      -0.075  -4.607   3.894  0.00  0.00    -0.214 N 
ATOM     11  N   UNL     1      -0.039  -3.946   2.667  0.00  0.00    -0.166 NA
ENDROOT
BRANCH   1  17
ATOM     12  C   UNL     1      -2.167  -1.738  -1.869  0.00  0.00    +0.044 C 
ATOM     13  C   UNL     1      -1.028  -1.558  -0.899  0.00  0.00    -0.050 A 
ATOM     14  C   UNL     1       0.064  -0.786  -1.253  0.00  0.00    +0.003 A 
ATOM     15  C   UNL     1       1.113  -0.616  -0.368  0.00  0.00    +0.004 A 
ATOM     16  C   UNL     1       1.076  -1.215   0.875  0.00  0.00    -0.041 A 
ATOM     17  C   UNL     1      -0.022  -1.994   1.237  0.00  0.00    +0.006 A 
ATOM     18  C   UNL     1      -1.079  -2.158   0.342  0.00  0.00    +0.013 A 
ATOM     19  C   UNL     1       2.220  -1.029   1.838  0.00  0.00    +0.044 C 
ENDBRANCH   1  17
BRANCH  10  20
ATOM     20  C   UNL     1      -0.032  -6.071   3.916  0.00  0.00    +0.234 C 
BRANCH  20  21
ATOM     21  N   UNL     1      -1.335  -6.606   3.499  0.00  0.00    -0.279 NA
ATOM     22  C   UNL     1      -2.290  -6.599   4.617  0.00  0.00    +0.117 C 
ATOM     23  C   UNL     1      -3.648  -7.106   4.125  0.00  0.00    +0.130 C 
ATOM     24  O   UNL     1      -3.487  -8.410   3.558  0.00  0.00    -0.371 OA
ATOM     25  C   UNL     1      -2.565  -8.453   2.466  0.00  0.00    +0.130 C 
ATOM     26  C   UNL     1      -1.196  -7.959   2.941  0.00  0.00    +0.117 C 
ATOM     27  C   UNL     1      -3.069  -7.553   1.336  0.00  0.00    +0.039 C 
ATOM     28  C   UNL     1      -4.623  -7.177   5.301  0.00  0.00    +0.039 C 
ENDBRANCH  20  21
ENDBRANCH  10  20
TORSDOF 3
