REMARK  Name = ZINC06750578
REMARK  5 active torsions:
REMARK  status: ('A' for Active; 'I' for Inactive)
REMARK    1  A    between atoms: C_1  and  C_2
REMARK    2  A    between atoms: C_5  and  C_27
REMARK    3  A    between atoms: N_18  and  C_19
REMARK    4  A    between atoms: C_24  and  O_25
REMARK    5  A    between atoms: O_25  and  C_26
REMARK                            x       y       z     vdW  Elec       q    Type
REMARK                         _______ _______ _______ _____ _____    ______ ____
ROOT
ATOM      1  C   UNL     1       3.397  -4.108   0.304  0.00  0.00    +0.009 C 
ATOM      2  C   UNL     1       2.619  -3.874  -0.992  0.00  0.00    +0.004 C 
ATOM      3  C   UNL     1       1.341  -4.716  -0.980  0.00  0.00    +0.009 C 
ATOM      4  C   UNL     1       0.453  -4.266   0.184  0.00  0.00    +0.004 C 
ATOM      5  C   UNL     1       0.145  -2.774   0.037  0.00  0.00    +0.110 C 
ATOM      6  N   UNL     1       1.401  -2.012   0.031  0.00  0.00    -0.308 N 
ATOM      7  C   UNL     1       2.248  -2.394  -1.106  0.00  0.00    +0.110 C 
ATOM      8  C   UNL     1       1.153  -0.645   0.030  0.00  0.00    +0.186 A 
ATOM      9  N   UNL     1      -0.000  -0.004   0.035  0.00  0.00    -0.124 NA
ATOM     10  N   UNL     1      -0.018   1.372   0.033  0.00  0.00    -0.124 NA
ATOM     11  C   UNL     1       1.116   2.043   0.028  0.00  0.00    +0.190 A 
ATOM     12  S   UNL     1       2.311   0.715   0.024  0.00  0.00    -0.015 S 
ATOM     13  N   UNL     1       1.327   3.420   0.026  0.00  0.00    -0.247 N 
ATOM     14  C   UNL     1       0.275   4.263   0.029  0.00  0.00    +0.310 C 
ATOM     15  O   UNL     1      -0.858   3.821   0.035  0.00  0.00    -0.252 OA
ATOM     16  N   UNL     1       0.478   5.595   0.027  0.00  0.00    -0.266 N 
ATOM     17  C   UNL     1      -0.853  -5.061   0.168  0.00  0.00    +0.009 C 
ATOM     18  H   UNL     1       2.230   3.772   0.021  0.00  0.00    +0.158 HD
ATOM     19  H   UNL     1       1.380   5.948   0.088  0.00  0.00    +0.156 HD
ENDROOT
BRANCH  16  20
ATOM     20  C   UNL     1      -0.612   6.471  -0.064  0.00  0.00    +0.077 A 
ATOM     21  C   UNL     1      -1.819   6.143   0.537  0.00  0.00    +0.027 A 
ATOM     22  C   UNL     1      -2.893   7.008   0.446  0.00  0.00    +0.002 A 
ATOM     23  C   UNL     1      -2.768   8.200  -0.242  0.00  0.00    +0.004 A 
ATOM     24  C   UNL     1      -1.569   8.534  -0.843  0.00  0.00    +0.047 A 
ATOM     25  C   UNL     1      -0.486   7.675  -0.752  0.00  0.00    +0.141 A 
BRANCH  25  26
ATOM     26  O   UNL     1       0.697   8.004  -1.338  0.00  0.00    -0.493 OA
ATOM     27  C   UNL     1       0.753   9.254  -2.028  0.00  0.00    +0.277 C 
ENDBRANCH  25  26
ENDBRANCH  16  20
TORSDOF 2
