REMARK  Name = ZINC22237346
REMARK  8 active torsions:
REMARK  status: ('A' for Active; 'I' for Inactive)
REMARK    1  A    between atoms: C_1  and  C_2
REMARK    2  A    between atoms: C_4  and  C_26
REMARK    3  A    between atoms: C_6  and  C_8
REMARK    4  A    between atoms: C_11  and  S_13
REMARK    5  A    between atoms: S_13  and  C_14
REMARK    6  A    between atoms: C_14  and  C_16
REMARK    7  A    between atoms: C_14  and  C_17
REMARK    8  A    between atoms: C_22  and  C_25
REMARK                            x       y       z     vdW  Elec       q    Type
REMARK                         _______ _______ _______ _____ _____    ______ ____
ROOT
ATOM      1  C   UNL     1       0.052  -2.845   2.457  0.00  0.00    +0.249 A 
ATOM      2  N   UNL     1       0.076  -4.149   2.588  0.00  0.00    -0.106 NA
ATOM      3  N   UNL     1       0.084  -4.453   3.838  0.00  0.00    -0.101 NA
ATOM      4  C   UNL     1       0.066  -3.353   4.555  0.00  0.00    +0.278 A 
ATOM      5  O   UNL     1       0.051  -2.314   3.699  0.00  0.00    -0.411 OA
ENDROOT
BRANCH   1  11
ATOM      6  C   UNL     1      -0.018   1.503   0.010  0.00  0.00    +0.044 C 
ATOM      7  C   UNL     1       0.002  -0.004   0.002  0.00  0.00    -0.049 A 
ATOM      8  C   UNL     1       0.006  -0.688  -1.201  0.00  0.00    +0.006 A 
ATOM      9  C   UNL     1       0.025  -2.071  -1.218  0.00  0.00    -0.049 A 
ATOM     10  C   UNL     1       0.040  -2.778  -0.033  0.00  0.00    +0.016 A 
ATOM     11  C   UNL     1       0.036  -2.095   1.184  0.00  0.00    +0.039 A 
ATOM     12  C   UNL     1       0.023  -0.699   1.194  0.00  0.00    +0.016 A 
ATOM     13  C   UNL     1       0.029  -2.807  -2.533  0.00  0.00    +0.044 C 
ENDBRANCH   1  11
BRANCH   4  14
ATOM     14  S   UNL     1       0.068  -3.255   6.315  0.00  0.00    -0.053 S 
BRANCH  14  15
ATOM     15  C   UNL     1       0.101  -4.988   6.851  0.00  0.00    +0.139 C 
ATOM     16  C   UNL     1      -1.195  -5.679   6.422  0.00  0.00    +0.029 C 
BRANCH  15  17
ATOM     17  C   UNL     1       0.229  -5.047   8.351  0.00  0.00    +0.229 C 
ATOM     18  O   UNL     1      -0.151  -4.116   9.029  0.00  0.00    -0.274 OA
ATOM     19  N   UNL     1       0.766  -6.134   8.939  0.00  0.00    -0.301 N 
ATOM     20  C   UNL     1       1.236  -7.267   8.130  0.00  0.00    +0.108 C 
ATOM     21  C   UNL     1       0.571  -8.549   8.642  0.00  0.00    +0.022 C 
ATOM     22  C   UNL     1       0.839  -8.693  10.142  0.00  0.00    -0.011 C 
ATOM     23  C   UNL     1       0.231  -7.503  10.887  0.00  0.00    +0.022 C 
ATOM     24  C   UNL     1       0.897  -6.207  10.401  0.00  0.00    +0.108 C 
ATOM     25  C   UNL     1       0.205  -9.990  10.650  0.00  0.00    +0.007 C 
ENDBRANCH  15  17
ENDBRANCH  14  15
ENDBRANCH   4  14
TORSDOF 4
