REMARK  Name = ZINC40707478
REMARK  5 active torsions:
REMARK  status: ('A' for Active; 'I' for Inactive)
REMARK    1  A    between atoms: C_1  and  C_2
REMARK    2  A    between atoms: C_2  and  N_3
REMARK    3  A    between atoms: C_5  and  N_22
REMARK    4  A    between atoms: C_6  and  O_10
REMARK    5  A    between atoms: O_10  and  C_11
REMARK                            x       y       z     vdW  Elec       q    Type
REMARK                         _______ _______ _______ _____ _____    ______ ____
ROOT
ATOM      1  N   UNL     1       0.511  -0.495  -1.288  0.00  0.00    -0.328 N 
ATOM      2  C   UNL     1       0.664  -1.857  -1.520  0.00  0.00    +0.147 A 
ATOM      3  C   UNL     1       1.404  -2.311  -2.615  0.00  0.00    +0.128 A 
ATOM      4  C   UNL     1       1.526  -3.687  -2.801  0.00  0.00    +0.246 A 
ATOM      5  N   UNL     1       0.940  -4.509  -1.936  0.00  0.00    -0.199 NA
ATOM      6  C   UNL     1       0.251  -4.041  -0.915  0.00  0.00    +0.227 A 
ATOM      7  N   UNL     1       0.115  -2.748  -0.699  0.00  0.00    -0.219 NA
ATOM      8  H   UNL     1       0.915   0.148  -1.891  0.00  0.00    +0.147 HD
ENDROOT
BRANCH   3   9
ATOM      9  N   UNL     1       2.006  -1.407  -3.504  0.00  0.00    -0.351 N 
ATOM     10  H   UNL     1       1.911  -0.452  -3.362  0.00  0.00    +0.143 HD
ATOM     11  H   UNL     1       2.516  -1.737  -4.260  0.00  0.00    +0.143 HD
ENDBRANCH   3   9
BRANCH   1  13
ATOM     12  C   UNL     1      -0.276   1.498  -0.110  0.00  0.00    +0.024 C 
ATOM     13  C   UNL     1      -0.262  -0.031  -0.133  0.00  0.00    +0.099 C 
ENDBRANCH   1  13
BRANCH   4  14
ATOM     14  O   UNL     1       2.233  -4.180  -3.849  0.00  0.00    -0.434 OA
BRANCH  14  15
ATOM     15  C   UNL     1       2.408  -5.525  -3.923  0.00  0.00    +0.156 A 
ATOM     16  C   UNL     1       3.545  -6.105  -3.408  0.00  0.00    +0.049 A 
ATOM     17  C   UNL     1       3.738  -7.481  -3.477  0.00  0.00    +0.019 A 
ATOM     18  C   UNL     1       2.808  -8.291  -4.056  0.00  0.00    +0.027 A 
ATOM     19  C   UNL     1       1.635  -7.736  -4.594  0.00  0.00    +0.018 A 
ATOM     20  C   UNL     1       1.424  -6.337  -4.524  0.00  0.00    +0.114 A 
ATOM     21  N   UNL     1       0.307  -5.806  -5.030  0.00  0.00    -0.251 NA
ATOM     22  C   UNL     1      -0.611  -6.556  -5.590  0.00  0.00    +0.111 A 
ATOM     23  C   UNL     1      -0.469  -7.939  -5.686  0.00  0.00    +0.020 A 
ATOM     24  C   UNL     1       0.654  -8.544  -5.200  0.00  0.00    +0.013 A 
ATOM     25 BR   UNL     1       3.096 -10.159  -4.138  0.00  0.00    -0.050 Br
ENDBRANCH  14  15
ENDBRANCH   4  14
TORSDOF 4
