REMARK  Name = ZINC56173994
REMARK  7 active torsions:
REMARK  status: ('A' for Active; 'I' for Inactive)
REMARK    1  A    between atoms: C_1  and  C_2
REMARK    2  A    between atoms: C_2  and  C_4
REMARK    3  A    between atoms: C_2  and  N_17
REMARK    4  A    between atoms: N_6  and  C_7
REMARK    5  A    between atoms: C_10  and  S_13
REMARK    6  A    between atoms: S_13  and  N_16
REMARK    7  A    between atoms: N_17  and  C_18
REMARK                            x       y       z     vdW  Elec       q    Type
REMARK                         _______ _______ _______ _____ _____    ______ ____
ROOT
ATOM      1  C   UNL     1       0.730  -0.502   1.224  0.00  0.00    +0.237 C 
ATOM      2  O   UNL     1       0.156  -1.205   2.028  0.00  0.00    -0.273 OA
ATOM      3  N   UNL     1       2.019  -0.161   1.426  0.00  0.00    -0.284 N 
ATOM      4  H   UNL     1       2.498   0.344   0.751  0.00  0.00    +0.155 HD
ENDROOT
BRANCH   3   5
ATOM      5  C   UNL     1       2.664  -0.537   2.609  0.00  0.00    +0.034 A 
ATOM      6  C   UNL     1       3.602   0.308   3.188  0.00  0.00    +0.025 A 
ATOM      7  C   UNL     1       4.238  -0.066   4.356  0.00  0.00    +0.030 A 
ATOM      8  C   UNL     1       3.941  -1.280   4.949  0.00  0.00    +0.105 A 
ATOM      9  C   UNL     1       3.008  -2.123   4.374  0.00  0.00    +0.030 A 
ATOM     10  C   UNL     1       2.364  -1.752   3.210  0.00  0.00    +0.025 A 
BRANCH   8  11
ATOM     11  S   UNL     1       4.754  -1.752   6.439  0.00  0.00    +0.056 S 
ATOM     12  O   UNL     1       4.701  -3.171   6.498  0.00  0.00    -0.153 OA
ATOM     13  O   UNL     1       5.979  -1.034   6.479  0.00  0.00    -0.153 OA
BRANCH  11  14
ATOM     14  N   UNL     1       3.835  -1.192   7.697  0.00  0.00    -0.204 NA
ATOM     15  H   UNL     1       3.016  -0.703   7.520  0.00  0.00    +0.144 HD
ATOM     16  H   UNL     1       4.116  -1.352   8.612  0.00  0.00    +0.144 HD
ENDBRANCH  11  14
ENDBRANCH   8  11
ENDBRANCH   3   5
BRANCH   1  18
ATOM     17  C   UNL     1      -0.013   1.521  -0.004  0.00  0.00    +0.038 C 
ATOM     18  C   UNL     1       0.004  -0.009  -0.002  0.00  0.00    +0.154 C 
BRANCH  18  19
ATOM     19  N   UNL     1      -1.371  -0.513   0.011  0.00  0.00    -0.333 N 
ATOM     20  H   UNL     1      -1.795  -0.748   0.851  0.00  0.00    +0.147 HD
BRANCH  19  21
ATOM     21  C   UNL     1      -2.074  -0.656  -1.189  0.00  0.00    +0.030 A 
ATOM     22  C   UNL     1      -1.467  -0.326  -2.394  0.00  0.00    +0.024 A 
ATOM     23  C   UNL     1      -2.162  -0.469  -3.579  0.00  0.00    +0.024 A 
ATOM     24  C   UNL     1      -3.463  -0.939  -3.567  0.00  0.00    +0.076 A 
ATOM     25  C   UNL     1      -4.072  -1.269  -2.367  0.00  0.00    +0.143 A 
ATOM     26  C   UNL     1      -3.377  -1.134  -1.179  0.00  0.00    +0.062 A 
ATOM     27  F   UNL     1      -5.343  -1.728  -2.358  0.00  0.00    -0.204 F 
ATOM     28 CL   UNL     1      -4.334  -1.116  -5.059  0.00  0.00    -0.081 Cl
ENDBRANCH  19  21
ENDBRANCH  18  19
ENDBRANCH   1  18
TORSDOF 6
