REMARK  Name = ZINC20331477
REMARK  3 active torsions:
REMARK  status: ('A' for Active; 'I' for Inactive)
REMARK    1  A    between atoms: C_4  and  N_7
REMARK    2  A    between atoms: C_8  and  C_10
REMARK    3  A    between atoms: N_29  and  C_32
REMARK                            x       y       z     vdW  Elec       q    Type
REMARK                         _______ _______ _______ _____ _____    ______ ____
ROOT
ATOM      1  C   UNL     1       4.962  -2.721   0.153  0.00  0.00    +0.172 C 
ATOM      2  C   UNL     1       5.575  -2.905  -1.233  0.00  0.00    +0.119 C 
ATOM      3  C   UNL     1       6.531  -4.109  -0.875  0.00  0.00    +0.115 C 
ATOM      4  C   UNL     1       5.630  -5.036  -0.176  0.00  0.00    +0.117 C 
ATOM      5  N   UNL     1       4.758  -4.107   0.638  0.00  0.00    -0.316 N 
ATOM      6  C   UNL     1       3.961  -4.535   1.677  0.00  0.00    +0.072 C 
ATOM      7  C   UNL     1       4.426  -5.556   2.421  0.00  0.00    +0.023 C 
ATOM      8  C   UNL     1       5.729  -6.162   2.085  0.00  0.00    -0.019 A 
ATOM      9  C   UNL     1       6.327  -5.934   0.819  0.00  0.00    -0.019 A 
ATOM     10  C   UNL     1       7.552  -6.486   0.520  0.00  0.00    +0.006 A 
ATOM     11  C   UNL     1       8.174  -7.330   1.424  0.00  0.00    +0.000 A 
ATOM     12  C   UNL     1       7.564  -7.627   2.630  0.00  0.00    +0.001 A 
ATOM     13  C   UNL     1       6.356  -7.016   2.994  0.00  0.00    +0.008 A 
ATOM     14  C   UNL     1       7.452  -4.093  -1.986  0.00  0.00    +0.232 C 
ATOM     15  O   UNL     1       7.993  -5.043  -2.509  0.00  0.00    -0.274 OA
ATOM     16  N   UNL     1       7.582  -2.769  -2.323  0.00  0.00    -0.210 N 
ATOM     17  C   UNL     1       6.624  -1.966  -1.740  0.00  0.00    +0.232 C 
ATOM     18  O   UNL     1       6.627  -0.758  -1.648  0.00  0.00    -0.274 OA
ENDROOT
BRANCH  16  19
ATOM     19  C   UNL     1       8.577  -2.281  -3.182  0.00  0.00    +0.044 A 
ATOM     20  C   UNL     1       9.497  -3.153  -3.747  0.00  0.00    +0.024 A 
ATOM     21  C   UNL     1      10.476  -2.669  -4.593  0.00  0.00    +0.002 A 
ATOM     22  C   UNL     1      10.541  -1.317  -4.876  0.00  0.00    +0.000 A 
ATOM     23  C   UNL     1       9.625  -0.446  -4.315  0.00  0.00    +0.002 A 
ATOM     24  C   UNL     1       8.640  -0.925  -3.473  0.00  0.00    +0.024 A 
ENDBRANCH  16  19
BRANCH   1  26
ATOM     25  N   UNL     1       3.622  -0.651  -0.037  0.00  0.00    -0.284 N 
ATOM     26  C   UNL     1       3.645  -1.995   0.057  0.00  0.00    +0.238 C 
ATOM     27  O   UNL     1       2.606  -2.620   0.064  0.00  0.00    -0.273 OA
ATOM     28  H   UNL     1       4.452  -0.155  -0.111  0.00  0.00    +0.155 HD
BRANCH  25  32
ATOM     29  C   UNL     1      -0.018   1.377  -0.014  0.00  0.00    +0.000 A 
ATOM     30  C   UNL     1       1.092   1.944   0.586  0.00  0.00    +0.002 A 
ATOM     31  C   UNL     1       2.300   1.274   0.580  0.00  0.00    +0.023 A 
ATOM     32  C   UNL     1       2.399   0.030  -0.029  0.00  0.00    +0.033 A 
ATOM     33  C   UNL     1       1.283  -0.536  -0.631  0.00  0.00    +0.023 A 
ATOM     34  C   UNL     1       0.078   0.139  -0.622  0.00  0.00    +0.002 A 
ENDBRANCH  25  32
ENDBRANCH   1  26
TORSDOF 3
