REMARK  Name = ZINC22059170
REMARK  7 active torsions:
REMARK  status: ('A' for Active; 'I' for Inactive)
REMARK    1  A    between atoms: C_1  and  C_2
REMARK    2  A    between atoms: C_2  and  S_3
REMARK    3  A    between atoms: S_3  and  C_4
REMARK    4  A    between atoms: C_6  and  O_20
REMARK    5  A    between atoms: C_8  and  O_19
REMARK    6  A    between atoms: C_10  and  O_18
REMARK    7  A    between atoms: C_12  and  C_15
REMARK                            x       y       z     vdW  Elec       q    Type
REMARK                         _______ _______ _______ _____ _____    ______ ____
ROOT
ATOM      1  C   UNL     1      -0.762   2.990  -1.243  0.00  0.00    +0.208 C 
ATOM      2  C   UNL     1      -1.507   3.554  -0.030  0.00  0.00    +0.184 C 
ATOM      3  C   UNL     1      -0.797   3.104   1.250  0.00  0.00    +0.178 C 
ATOM      4  C   UNL     1      -0.727   1.574   1.271  0.00  0.00    +0.185 C 
ATOM      5  C   UNL     1      -0.013   1.086   0.008  0.00  0.00    +0.263 C 
ATOM      6  O   UNL     1      -0.706   1.565  -1.146  0.00  0.00    -0.346 OA
ENDROOT
BRANCH   5   7
ATOM      7  C   UNL     1       1.401   1.608  -0.003  0.00  0.00    +0.387 C 
ATOM      8  O   UNL     1       1.778   2.312  -0.909  0.00  0.00    -0.243 OA
ATOM      9  O   UNL     1       2.241   1.290   0.995  0.00  0.00    -0.243 OA
ENDBRANCH   5   7
BRANCH   4  10
ATOM     10  O   UNL     1      -0.003   1.144   2.425  0.00  0.00    -0.386 OA
ATOM     11  H   UNL     1       0.150   0.071   2.611  0.00  0.00    +0.210 HD
ENDBRANCH   4  10
BRANCH   3  12
ATOM     12  O   UNL     1      -1.527   3.564   2.389  0.00  0.00    -0.386 OA
ATOM     13  H   UNL     1      -1.167   3.336   3.403  0.00  0.00    +0.210 HD
ENDBRANCH   3  12
BRANCH   2  14
ATOM     14  O   UNL     1      -2.852   3.070  -0.026  0.00  0.00    -0.386 OA
ATOM     15  H   UNL     1      -3.542   3.371   0.775  0.00  0.00    +0.210 HD
ENDBRANCH   2  14
BRANCH   1  16
ATOM     16  S   UNL     1      -1.636   3.459  -2.762  0.00  0.00    -0.127 S 
BRANCH  16  18
ATOM     17  C   UNL     1      -1.187   3.189  -5.447  0.00  0.00    +0.015 C 
ATOM     18  C   UNL     1      -0.560   2.855  -4.092  0.00  0.00    +0.068 C 
ENDBRANCH  16  18
ENDBRANCH   1  16
TORSDOF 6
