REMARK  Name = ZINC36562464
REMARK  16 active torsions:
REMARK  status: ('A' for Active; 'I' for Inactive)
REMARK    1  A    between atoms: C_1  and  C_2
REMARK    2  A    between atoms: C_2  and  C_3
REMARK    3  A    between atoms: C_3  and  N_4
REMARK    4  A    between atoms: N_4  and  C_5
REMARK    5  A    between atoms: C_5  and  C_7
REMARK    6  A    between atoms: C_5  and  C_16
REMARK    7  A    between atoms: C_8  and  O_15
REMARK    8  A    between atoms: C_10  and  O_14
REMARK    9  A    between atoms: C_12  and  O_13
REMARK   10  A    between atoms: N_18  and  C_19
REMARK   11  A    between atoms: C_19  and  C_20
REMARK   12  A    between atoms: C_19  and  C_21
REMARK   13  A    between atoms: C_19  and  C_22
REMARK   14  A    between atoms: C_23  and  C_25
REMARK   15  A    between atoms: C_25  and  C_26
REMARK   16  A    between atoms: C_26  and  C_27
REMARK                            x       y       z     vdW  Elec       q    Type
REMARK                         _______ _______ _______ _____ _____    ______ ____
ROOT
ATOM      1  C   UNL     1      -0.329  -3.176  -1.702  0.00  0.00    +0.199 C 
ENDROOT
BRANCH   1   2
ATOM      2  C   UNL     1      -0.062  -3.863  -3.016  0.00  0.00    +0.065 A 
ATOM      3  C   UNL     1      -1.111  -4.138  -3.881  0.00  0.00    +0.129 A 
ATOM      4  C   UNL     1      -0.865  -4.769  -5.090  0.00  0.00    +0.091 A 
ATOM      5  C   UNL     1       0.430  -5.126  -5.436  0.00  0.00    +0.124 A 
ATOM      6  C   UNL     1       1.479  -4.851  -4.572  0.00  0.00    +0.091 A 
ATOM      7  C   UNL     1       1.234  -4.215  -3.364  0.00  0.00    +0.129 A 
BRANCH   7   8
ATOM      8  O   UNL     1       2.263  -3.941  -2.520  0.00  0.00    -0.506 OA
ATOM      9  H   UNL     1       2.388  -4.602  -1.825  0.00  0.00    +0.292 HD
ENDBRANCH   7   8
BRANCH   5  10
ATOM     10  O   UNL     1       0.670  -5.746  -6.621  0.00  0.00    -0.507 OA
ATOM     11  H   UNL     1       0.853  -5.140  -7.352  0.00  0.00    +0.292 HD
ENDBRANCH   5  10
BRANCH   3  12
ATOM     12  O   UNL     1      -2.379  -3.788  -3.542  0.00  0.00    -0.506 OA
ATOM     13  H   UNL     1      -2.660  -2.933  -3.896  0.00  0.00    +0.292 HD
ENDBRANCH   3  12
ENDBRANCH   1   2
BRANCH   1  14
ATOM     14  C   UNL     1      -0.802  -4.190  -0.693  0.00  0.00    +0.239 C 
ATOM     15  O   UNL     1      -0.523  -4.055   0.480  0.00  0.00    -0.273 OA
ATOM     16  N   UNL     1      -1.536  -5.247  -1.093  0.00  0.00    -0.309 N 
ATOM     17  H   UNL     1      -1.712  -5.386  -2.037  0.00  0.00    +0.149 HD
BRANCH  16  18
ATOM     18  C   UNL     1      -2.069  -6.186  -0.103  0.00  0.00    +0.026 C 
ATOM     19  C   UNL     1      -2.991  -5.440   0.864  0.00  0.00    +0.031 C 
ATOM     20  C   UNL     1      -2.859  -7.285  -0.816  0.00  0.00    +0.031 C 
ATOM     21  C   UNL     1      -0.913  -6.814   0.678  0.00  0.00    +0.031 C 
ENDBRANCH  16  18
ENDBRANCH   1  14
BRANCH   1  22
ATOM     22  N   UNL     1       0.904  -2.547  -1.220  0.00  0.00    -0.286 N 
ATOM     23  C   UNL     1       1.773  -3.254  -0.471  0.00  0.00    +0.216 C 
ATOM     24  O   UNL     1       1.512  -4.395  -0.155  0.00  0.00    -0.276 OA
BRANCH  22  25
ATOM     25  C   UNL     1       1.192  -1.150  -1.554  0.00  0.00    +0.108 C 
BRANCH  25  27
ATOM     26  C   UNL     1       1.105   1.202  -0.714  0.00  0.00    +0.005 C 
ATOM     27  C   UNL     1       0.694  -0.243  -0.426  0.00  0.00    +0.016 C 
ENDBRANCH  25  27
ENDBRANCH  22  25
BRANCH  23  28
ATOM     28  C   UNL     1       3.068  -2.625  -0.025  0.00  0.00    +0.096 C 
BRANCH  28  29
ATOM     29  C   UNL     1       3.865  -3.633   0.806  0.00  0.00    +0.013 C 
BRANCH  29  30
ATOM     30  C   UNL     1       5.180  -2.995   1.258  0.00  0.00    -0.011 C 
ATOM     31  C   UNL     1       6.051  -2.701   0.035  0.00  0.00    +0.003 C 
ATOM     32  C   UNL     1       7.366  -2.063   0.487  0.00  0.00    +0.000 C 
ATOM     33  C   UNL     1       8.105  -3.024   1.420  0.00  0.00    +0.000 C 
ATOM     34  C   UNL     1       7.234  -3.319   2.643  0.00  0.00    +0.000 C 
ATOM     35  C   UNL     1       5.919  -3.957   2.191  0.00  0.00    +0.003 C 
ENDBRANCH  29  30
ENDBRANCH  28  29
ENDBRANCH  23  28
ENDBRANCH   1  22
TORSDOF 12
