REMARK  Name = ZINC02519014
REMARK  8 active torsions:
REMARK  status: ('A' for Active; 'I' for Inactive)
REMARK    1  A    between atoms: C_1  and  C_2
REMARK    2  A    between atoms: C_2  and  C_20
REMARK    3  A    between atoms: C_4  and  C_11
REMARK    4  A    between atoms: C_4  and  N_13
REMARK    5  A    between atoms: C_6  and  C_9
REMARK    6  A    between atoms: C_6  and  C_10
REMARK    7  A    between atoms: N_7  and  O_8
REMARK    8  A    between atoms: C_14  and  C_16
REMARK                            x       y       z     vdW  Elec       q    Type
REMARK                         _______ _______ _______ _____ _____    ______ ____
ROOT
ATOM      1  C   UNL     1       1.932   2.166  -1.426  0.00  0.00    +0.030 C 
ATOM      2  C   UNL     1       1.369   2.140   0.001  0.00  0.00    +0.044 C 
ATOM      3  C   UNL     1      -0.019   1.518   0.010  0.00  0.00    +0.061 C 
ATOM      4  C   UNL     1       0.002  -0.004   0.002  0.00  0.00    +0.140 C 
ATOM      5  C   UNL     1       0.912  -0.541   1.098  0.00  0.00    +0.061 C 
ATOM      6  C   UNL     1       2.304   0.074   1.074  0.00  0.00    +0.044 C 
ATOM      7  N   UNL     1       2.297   1.512   0.915  0.00  0.00    -0.180 NA
ATOM      8  C   UNL     1       2.964  -0.241   2.441  0.00  0.00    +0.030 C 
ATOM      9  C   UNL     1       3.171  -0.600   0.005  0.00  0.00    +0.030 C 
ATOM     10  C   UNL     1       1.210   3.618   0.439  0.00  0.00    +0.030 C 
ENDROOT
BRANCH   4  11
ATOM     11  N   UNL     1       0.381  -0.525  -1.311  0.00  0.00    -0.292 N 
ATOM     12  C   UNL     1       0.454  -1.856  -1.512  0.00  0.00    +0.318 C 
ATOM     13  O   UNL     1       0.205  -2.621  -0.605  0.00  0.00    -0.266 OA
ATOM     14  H   UNL     1       0.579   0.087  -2.037  0.00  0.00    +0.150 HD
BRANCH  12  15
ATOM     15  C   UNL     1       0.844  -2.393  -2.865  0.00  0.00    +0.469 C 
ATOM     16  F   UNL     1       0.850  -3.791  -2.828  0.00  0.00    -0.162 F 
ATOM     17  F   UNL     1      -0.077  -1.956  -3.824  0.00  0.00    -0.162 F 
ATOM     18  F   UNL     1       2.120  -1.929  -3.200  0.00  0.00    -0.162 F 
ENDBRANCH  12  15
ENDBRANCH   4  11
BRANCH   4  19
ATOM     19  C   UNL     1      -1.411  -0.490   0.292  0.00  0.00    +0.379 C 
ATOM     20  O   UNL     1      -2.179   0.215   0.904  0.00  0.00    -0.244 OA
ATOM     21  O   UNL     1      -1.805  -1.701  -0.131  0.00  0.00    -0.244 OA
ENDBRANCH   4  19
BRANCH   7  22
ATOM     22  O   UNL     1       3.647   2.064   0.803  0.00  0.00    -0.311 OA
ATOM     23  H   UNL     1       3.671   3.025   0.696  0.00  0.00    +0.237 HD
ENDBRANCH   7  22
TORSDOF 4
