REMARK  Name = ZINC21325295
REMARK  9 active torsions:
REMARK  status: ('A' for Active; 'I' for Inactive)
REMARK    1  A    between atoms: C_1  and  C_2
REMARK    2  A    between atoms: C_2  and  C_27
REMARK    3  A    between atoms: N_3  and  N_4
REMARK    4  A    between atoms: C_8  and  S_11
REMARK    5  A    between atoms: N_9  and  N_10
REMARK    6  A    between atoms: S_11  and  C_12
REMARK    7  A    between atoms: C_12  and  C_13
REMARK    8  A    between atoms: N_15  and  C_16
REMARK    9  A    between atoms: C_20  and  C_22
REMARK                            x       y       z     vdW  Elec       q    Type
REMARK                         _______ _______ _______ _____ _____    ______ ____
ROOT
ATOM      1  N   UNL     1      -4.630   4.613  -0.463  0.00  0.00    -0.204 N 
ATOM      2  C   UNL     1      -5.928   4.138  -0.356  0.00  0.00    +0.254 A 
ATOM      3  N   UNL     1      -6.278   2.888  -0.172  0.00  0.00    -0.109 NA
ATOM      4  N   UNL     1      -7.677   2.833  -0.120  0.00  0.00    -0.119 NA
ATOM      5  C   UNL     1      -8.136   4.052  -0.275  0.00  0.00    +0.210 A 
ATOM      6  N   UNL     1      -7.067   4.891  -0.418  0.00  0.00    -0.211 N 
ATOM      7  H   UNL     1      -4.448   5.687  -0.617  0.00  0.00    +0.178 HD
ENDROOT
BRANCH   1  10
ATOM      8  C   UNL     1      -2.082   5.643  -0.685  0.00  0.00    +0.068 C 
ATOM      9  C   UNL     1      -2.331   4.172  -0.474  0.00  0.00    +0.070 C 
ATOM     10  N   UNL     1      -3.549   3.726  -0.374  0.00  0.00    -0.184 NA
BRANCH   9  11
ATOM     11  C   UNL     1      -1.200   3.243  -0.381  0.00  0.00    +0.035 A 
ATOM     12  C   UNL     1      -1.210   1.871  -0.197  0.00  0.00    +0.017 A 
ATOM     13  C   UNL     1      -0.004   1.210  -0.138  0.00  0.00    +0.008 A 
ATOM     14  C   UNL     1       1.148   1.917  -0.273  0.00  0.00    +0.046 A 
ATOM     15  S   UNL     1       0.549   3.585  -0.484  0.00  0.00    -0.095 S 
ENDBRANCH   9  11
ENDBRANCH   1  10
BRANCH   6  16
ATOM     16  N   UNL     1      -7.127   6.244  -0.597  0.00  0.00    -0.294 N 
ATOM     17  H   UNL     1      -8.102   6.752  -0.632  0.00  0.00    +0.163 HD
ATOM     18  H   UNL     1      -6.200   6.825  -0.705  0.00  0.00    +0.163 HD
ENDBRANCH   6  16
BRANCH   5  19
ATOM     19  S   UNL     1      -9.833   4.526  -0.287  0.00  0.00    -0.075 S 
BRANCH  19  20
ATOM     20  C   UNL     1     -10.726   2.966  -0.042  0.00  0.00    +0.173 C 
BRANCH  20  21
ATOM     21  C   UNL     1     -12.210   3.232  -0.033  0.00  0.00    +0.227 C 
ATOM     22  O   UNL     1     -12.623   4.363  -0.177  0.00  0.00    -0.275 OA
ATOM     23  N   UNL     1     -13.076   2.214   0.136  0.00  0.00    -0.285 N 
ATOM     24  H   UNL     1     -12.706   1.179   0.180  0.00  0.00    +0.155 HD
BRANCH  23  25
ATOM     25  C   UNL     1     -14.446   2.473   0.256  0.00  0.00    +0.034 A 
ATOM     26  C   UNL     1     -14.882   3.636   0.877  0.00  0.00    +0.025 A 
ATOM     27  C   UNL     1     -16.235   3.892   0.989  0.00  0.00    +0.022 A 
ATOM     28  C   UNL     1     -17.155   2.986   0.493  0.00  0.00    +0.053 A 
ATOM     29  C   UNL     1     -16.723   1.823  -0.121  0.00  0.00    +0.075 A 
ATOM     30  C   UNL     1     -15.372   1.565  -0.241  0.00  0.00    +0.037 A 
ATOM     31 CL   UNL     1     -18.855   3.307   0.642  0.00  0.00    -0.083 Cl
BRANCH  29  32
ATOM     32  C   UNL     1     -17.729   0.839  -0.661  0.00  0.00    +0.419 C 
ATOM     33  F   UNL     1     -17.057  -0.248  -1.232  0.00  0.00    -0.166 F 
ATOM     34  F   UNL     1     -18.544   0.387   0.382  0.00  0.00    -0.166 F 
ATOM     35  F   UNL     1     -18.517   1.463  -1.633  0.00  0.00    -0.166 F 
ENDBRANCH  29  32
ENDBRANCH  23  25
ENDBRANCH  20  21
ENDBRANCH  19  20
ENDBRANCH   5  19
TORSDOF 8
