REMARK  Name = ZINC39443732
REMARK  11 active torsions:
REMARK  status: ('A' for Active; 'I' for Inactive)
REMARK    1  A    between atoms: C_1  and  C_2
REMARK    2  A    between atoms: C_5  and  N_8
REMARK    3  A    between atoms: C_11  and  C_16
REMARK    4  A    between atoms: C_12  and  C_15
REMARK    5  A    between atoms: C_16  and  C_18
REMARK    6  A    between atoms: C_16  and  C_25
REMARK    7  A    between atoms: C_23  and  O_24
REMARK    8  A    between atoms: C_26  and  C_39
REMARK    9  A    between atoms: N_28  and  C_32
REMARK   10  A    between atoms: C_29  and  O_31
REMARK   11  A    between atoms: C_35  and  C_38
REMARK                            x       y       z     vdW  Elec       q    Type
REMARK                         _______ _______ _______ _____ _____    ______ ____
ROOT
ATOM      1  C   UNL     1       0.103  -7.541   1.475  0.00  0.00    +0.091 C 
ENDROOT
BRANCH   1   5
ATOM      2  N   UNL     1       0.192  -4.317  -0.317  0.00  0.00    -0.219 N 
ATOM      3  C   UNL     1       0.294  -5.027   0.826  0.00  0.00    +0.276 A 
ATOM      4  O   UNL     1       0.527  -4.578   1.933  0.00  0.00    -0.266 OA
ATOM      5  C   UNL     1       0.081  -6.388   0.504  0.00  0.00    +0.051 A 
ATOM      6  C   UNL     1      -0.145  -6.475  -0.823  0.00  0.00    +0.039 A 
ATOM      7  N   UNL     1      -0.089  -5.217  -1.353  0.00  0.00    -0.294 N 
ATOM      8  H   UNL     1      -0.219  -4.987  -2.287  0.00  0.00    +0.187 HD
ATOM      9  C   UNL     1      -0.420  -7.743  -1.589  0.00  0.00    +0.065 C 
BRANCH   2  14
ATOM     10  C   UNL     1       0.768   1.303  -0.826  0.00  0.00    +0.044 C 
ATOM     11  C   UNL     1       0.615  -0.190  -0.691  0.00  0.00    -0.050 A 
ATOM     12  C   UNL     1       0.338  -0.960  -1.806  0.00  0.00    +0.005 A 
ATOM     13  C   UNL     1       0.197  -2.328  -1.686  0.00  0.00    +0.028 A 
ATOM     14  C   UNL     1       0.334  -2.932  -0.442  0.00  0.00    +0.067 A 
ATOM     15  C   UNL     1       0.613  -2.156   0.676  0.00  0.00    +0.028 A 
ATOM     16  C   UNL     1       0.757  -0.789   0.547  0.00  0.00    +0.005 A 
ENDBRANCH   2  14
ENDBRANCH   1   5
BRANCH   1  17
ATOM     17  C   UNL     1       1.391  -7.514   2.257  0.00  0.00    +0.008 C 
ATOM     18  C   UNL     1       2.374  -8.384   2.166  0.00  0.00    +0.023 C 
ATOM     19  N   UNL     1       3.415  -8.075   3.021  0.00  0.00    -0.266 N 
ATOM     20  N   UNL     1       3.121  -6.912   3.746  0.00  0.00    -0.221 N 
ATOM     21  C   UNL     1       1.791  -6.479   3.285  0.00  0.00    +0.250 C 
ATOM     22  C   UNL     1       2.365  -9.574   1.242  0.00  0.00    +0.062 C 
ATOM     23  H   UNL     1       4.233  -8.591   3.107  0.00  0.00    +0.170 HD
BRANCH  20  24
ATOM     24  C   UNL     1       3.926  -6.290   4.703  0.00  0.00    +0.051 A 
ATOM     25  C   UNL     1       3.484  -5.138   5.341  0.00  0.00    +0.025 A 
ATOM     26  C   UNL     1       4.281  -4.525   6.288  0.00  0.00    +0.005 A 
ATOM     27  C   UNL     1       5.519  -5.057   6.601  0.00  0.00    -0.050 A 
ATOM     28  C   UNL     1       5.962  -6.204   5.967  0.00  0.00    +0.005 A 
ATOM     29  C   UNL     1       5.167  -6.825   5.024  0.00  0.00    +0.025 A 
ATOM     30  C   UNL     1       6.386  -4.386   7.634  0.00  0.00    +0.044 C 
ENDBRANCH  20  24
BRANCH  21  31
ATOM     31  O   UNL     1       0.867  -6.474   4.374  0.00  0.00    -0.369 OA
ATOM     32  H   UNL     1       1.075  -5.829   5.063  0.00  0.00    +0.212 HD
ENDBRANCH  21  31
ENDBRANCH   1  17
BRANCH   1  33
ATOM     33  C   UNL     1      -1.063  -7.422   2.422  0.00  0.00    +0.006 A 
ATOM     34  C   UNL     1      -1.207  -6.290   3.202  0.00  0.00    +0.008 A 
ATOM     35  C   UNL     1      -2.276  -6.181   4.072  0.00  0.00    +0.001 A 
ATOM     36  C   UNL     1      -3.204  -7.202   4.164  0.00  0.00    +0.004 A 
ATOM     37  C   UNL     1      -3.064  -8.335   3.386  0.00  0.00    +0.046 A 
ATOM     38  C   UNL     1      -1.995  -8.445   2.508  0.00  0.00    +0.121 A 
BRANCH  38  39
ATOM     39  O   UNL     1      -1.858  -9.557   1.738  0.00  0.00    -0.506 OA
ATOM     40  H   UNL     1      -1.340 -10.261   2.151  0.00  0.00    +0.292 HD
ENDBRANCH  38  39
ENDBRANCH   1  33
TORSDOF 7
