REMARK  Name = ZINC57305015
REMARK  8 active torsions:
REMARK  status: ('A' for Active; 'I' for Inactive)
REMARK    1  A    between atoms: C_1  and  C_2
REMARK    2  A    between atoms: C_2  and  N_3
REMARK    3  A    between atoms: N_3  and  C_4
REMARK    4  A    between atoms: N_3  and  C_6
REMARK    5  A    between atoms: C_4  and  C_5
REMARK    6  A    between atoms: C_9  and  C_12
REMARK    7  A    between atoms: N_21  and  C_24
REMARK    8  A    between atoms: C_24  and  C_25
REMARK                            x       y       z     vdW  Elec       q    Type
REMARK                         _______ _______ _______ _____ _____    ______ ____
ROOT
ATOM      1  C   UNL     1       1.646  -6.127   0.636  0.00  0.00    +0.190 C 
ATOM      2  N   UNL     1       2.959  -6.325  -0.001  0.00  0.00    -0.316 N 
ATOM      3  C   UNL     1       3.002  -6.226  -1.370  0.00  0.00    +0.080 A 
ATOM      4  C   UNL     1       1.875  -6.450  -2.176  0.00  0.00    +0.068 A 
ATOM      5  C   UNL     1       2.085  -6.292  -3.602  0.00  0.00    -0.027 A 
ATOM      6  C   UNL     1       3.349  -5.958  -3.953  0.00  0.00    -0.021 A 
ATOM      7  S   UNL     1       4.231  -5.855  -2.422  0.00  0.00    -0.080 S 
ATOM      8  C   UNL     1       3.850  -5.737  -5.345  0.00  0.00    -0.035 C 
ATOM      9  N   UNL     1       2.868  -6.303  -6.288  0.00  0.00    +0.386 N 
ATOM     10  C   UNL     1       1.526  -5.806  -5.959  0.00  0.00    -0.073 C 
ATOM     11  C   UNL     1       1.018  -6.469  -4.674  0.00  0.00    +0.018 C 
ATOM     12  C   UNL     1       0.611  -6.825  -1.500  0.00  0.00    +0.248 C 
ATOM     13  O   UNL     1      -0.356  -7.208  -2.133  0.00  0.00    -0.270 OA
ATOM     14  N   UNL     1       0.577  -6.725  -0.156  0.00  0.00    -0.289 N 
ATOM     15  H   UNL     1       3.755  -6.516   0.520  0.00  0.00    +0.149 HD
ATOM     16  H   UNL     1      -0.202  -7.070   0.309  0.00  0.00    +0.151 HD
ATOM     17  H   UNL     1       2.880  -7.310  -6.221  0.00  0.00    -0.081 HD
ENDROOT
BRANCH   1  21
ATOM     18  C   UNL     1       0.908  -1.939   1.045  0.00  0.00    +0.013 A 
ATOM     19  C   UNL     1      -0.150  -2.816   0.897  0.00  0.00    +0.022 A 
ATOM     20  C   UNL     1       0.088  -4.171   0.765  0.00  0.00    +0.009 A 
ATOM     21  C   UNL     1       1.385  -4.649   0.779  0.00  0.00    -0.009 A 
ATOM     22  C   UNL     1       2.444  -3.772   0.926  0.00  0.00    +0.009 A 
ATOM     23  C   UNL     1       2.205  -2.416   1.054  0.00  0.00    +0.022 A 
BRANCH  18  24
ATOM     24  N   UNL     1       0.667  -0.568   1.179  0.00  0.00    -0.394 NA
ATOM     25  H   UNL     1       1.544  -0.080   1.271  0.00  0.00    +0.126 HD
BRANCH  24  27
ATOM     26  C   UNL     1       0.868  -0.191  -1.233  0.00  0.00    +0.022 C 
ATOM     27  C   UNL     1      -0.044  -0.078  -0.010  0.00  0.00    +0.081 C 
ENDBRANCH  24  27
BRANCH  24  28
ATOM     28  C   UNL     1      -0.154  -0.330   2.373  0.00  0.00    +0.081 C 
ATOM     29  C   UNL     1       0.637  -0.723   3.623  0.00  0.00    +0.022 C 
ENDBRANCH  24  28
ENDBRANCH  18  24
ENDBRANCH   1  21
BRANCH   9  30
ATOM     30  C   UNL     1       3.217  -5.900  -7.657  0.00  0.00    -0.043 C 
BRANCH  30  31
ATOM     31  C   UNL     1       4.538  -6.515  -8.040  0.00  0.00    -0.064 A 
ATOM     32  C   UNL     1       5.716  -5.838  -7.783  0.00  0.00    +0.002 A 
ATOM     33  C   UNL     1       6.928  -6.401  -8.135  0.00  0.00    +0.000 A 
ATOM     34  C   UNL     1       6.963  -7.642  -8.743  0.00  0.00    +0.000 A 
ATOM     35  C   UNL     1       5.786  -8.319  -9.000  0.00  0.00    +0.000 A 
ATOM     36  C   UNL     1       4.574  -7.758  -8.644  0.00  0.00    +0.002 A 
ENDBRANCH  30  31
ENDBRANCH   9  30
TORSDOF 6
