REMARK  Name = ZINC11190057
REMARK  5 active torsions:
REMARK  status: ('A' for Active; 'I' for Inactive)
REMARK    1  A    between atoms: C_3  and  O_11
REMARK    2  A    between atoms: C_4  and  C_8
REMARK    3  A    between atoms: O_11  and  C_12
REMARK    4  A    between atoms: C_12  and  C_13
REMARK    5  A    between atoms: N_15  and  C_16
REMARK                            x       y       z     vdW  Elec       q    Type
REMARK                         _______ _______ _______ _____ _____    ______ ____
ROOT
ATOM      1  O   UNL     1       2.366   1.124   0.009  0.00  0.00    -0.482 OA
ENDROOT
BRANCH   1   4
ATOM      2  C   UNL     1      -1.216   1.751   0.068  0.00  0.00    +0.023 A 
ATOM      3  C   UNL     1      -0.011   1.077   0.048  0.00  0.00    +0.048 A 
ATOM      4  C   UNL     1       1.181   1.785   0.035  0.00  0.00    +0.133 A 
ATOM      5  C   UNL     1       1.157   3.187   0.048  0.00  0.00    +0.079 A 
ATOM      6  C   UNL     1      -0.068   3.856   0.074  0.00  0.00    +0.036 A 
ATOM      7  C   UNL     1      -1.245   3.136   0.087  0.00  0.00    +0.042 A 
ATOM      8 CL   UNL     1      -2.767   3.969   0.120  0.00  0.00    -0.084 Cl
BRANCH   5   9
ATOM      9  C   UNL     1       2.420   3.950   0.035  0.00  0.00    +0.245 C 
ATOM     10  O   UNL     1       3.485   3.364   0.012  0.00  0.00    -0.270 OA
ATOM     11  N   UNL     1       2.393   5.298   0.048  0.00  0.00    -0.325 N 
ATOM     12  H   UNL     1       1.543   5.765   0.066  0.00  0.00    +0.145 HD
ATOM     13  H   UNL     1       3.223   5.800   0.039  0.00  0.00    +0.145 HD
ENDBRANCH   5   9
ENDBRANCH   1   4
BRANCH   1  14
ATOM     14  C   UNL     1       2.312  -0.304  -0.004  0.00  0.00    +0.324 C 
BRANCH  14  15
ATOM     15  C   UNL     1       3.713  -0.859  -0.033  0.00  0.00    +0.255 C 
ATOM     16  O   UNL     1       4.663  -0.106  -0.042  0.00  0.00    -0.272 OA
ATOM     17  N   UNL     1       3.909  -2.192  -0.049  0.00  0.00    -0.281 N 
ATOM     18  H   UNL     1       3.152  -2.795   0.024  0.00  0.00    +0.155 HD
BRANCH  17  19
ATOM     19  C   UNL     1       5.205  -2.708  -0.170  0.00  0.00    +0.052 A 
ATOM     20  C   UNL     1       6.275  -2.044   0.414  0.00  0.00    +0.026 A 
ATOM     21  C   UNL     1       7.553  -2.555   0.293  0.00  0.00    +0.017 A 
ATOM     22  C   UNL     1       7.767  -3.727  -0.410  0.00  0.00    +0.019 A 
ATOM     23  C   UNL     1       6.703  -4.391  -0.994  0.00  0.00    +0.037 A 
ATOM     24  C   UNL     1       5.422  -3.888  -0.871  0.00  0.00    +0.063 A 
ATOM     25 CL   UNL     1       4.086  -4.725  -1.598  0.00  0.00    -0.082 Cl
ATOM     26 BR   UNL     1       9.518  -4.422  -0.574  0.00  0.00    -0.050 Br
ENDBRANCH  17  19
ENDBRANCH  14  15
ENDBRANCH   1  14
TORSDOF 5
