REMARK  Name = ZINC08832978
REMARK  7 active torsions:
REMARK  status: ('A' for Active; 'I' for Inactive)
REMARK    1  A    between atoms: C_1  and  O_2
REMARK    2  A    between atoms: O_2  and  C_3
REMARK    3  A    between atoms: C_4  and  C_11
REMARK    4  A    between atoms: N_13  and  C_14
REMARK    5  A    between atoms: C_14  and  N_16
REMARK    6  A    between atoms: N_16  and  C_17
REMARK    7  A    between atoms: C_26  and  O_27
REMARK                            x       y       z     vdW  Elec       q    Type
REMARK                         _______ _______ _______ _____ _____    ______ ____
ROOT
ATOM      1  C   UNL     1      -3.784  -0.194  -0.319  0.00  0.00    +0.141 C 
ATOM      2  S   UNL     1      -3.766  -1.292  -1.632  0.00  0.00    -0.018 S 
ENDROOT
BRANCH   1   5
ATOM      3  C   UNL     1      -1.604   0.461  -0.837  0.00  0.00    +0.253 C 
ATOM      4  O   UNL     1      -1.592  -0.319  -1.769  0.00  0.00    -0.270 OA
ATOM      5  N   UNL     1      -2.701   0.566  -0.061  0.00  0.00    -0.263 N 
ATOM      6  H   UNL     1      -2.712   1.189   0.682  0.00  0.00    +0.157 HD
BRANCH   3   8
ATOM      7  C   UNL     1       0.724   1.186  -1.360  0.00  0.00    +0.146 A 
ATOM      8  C   UNL     1      -0.420   1.293  -0.555  0.00  0.00    +0.081 A 
ATOM      9  C   UNL     1      -0.430   2.191   0.515  0.00  0.00    +0.032 A 
ATOM     10  C   UNL     1       0.681   2.965   0.773  0.00  0.00    +0.020 A 
ATOM     11  C   UNL     1       1.810   2.857  -0.024  0.00  0.00    +0.034 A 
ATOM     12  C   UNL     1       1.833   1.973  -1.085  0.00  0.00    +0.061 A 
ATOM     13 BR   UNL     1       3.379   1.835  -2.166  0.00  0.00    -0.046 Br
ATOM     14 BR   UNL     1       0.665   4.180   2.223  0.00  0.00    -0.050 Br
BRANCH   7  16
ATOM     15  C   UNL     1       0.300   0.810  -3.667  0.00  0.00    +0.277 C 
ATOM     16  O   UNL     1       0.745   0.318  -2.402  0.00  0.00    -0.493 OA
ENDBRANCH   7  16
ENDBRANCH   3   8
ENDBRANCH   1   5
BRANCH   1  17
ATOM     17  N   UNL     1      -4.881  -0.089   0.457  0.00  0.00    -0.293 N 
ATOM     18  H   UNL     1      -4.877   0.503   1.225  0.00  0.00    +0.154 HD
BRANCH  17  19
ATOM     19  C   UNL     1      -6.026  -0.834   0.154  0.00  0.00    +0.082 A 
ATOM     20  C   UNL     1      -7.212  -0.185  -0.244  0.00  0.00    +0.007 A 
ATOM     21  C   UNL     1      -7.273   1.214  -0.360  0.00  0.00    +0.010 A 
ATOM     22  C   UNL     1      -8.433   1.807  -0.754  0.00  0.00    +0.001 A 
ATOM     23  C   UNL     1      -9.562   1.047  -1.052  0.00  0.00    +0.001 A 
ATOM     24  C   UNL     1      -9.538  -0.310  -0.957  0.00  0.00    +0.008 A 
ATOM     25  C   UNL     1      -8.358  -0.959  -0.552  0.00  0.00    -0.016 A 
ATOM     26  C   UNL     1      -8.299  -2.359  -0.444  0.00  0.00    +0.012 A 
ATOM     27  C   UNL     1      -7.144  -2.963  -0.051  0.00  0.00    +0.048 A 
ATOM     28  C   UNL     1      -6.006  -2.212   0.249  0.00  0.00    +0.139 A 
BRANCH  28  29
ATOM     29  O   UNL     1      -4.866  -2.844   0.639  0.00  0.00    -0.505 OA
ATOM     30  H   UNL     1      -4.757  -2.903   1.598  0.00  0.00    +0.292 HD
ENDBRANCH  28  29
ENDBRANCH  17  19
ENDBRANCH   1  17
TORSDOF 6
