REMARK  Name = ZINC59466901
REMARK  10 active torsions:
REMARK  status: ('A' for Active; 'I' for Inactive)
REMARK    1  A    between atoms: C_1  and  C_2
REMARK    2  A    between atoms: C_3  and  C_28
REMARK    3  A    between atoms: C_4  and  N_8
REMARK    4  A    between atoms: C_6  and  C_7
REMARK    5  A    between atoms: C_9  and  C_10
REMARK    6  A    between atoms: C_13  and  C_16
REMARK    7  A    between atoms: N_17  and  C_18
REMARK    8  A    between atoms: C_20  and  C_27
REMARK    9  A    between atoms: C_21  and  C_26
REMARK   10  A    between atoms: C_22  and  C_23
REMARK                            x       y       z     vdW  Elec       q    Type
REMARK                         _______ _______ _______ _____ _____    ______ ____
ROOT
ATOM      1  C   UNL     1       0.057  -5.254  -2.986  0.00  0.00    -0.007 A 
ATOM      2  C   UNL     1       0.050  -4.812  -4.316  0.00  0.00    +0.010 A 
ATOM      3  C   UNL     1       0.057  -5.718  -5.336  0.00  0.00    +0.010 A 
ATOM      4  C   UNL     1       0.071  -7.091  -5.054  0.00  0.00    -0.007 A 
ATOM      5  C   UNL     1       0.080  -7.533  -3.724  0.00  0.00    +0.010 A 
ATOM      6  C   UNL     1       0.077  -6.627  -2.704  0.00  0.00    +0.010 A 
ENDROOT
BRANCH   1   8
ATOM      7  N   UNL     1       0.031  -2.998  -2.151  0.00  0.00    -0.247 NA
ATOM      8  C   UNL     1       0.050  -4.279  -1.888  0.00  0.00    +0.120 C 
BRANCH   7  12
ATOM      9  C   UNL     1      -0.018   1.503   0.010  0.00  0.00    +0.045 C 
ATOM     10  C   UNL     1       0.002  -0.004   0.002  0.00  0.00    -0.026 A 
ATOM     11  C   UNL     1       0.005  -0.700  -1.204  0.00  0.00    +0.072 A 
ATOM     12  C   UNL     1       0.025  -2.102  -1.142  0.00  0.00    +0.114 A 
ATOM     13  S   UNL     1       0.038  -2.391   0.620  0.00  0.00    -0.074 S 
ATOM     14  C   UNL     1       0.023  -0.692   1.164  0.00  0.00    -0.008 A 
ATOM     15  C   UNL     1       0.030  -0.157   2.573  0.00  0.00    +0.052 C 
BRANCH  11  16
ATOM     16  C   UNL     1      -0.011   0.006  -2.491  0.00  0.00    +0.244 C 
ATOM     17  O   UNL     1       1.036   0.313  -3.030  0.00  0.00    -0.270 OA
ATOM     18  N   UNL     1      -1.186   0.314  -3.075  0.00  0.00    -0.325 N 
ATOM     19  H   UNL     1      -2.020   0.069  -2.646  0.00  0.00    +0.145 HD
ATOM     20  H   UNL     1      -1.197   0.780  -3.926  0.00  0.00    +0.145 HD
ENDBRANCH  11  16
ENDBRANCH   7  12
ENDBRANCH   1   8
BRANCH   4  21
ATOM     21  C   UNL     1       0.078  -8.066  -6.152  0.00  0.00    +0.120 C 
ATOM     22  N   UNL     1       0.091  -9.347  -5.889  0.00  0.00    -0.247 NA
BRANCH  22  23
ATOM     23  C   UNL     1       0.097 -10.243  -6.898  0.00  0.00    +0.114 A 
ATOM     24  S   UNL     1       0.096  -9.954  -8.659  0.00  0.00    -0.074 S 
ATOM     25  C   UNL     1       0.107 -11.653  -9.204  0.00  0.00    -0.008 A 
ATOM     26  C   UNL     1       0.111 -12.341  -8.041  0.00  0.00    -0.026 A 
ATOM     27  C   UNL     1       0.112 -11.645  -6.836  0.00  0.00    +0.072 A 
ATOM     28  C   UNL     1       0.120 -13.848  -8.050  0.00  0.00    +0.045 C 
ATOM     29  C   UNL     1       0.111 -12.188 -10.613  0.00  0.00    +0.052 C 
BRANCH  27  30
ATOM     30  C   UNL     1       0.122 -12.351  -5.549  0.00  0.00    +0.244 C 
ATOM     31  O   UNL     1      -0.927 -12.655  -5.013  0.00  0.00    -0.270 OA
ATOM     32  N   UNL     1       1.295 -12.663  -4.961  0.00  0.00    -0.325 N 
ATOM     33  H   UNL     1       2.131 -12.421  -5.389  0.00  0.00    +0.145 HD
ATOM     34  H   UNL     1       1.302 -13.129  -4.111  0.00  0.00    +0.145 HD
ENDBRANCH  27  30
ENDBRANCH  22  23
ENDBRANCH   4  21
TORSDOF 6
