REMARK  Name = ZINC44077776
REMARK  9 active torsions:
REMARK  status: ('A' for Active; 'I' for Inactive)
REMARK    1  A    between atoms: C_1  and  C_2
REMARK    2  A    between atoms: C_5  and  O_26
REMARK    3  A    between atoms: C_6  and  C_8
REMARK    4  A    between atoms: C_8  and  C_10
REMARK    5  A    between atoms: C_8  and  N_11
REMARK    6  A    between atoms: N_14  and  C_15
REMARK    7  A    between atoms: C_17  and  N_22
REMARK    8  A    between atoms: C_23  and  C_25
REMARK    9  A    between atoms: O_26  and  C_27
REMARK                            x       y       z     vdW  Elec       q    Type
REMARK                         _______ _______ _______ _____ _____    ______ ____
ROOT
ATOM      1  N   UNL     1       1.470  -1.498   3.220  0.00  0.00    -0.292 N 
ATOM      2  C   UNL     1       1.927  -2.190   4.282  0.00  0.00    +0.304 C 
ATOM      3  O   UNL     1       2.082  -3.394   4.204  0.00  0.00    -0.252 OA
ATOM      4  N   UNL     1       2.213  -1.548   5.433  0.00  0.00    -0.267 N 
ATOM      5  H   UNL     1       1.347  -0.538   3.283  0.00  0.00    +0.151 HD
ATOM      6  H   UNL     1       2.012  -0.604   5.523  0.00  0.00    +0.156 HD
ENDROOT
BRANCH   4   7
ATOM      7  C   UNL     1       2.799  -2.245   6.497  0.00  0.00    +0.072 A 
ATOM      8  C   UNL     1       3.461  -3.441   6.263  0.00  0.00    +0.049 A 
ATOM      9  C   UNL     1       4.041  -4.128   7.319  0.00  0.00    +0.035 A 
ATOM     10  C   UNL     1       3.958  -3.618   8.608  0.00  0.00    +0.026 A 
ATOM     11  C   UNL     1       3.298  -2.426   8.840  0.00  0.00    +0.042 A 
ATOM     12  C   UNL     1       2.723  -1.736   7.789  0.00  0.00    +0.145 A 
ATOM     13  F   UNL     1       2.083  -0.568   8.017  0.00  0.00    -0.204 F 
BRANCH   9  14
ATOM     14  N   UNL     1       4.710  -5.336   7.086  0.00  0.00    -0.286 N 
ATOM     15  C   UNL     1       5.816  -5.642   7.794  0.00  0.00    +0.214 C 
ATOM     16  O   UNL     1       6.182  -4.913   8.691  0.00  0.00    -0.276 OA
ATOM     17  C   UNL     1       6.596  -6.890   7.471  0.00  0.00    +0.109 C 
ATOM     18  H   UNL     1       4.378  -5.953   6.415  0.00  0.00    +0.155 HD
ENDBRANCH   9  14
ENDBRANCH   4   7
BRANCH   1  19
ATOM     19  C   UNL     1       1.160  -2.196   1.970  0.00  0.00    +0.105 C 
ATOM     20  C   UNL     1      -0.289  -2.686   2.005  0.00  0.00    +0.033 C 
BRANCH  19  26
ATOM     21  C   UNL     1       1.209   2.458   0.135  0.00  0.00    +0.044 C 
ATOM     22  C   UNL     1       1.367   0.974  -0.070  0.00  0.00    -0.050 A 
ATOM     23  C   UNL     1       1.681   0.480  -1.323  0.00  0.00    +0.007 A 
ATOM     24  C   UNL     1       1.827  -0.880  -1.514  0.00  0.00    +0.046 A 
ATOM     25  C   UNL     1       1.659  -1.751  -0.447  0.00  0.00    +0.125 A 
ATOM     26  C   UNL     1       1.344  -1.253   0.809  0.00  0.00    +0.014 A 
ATOM     27  C   UNL     1       1.204   0.109   0.996  0.00  0.00    +0.012 A 
BRANCH  25  28
ATOM     28  O   UNL     1       1.801  -3.090  -0.632  0.00  0.00    -0.495 OA
ATOM     29  C   UNL     1       2.125  -3.531  -1.952  0.00  0.00    +0.277 C 
ENDBRANCH  25  28
ENDBRANCH  19  26
ENDBRANCH   1  19
TORSDOF 5
