REMARK  Name = ZINC08214749
REMARK  11 active torsions:
REMARK  status: ('A' for Active; 'I' for Inactive)
REMARK    1  A    between atoms: C_1  and  C_2
REMARK    2  A    between atoms: C_4  and  O_49
REMARK    3  A    between atoms: C_6  and  O_47
REMARK    4  A    between atoms: C_8  and  O_46
REMARK    5  A    between atoms: C_10  and  O_13
REMARK    6  A    between atoms: O_13  and  C_14
REMARK    7  A    between atoms: C_18  and  C_44
REMARK    8  A    between atoms: C_30  and  C_43
REMARK    9  A    between atoms: C_31  and  O_42
REMARK   10  A    between atoms: C_34  and  C_36
REMARK   11  A    between atoms: O_47  and  C_48
REMARK                            x       y       z     vdW  Elec       q    Type
REMARK                         _______ _______ _______ _____ _____    ______ ____
ROOT
ATOM      1  C   UNL     1       2.101   7.749  -0.013  0.00  0.00    +0.122 C 
ATOM      2  C   UNL     1       1.799   7.110   1.343  0.00  0.00    +0.032 C 
ATOM      3  C   UNL     1       0.903   5.885   1.141  0.00  0.00    +0.017 C 
ATOM      4  C   UNL     1      -0.406   6.316   0.478  0.00  0.00    +0.032 C 
ATOM      5  C   UNL     1      -0.106   6.957  -0.878  0.00  0.00    +0.005 C 
ATOM      6  C   UNL     1       0.792   8.180  -0.678  0.00  0.00    +0.036 C 
ATOM      7  C   UNL     1       0.606   5.941  -1.773  0.00  0.00    +0.005 C 
ATOM      8  C   UNL     1      -0.300   4.726  -1.979  0.00  0.00    +0.007 C 
ATOM      9  C   UNL     1      -0.625   4.076  -0.631  0.00  0.00    +0.025 C 
ATOM     10  C   UNL     1      -1.305   5.093   0.282  0.00  0.00    +0.008 C 
ATOM     11  C   UNL     1      -1.555   4.438   1.646  0.00  0.00    +0.005 C 
ATOM     12  C   UNL     1      -2.520   3.269   1.452  0.00  0.00    +0.010 C 
ATOM     13  C   UNL     1      -1.956   2.246   0.493  0.00  0.00    +0.004 C 
ATOM     14  C   UNL     1      -1.525   2.857  -0.852  0.00  0.00    +0.075 C 
ATOM     15  C   UNL     1      -0.613   1.733  -1.429  0.00  0.00    +0.036 C 
ATOM     16  C   UNL     1       0.166   1.221  -0.198  0.00  0.00    +0.011 C 
ATOM     17  C   UNL     1      -0.695   1.558   1.037  0.00  0.00    +0.027 C 
ATOM     18  C   UNL     1      -3.011   1.169   0.235  0.00  0.00    +0.014 C 
ENDROOT
BRANCH  17  19
ATOM     19  C   UNL     1      -1.067   0.296   1.772  0.00  0.00    -0.022 C 
ATOM     20  C   UNL     1      -0.986  -0.946   1.302  0.00  0.00    +0.094 C 
ATOM     21  C   UNL     1      -1.442  -1.888   2.329  0.00  0.00    +0.332 C 
ATOM     22  O   UNL     1      -1.486  -3.095   2.197  0.00  0.00    -0.246 OA
ATOM     23  O   UNL     1      -1.806  -1.217   3.438  0.00  0.00    -0.457 OA
ATOM     24  C   UNL     1      -1.596   0.200   3.183  0.00  0.00    +0.264 C 
ENDBRANCH  17  19
BRANCH  14  25
ATOM     25  O   UNL     1      -2.640   3.142  -1.699  0.00  0.00    -0.388 OA
ATOM     26  H   UNL     1      -2.395   3.460  -2.579  0.00  0.00    +0.210 HD
ENDBRANCH  14  25
BRANCH   4  27
ATOM     27  C   UNL     1      -1.108   7.318   1.358  0.00  0.00    +0.230 C 
ATOM     28  O   UNL     1      -2.212   7.078   1.784  0.00  0.00    -0.300 OA
ENDBRANCH   4  27
BRANCH   1  29
ATOM     29  O   UNL     1       2.938   8.892   0.174  0.00  0.00    -0.345 OA
BRANCH  29  35
ATOM     30  C   UNL     1       6.372   7.559  -2.816  0.00  0.00    +0.041 C 
ATOM     31  C   UNL     1       6.093   7.928  -1.357  0.00  0.00    +0.149 C 
ATOM     32  C   UNL     1       6.955   9.130  -0.961  0.00  0.00    +0.174 C 
ATOM     33  C   UNL     1       6.627   9.531   0.480  0.00  0.00    +0.182 C 
ATOM     34  C   UNL     1       5.128   9.830   0.587  0.00  0.00    +0.201 C 
ATOM     35  C   UNL     1       4.337   8.601   0.131  0.00  0.00    +0.282 C 
ATOM     36  O   UNL     1       4.712   8.263  -1.206  0.00  0.00    -0.343 OA
BRANCH  34  37
ATOM     37  O   UNL     1       4.797  10.135   1.943  0.00  0.00    -0.384 OA
ATOM     38  H   UNL     1       3.861  10.330   2.085  0.00  0.00    +0.210 HD
ENDBRANCH  34  37
BRANCH  33  39
ATOM     39  O   UNL     1       7.373  10.697   0.834  0.00  0.00    -0.374 OA
ATOM     40  C   UNL     1       7.688  10.786   2.225  0.00  0.00    +0.194 C 
ENDBRANCH  33  39
BRANCH  32  41
ATOM     41  O   UNL     1       8.337   8.780  -1.057  0.00  0.00    -0.387 OA
ATOM     42  H   UNL     1       8.615   8.515  -1.944  0.00  0.00    +0.210 HD
ENDBRANCH  32  41
ENDBRANCH  29  35
ENDBRANCH   1  29
TORSDOF 8
