REMARK  Name = ZINC19890970
REMARK  7 active torsions:
REMARK  status: ('A' for Active; 'I' for Inactive)
REMARK    1  A    between atoms: C_1  and  C_2
REMARK    2  A    between atoms: C_5  and  S_8
REMARK    3  A    between atoms: S_8  and  C_9
REMARK    4  A    between atoms: C_9  and  C_10
REMARK    5  A    between atoms: C_15  and  N_17
REMARK    6  A    between atoms: N_20  and  C_21
REMARK    7  A    between atoms: C_26  and  C_27
REMARK                            x       y       z     vdW  Elec       q    Type
REMARK                         _______ _______ _______ _____ _____    ______ ____
ROOT
ATOM      1  N   UNL     1      -2.219  -9.301   1.703  0.00  0.00    -0.179 NA
ATOM      2  C   UNL     1      -2.110 -10.607   1.533  0.00  0.00    +0.203 C 
ATOM      3  N   UNL     1      -0.970 -11.253   1.919  0.00  0.00    -0.369 N 
ATOM      4  N   UNL     1      -3.138 -11.312   0.971  0.00  0.00    -0.326 N 
ATOM      5  H   UNL     1      -1.022 -12.147   2.293  0.00  0.00    +0.159 HD
ATOM      6  H   UNL     1      -3.024 -12.253   0.763  0.00  0.00    +0.169 HD
ATOM      7  H   UNL     1      -0.109 -10.818   1.820  0.00  0.00    +0.159 HD
ENDROOT
BRANCH   1  13
ATOM      8  C   UNL     1      -0.377  -6.571   3.135  0.00  0.00    +0.034 A 
ATOM      9  C   UNL     1       0.609  -7.243   3.765  0.00  0.00    +0.094 A 
ATOM     10  C   UNL     1       0.633  -8.661   3.692  0.00  0.00    +0.275 A 
ATOM     11  O   UNL     1       1.516  -9.290   4.256  0.00  0.00    -0.266 OA
ATOM     12  N   UNL     1      -0.316  -9.305   3.003  0.00  0.00    -0.173 NA
ATOM     13  C   UNL     1      -1.278  -8.632   2.389  0.00  0.00    +0.234 A 
ATOM     14  N   UNL     1      -1.329  -7.268   2.446  0.00  0.00    -0.327 N 
ATOM     15  H   UNL     1      -2.043  -6.792   1.994  0.00  0.00    +0.169 HD
BRANCH   8  16
ATOM     16  C   UNL     1      -0.430  -5.066   3.195  0.00  0.00    +0.127 C 
BRANCH  16  17
ATOM     17  S   UNL     1       0.106  -4.378   1.604  0.00  0.00    -0.119 S 
BRANCH  17  22
ATOM     18  C   UNL     1      -0.296   1.594   2.385  0.00  0.00    +0.044 C 
ATOM     19  C   UNL     1      -0.195   0.103   2.190  0.00  0.00    -0.050 A 
ATOM     20  C   UNL     1       0.237  -0.407   0.979  0.00  0.00    +0.004 A 
ATOM     21  C   UNL     1       0.330  -1.773   0.797  0.00  0.00    +0.015 A 
ATOM     22  C   UNL     1      -0.010  -2.635   1.832  0.00  0.00    +0.008 A 
ATOM     23  C   UNL     1      -0.443  -2.119   3.048  0.00  0.00    +0.015 A 
ATOM     24  C   UNL     1      -0.529  -0.752   3.224  0.00  0.00    +0.004 A 
ENDBRANCH  17  22
ENDBRANCH  16  17
ENDBRANCH   8  16
ENDBRANCH   1  13
BRANCH   4  25
ATOM     25  C   UNL     1      -4.352 -10.678   0.697  0.00  0.00    +0.050 A 
ATOM     26  C   UNL     1      -4.723  -9.547   1.410  0.00  0.00    +0.026 A 
ATOM     27  C   UNL     1      -5.924  -8.920   1.137  0.00  0.00    +0.002 A 
ATOM     28  C   UNL     1      -6.762  -9.415   0.153  0.00  0.00    +0.001 A 
ATOM     29  C   UNL     1      -6.406 -10.539  -0.564  0.00  0.00    +0.010 A 
ATOM     30  C   UNL     1      -5.195 -11.176  -0.302  0.00  0.00    +0.006 A 
BRANCH  30  31
ATOM     31  C   UNL     1      -4.805 -12.381  -1.074  0.00  0.00    -0.016 A 
ATOM     32  C   UNL     1      -3.538 -12.462  -1.651  0.00  0.00    +0.008 A 
ATOM     33  C   UNL     1      -3.180 -13.586  -2.368  0.00  0.00    +0.001 A 
ATOM     34  C   UNL     1      -4.075 -14.630  -2.514  0.00  0.00    +0.000 A 
ATOM     35  C   UNL     1      -5.333 -14.555  -1.944  0.00  0.00    +0.001 A 
ATOM     36  C   UNL     1      -5.700 -13.438  -1.221  0.00  0.00    +0.008 A 
ENDBRANCH  30  31
ENDBRANCH   4  25
TORSDOF 6
