REMARK  Name = ZINC04747983
REMARK  5 active torsions:
REMARK  status: ('A' for Active; 'I' for Inactive)
REMARK    1  A    between atoms: C_1  and  C_2
REMARK    2  A    between atoms: C_6  and  O_24
REMARK    3  A    between atoms: C_8  and  C_23
REMARK    4  A    between atoms: C_9  and  O_22
REMARK    5  A    between atoms: C_16  and  C_21
REMARK                            x       y       z     vdW  Elec       q    Type
REMARK                         _______ _______ _______ _____ _____    ______ ____
ROOT
ATOM      1  C   UNL     1      -0.860   1.573   1.155  0.00  0.00    +0.010 C 
ATOM      2  C   UNL     1      -0.059   1.095  -0.069  0.00  0.00    +0.022 C 
ATOM      3  C   UNL     1      -0.777   1.630  -1.318  0.00  0.00    +0.009 C 
ATOM      4  C   UNL     1       0.015   1.442  -2.600  0.00  0.00    +0.032 C 
ATOM      5  C   UNL     1       1.461   1.933  -2.482  0.00  0.00    +0.123 C 
ATOM      6  C   UNL     1       2.115   1.241  -1.284  0.00  0.00    +0.026 C 
ATOM      7  C   UNL     1       1.340   1.677  -0.030  0.00  0.00    +0.113 C 
ATOM      8  C   UNL     1       2.176   1.478   1.186  0.00  0.00    +0.213 C 
ATOM      9  C   UNL     1       3.246   0.373   1.023  0.00  0.00    +0.046 C 
ATOM     10  C   UNL     1       4.241   0.736  -0.051  0.00  0.00    +0.009 C 
ATOM     11  C   UNL     1       3.581   1.624  -1.117  0.00  0.00    +0.012 C 
ATOM     12  C   UNL     1       3.812   0.391   2.460  0.00  0.00    +0.101 C 
ATOM     13  C   UNL     1       2.607   0.832   3.287  0.00  0.00    +0.311 C 
ATOM     14  O   UNL     1       2.580   0.946   4.487  0.00  0.00    -0.251 OA
ATOM     15  O   UNL     1       1.567   1.077   2.441  0.00  0.00    -0.458 OA
ATOM     16  C   UNL     1       4.271  -1.007   2.869  0.00  0.00    +0.019 C 
ATOM     17  C   UNL     1       2.018  -0.264  -1.523  0.00  0.00    +0.017 C 
ENDROOT
BRANCH   7  18
ATOM     18  O   UNL     1       1.167   3.116  -0.143  0.00  0.00    -0.384 OA
ATOM     19  H   UNL     1       0.639   3.506   0.566  0.00  0.00    +0.210 HD
ENDBRANCH   7  18
BRANCH   5  20
ATOM     20  O   UNL     1       2.182   1.592  -3.672  0.00  0.00    -0.391 OA
ATOM     21  H   UNL     1       1.827   1.993  -4.476  0.00  0.00    +0.210 HD
ENDBRANCH   5  20
TORSDOF 2
