REMARK  Name = ZINC32125207
REMARK  9 active torsions:
REMARK  status: ('A' for Active; 'I' for Inactive)
REMARK    1  A    between atoms: C_1  and  C_2
REMARK    2  A    between atoms: C_2  and  C_3
REMARK    3  A    between atoms: C_3  and  O_4
REMARK    4  A    between atoms: O_4  and  C_5
REMARK    5  A    between atoms: C_8  and  C_11
REMARK    6  A    between atoms: N_13  and  C_14
REMARK    7  A    between atoms: C_14  and  N_16
REMARK    8  A    between atoms: N_16  and  C_17
REMARK    9  A    between atoms: C_18  and  C_27
REMARK                            x       y       z     vdW  Elec       q    Type
REMARK                         _______ _______ _______ _____ _____    ______ ____
ROOT
ATOM      1  N   UNL     1       3.627  -4.815  -0.058  0.00  0.00    -0.291 N 
ATOM      2  H   UNL     1       4.570  -4.249  -0.064  0.00  0.00    +0.154 HD
ENDROOT
BRANCH   1   3
ATOM      3  C   UNL     1       3.650  -6.201  -0.065  0.00  0.00    +0.084 A 
ATOM      4  C   UNL     1       4.750  -7.044  -0.086  0.00  0.00    +0.068 A 
ATOM      5  C   UNL     1       4.503  -8.480  -0.081  0.00  0.00    -0.023 A 
ATOM      6  C   UNL     1       3.200  -8.833  -0.074  0.00  0.00    -0.004 A 
ATOM      7  S   UNL     1       2.312  -7.300  -0.058  0.00  0.00    -0.077 S 
ATOM      8  C   UNL     1       2.627 -10.216  -0.094  0.00  0.00    +0.043 C 
ATOM      9  C   UNL     1       3.325 -11.069   0.974  0.00  0.00    +0.005 C 
ATOM     10  C   UNL     1       4.549 -11.726   0.342  0.00  0.00    +0.001 C 
ATOM     11  C   UNL     1       5.151 -10.805  -0.718  0.00  0.00    +0.005 C 
ATOM     12  C   UNL     1       5.631  -9.505  -0.082  0.00  0.00    +0.037 C 
BRANCH   4  13
ATOM     13  C   UNL     1       6.115  -6.510  -0.107  0.00  0.00    +0.244 C 
ATOM     14  O   UNL     1       6.699  -6.291   0.938  0.00  0.00    -0.270 OA
ATOM     15  N   UNL     1       6.723  -6.260  -1.284  0.00  0.00    -0.325 N 
ATOM     16  H   UNL     1       7.747  -5.859  -1.300  0.00  0.00    +0.145 HD
ATOM     17  H   UNL     1       6.194  -6.458  -2.228  0.00  0.00    +0.145 HD
ENDBRANCH   4  13
ENDBRANCH   1   3
BRANCH   1  18
ATOM     18  C   UNL     1       2.449  -4.161  -0.043  0.00  0.00    +0.141 C 
ATOM     19  S   UNL     1       0.981  -5.042  -0.033  0.00  0.00    -0.018 S 
BRANCH  18  22
ATOM     20  C   UNL     1       1.248  -2.159  -0.021  0.00  0.00    +0.250 C 
ATOM     21  O   UNL     1       0.205  -2.785  -0.014  0.00  0.00    -0.270 OA
ATOM     22  N   UNL     1       2.426  -2.814  -0.036  0.00  0.00    -0.264 N 
ATOM     23  H   UNL     1       3.369  -2.248  -0.042  0.00  0.00    +0.157 HD
BRANCH  20  27
ATOM     24  C   UNL     1       1.177   2.086   0.002  0.00  0.00    +0.121 A 
ATOM     25  C   UNL     1      -0.017   1.373   0.010  0.00  0.00    +0.046 A 
ATOM     26  C   UNL     1       0.002  -0.004   0.002  0.00  0.00    +0.016 A 
ATOM     27  C   UNL     1       1.223  -0.684  -0.013  0.00  0.00    +0.037 A 
ATOM     28  C   UNL     1       2.420   0.037  -0.021  0.00  0.00    +0.016 A 
ATOM     29  C   UNL     1       2.393   1.413  -0.013  0.00  0.00    +0.046 A 
BRANCH  24  30
ATOM     30  O   UNL     1       1.154   3.443   0.009  0.00  0.00    -0.492 OA
BRANCH  30  31
ATOM     31  C   UNL     1       2.416   4.113   0.001  0.00  0.00    +0.229 C 
BRANCH  31  33
ATOM     32  C   UNL     1       3.541   6.343   0.002  0.00  0.00    +0.007 C 
ATOM     33  C   UNL     1       2.190   5.626   0.011  0.00  0.00    +0.038 C 
ENDBRANCH  31  33
ENDBRANCH  30  31
ENDBRANCH  24  30
ENDBRANCH  20  27
ENDBRANCH  18  22
ENDBRANCH   1  18
TORSDOF 8
