REMARK  Name = ZINC03252028
REMARK  5 active torsions:
REMARK  status: ('A' for Active; 'I' for Inactive)
REMARK    1  A    between atoms: C_3  and  C_21
REMARK    2  A    between atoms: C_5  and  C_11
REMARK    3  A    between atoms: C_16  and  O_17
REMARK    4  A    between atoms: O_17  and  C_18
REMARK    5  A    between atoms: N_23  and  C_24
REMARK                            x       y       z     vdW  Elec       q    Type
REMARK                         _______ _______ _______ _____ _____    ______ ____
ROOT
ATOM      1  C   UNL     1       5.992  -2.884  -1.438  0.00  0.00    +0.029 C 
ATOM      2  C   UNL     1       6.062  -1.569  -1.518  0.00  0.00    +0.016 C 
ATOM      3  C   UNL     1       6.083  -0.701  -0.276  0.00  0.00    +0.143 C 
ATOM      4  C   UNL     1       7.234   0.301  -0.431  0.00  0.00    +0.123 C 
ATOM      5  N   UNL     1       7.146   0.946  -1.741  0.00  0.00    -0.318 N 
ATOM      6  C   UNL     1       6.647   0.322  -2.817  0.00  0.00    +0.135 C 
ATOM      7  S   UNL     1       6.679   1.128  -4.326  0.00  0.00    -0.019 S 
ATOM      8  N   UNL     1       6.121  -0.916  -2.754  0.00  0.00    -0.300 N 
ATOM      9  H   UNL     1       7.460   1.859  -1.835  0.00  0.00    +0.148 HD
ATOM     10  H   UNL     1       5.787  -1.349  -3.555  0.00  0.00    +0.154 HD
ENDROOT
BRANCH   4  11
ATOM     11  C   UNL     1       8.550  -0.423  -0.315  0.00  0.00    +0.016 A 
ATOM     12  C   UNL     1       9.255  -0.763  -1.453  0.00  0.00    +0.009 A 
ATOM     13  C   UNL     1      10.465  -1.423  -1.347  0.00  0.00    +0.001 A 
ATOM     14  C   UNL     1      10.968  -1.754  -0.102  0.00  0.00    +0.004 A 
ATOM     15  C   UNL     1      10.265  -1.420   1.039  0.00  0.00    +0.046 A 
ATOM     16  C   UNL     1       9.053  -0.753   0.935  0.00  0.00    +0.132 A 
BRANCH  16  17
ATOM     17  O   UNL     1       8.359  -0.423   2.057  0.00  0.00    -0.434 OA
BRANCH  17  18
ATOM     18  C   UNL     1       8.937  -0.794   3.310  0.00  0.00    +0.541 C 
ATOM     19  F   UNL     1       9.091  -2.184   3.358  0.00  0.00    -0.166 F 
ATOM     20  F   UNL     1      10.187  -0.181   3.447  0.00  0.00    -0.166 F 
ENDBRANCH  17  18
ENDBRANCH  16  17
ENDBRANCH   4  11
BRANCH   3  21
ATOM     21  C   UNL     1       4.776   0.037  -0.145  0.00  0.00    +0.228 C 
ATOM     22  O   UNL     1       4.762   1.250  -0.139  0.00  0.00    -0.275 OA
ATOM     23  N   UNL     1       3.622  -0.651  -0.036  0.00  0.00    -0.285 N 
ATOM     24  H   UNL     1       3.638  -1.618   0.035  0.00  0.00    +0.155 HD
BRANCH  23  25
ATOM     25  C   UNL     1       2.399   0.031  -0.026  0.00  0.00    +0.033 A 
ATOM     26  C   UNL     1       2.246   1.194  -0.768  0.00  0.00    +0.024 A 
ATOM     27  C   UNL     1       1.038   1.865  -0.756  0.00  0.00    +0.017 A 
ATOM     28  C   UNL     1      -0.017   1.379  -0.006  0.00  0.00    +0.018 A 
ATOM     29  C   UNL     1       0.133   0.219   0.734  0.00  0.00    +0.017 A 
ATOM     30  C   UNL     1       1.338  -0.456   0.726  0.00  0.00    +0.024 A 
ATOM     31 BR   UNL     1      -1.666   2.304   0.014  0.00  0.00    -0.050 Br
ENDBRANCH  23  25
ENDBRANCH   3  21
TORSDOF 5
