REMARK  Name = ZINC01123693
REMARK  8 active torsions:
REMARK  status: ('A' for Active; 'I' for Inactive)
REMARK    1  A    between atoms: C_4  and  C_7
REMARK    2  A    between atoms: C_7  and  C_8
REMARK    3  A    between atoms: C_7  and  C_14
REMARK    4  A    between atoms: N_16  and  C_17
REMARK    5  A    between atoms: C_17  and  N_19
REMARK    6  A    between atoms: N_19  and  C_20
REMARK    7  A    between atoms: C_23  and  S_26
REMARK    8  A    between atoms: S_26  and  N_29
REMARK                            x       y       z     vdW  Elec       q    Type
REMARK                         _______ _______ _______ _____ _____    ______ ____
ROOT
ATOM      1  C   UNL     1      -0.470   6.027  -1.276  0.00  0.00    +0.230 C 
ATOM      2  O   UNL     1      -1.438   6.756  -1.238  0.00  0.00    -0.274 OA
ATOM      3  N   UNL     1      -0.096   5.464  -2.442  0.00  0.00    -0.267 N 
ATOM      4  H   UNL     1       0.678   4.880  -2.472  0.00  0.00    +0.157 HD
ENDROOT
BRANCH   3   5
ATOM      5  C   UNL     1      -0.797   5.712  -3.566  0.00  0.00    +0.141 C 
ATOM      6  S   UNL     1      -2.163   6.742  -3.512  0.00  0.00    -0.018 S 
BRANCH   5   7
ATOM      7  N   UNL     1      -0.423   5.150  -4.732  0.00  0.00    -0.297 N 
ATOM      8  H   UNL     1       0.301   4.504  -4.748  0.00  0.00    +0.154 HD
BRANCH   7   9
ATOM      9  C   UNL     1      -1.078   5.496  -5.918  0.00  0.00    +0.033 A 
ATOM     10  C   UNL     1      -1.395   4.516  -6.850  0.00  0.00    +0.025 A 
ATOM     11  C   UNL     1      -2.047   4.861  -8.017  0.00  0.00    +0.030 A 
ATOM     12  C   UNL     1      -2.375   6.181  -8.264  0.00  0.00    +0.105 A 
ATOM     13  C   UNL     1      -2.056   7.160  -7.341  0.00  0.00    +0.030 A 
ATOM     14  C   UNL     1      -1.409   6.821  -6.169  0.00  0.00    +0.025 A 
BRANCH  12  15
ATOM     15  S   UNL     1      -3.201   6.618  -9.758  0.00  0.00    +0.056 S 
ATOM     16  O   UNL     1      -3.873   5.449 -10.207  0.00  0.00    -0.153 OA
ATOM     17  O   UNL     1      -3.883   7.838  -9.503  0.00  0.00    -0.153 OA
BRANCH  15  18
ATOM     18  N   UNL     1      -2.034   6.954 -10.883  0.00  0.00    -0.204 NA
ATOM     19  H   UNL     1      -1.096   6.887 -10.644  0.00  0.00    +0.144 HD
ATOM     20  H   UNL     1      -2.288   7.217 -11.782  0.00  0.00    +0.144 HD
ENDBRANCH  15  18
ENDBRANCH  12  15
ENDBRANCH   7   9
ENDBRANCH   5   7
ENDBRANCH   3   5
BRANCH   1  21
ATOM     21  C   UNL     1       0.314   5.749  -0.019  0.00  0.00    +0.135 C 
BRANCH  21  25
ATOM     22  C   UNL     1       0.261   1.556   0.795  0.00  0.00    +0.000 A 
ATOM     23  C   UNL     1      -0.922   2.227   0.548  0.00  0.00    +0.000 A 
ATOM     24  C   UNL     1      -0.905   3.584   0.289  0.00  0.00    +0.005 A 
ATOM     25  C   UNL     1       0.295   4.269   0.268  0.00  0.00    -0.031 A 
ATOM     26  C   UNL     1       1.479   3.598   0.510  0.00  0.00    +0.005 A 
ATOM     27  C   UNL     1       1.462   2.241   0.773  0.00  0.00    +0.000 A 
ENDBRANCH  21  25
BRANCH  21  28
ATOM     28  C   UNL     1      -0.308   6.492   1.135  0.00  0.00    -0.031 A 
ATOM     29  C   UNL     1       0.468   7.330   1.916  0.00  0.00    +0.005 A 
ATOM     30  C   UNL     1      -0.103   8.015   2.971  0.00  0.00    +0.000 A 
ATOM     31  C   UNL     1      -1.447   7.856   3.253  0.00  0.00    +0.000 A 
ATOM     32  C   UNL     1      -2.221   7.014   2.476  0.00  0.00    +0.000 A 
ATOM     33  C   UNL     1      -1.651   6.333   1.417  0.00  0.00    +0.005 A 
ENDBRANCH  21  28
ENDBRANCH   1  21
TORSDOF 8
