REMARK  Name = ZINC41065706
REMARK  3 active torsions:
REMARK  status: ('A' for Active; 'I' for Inactive)
REMARK    1  A    between atoms: C_6  and  N_7
REMARK    2  A    between atoms: N_7  and  S_8
REMARK    3  A    between atoms: S_8  and  C_11
REMARK                            x       y       z     vdW  Elec       q    Type
REMARK                         _______ _______ _______ _____ _____    ______ ____
ROOT
ATOM      1  S   UNL     1      -1.176  -2.377   0.001  0.00  0.00    +0.095 S 
ATOM      2  O   UNL     1      -0.632  -2.769  -1.252  0.00  0.00    -0.148 OA
ATOM      3  O   UNL     1      -0.607  -2.782   1.239  0.00  0.00    -0.148 OA
ENDROOT
BRANCH   1   4
ATOM      4  C   UNL     1      -2.852  -2.922   0.015  0.00  0.00    +0.148 A 
ATOM      5  C   UNL     1      -3.372  -3.619  -1.065  0.00  0.00    +0.048 A 
ATOM      6  C   UNL     1      -4.696  -4.029  -1.010  0.00  0.00    +0.038 A 
ATOM      7  C   UNL     1      -5.448  -3.731   0.112  0.00  0.00    +0.127 A 
ATOM      8  N   UNL     1      -4.920  -3.066   1.120  0.00  0.00    -0.240 NA
ATOM      9  C   UNL     1      -3.663  -2.665   1.105  0.00  0.00    +0.156 A 
ATOM     10 CL   UNL     1      -3.022  -1.800   2.467  0.00  0.00    -0.060 Cl
ATOM     11 BR   UNL     1      -5.463  -4.983  -2.452  0.00  0.00    -0.049 Br
ENDBRANCH   1   4
BRANCH   1  12
ATOM     12  N   UNL     1      -1.200  -0.721   0.010  0.00  0.00    -0.095 NA
BRANCH  12  18
ATOM     13  C   UNL     1      -0.017   1.384   0.010  0.00  0.00    +0.032 A 
ATOM     14  C   UNL     1       1.171   2.091   0.002  0.00  0.00    +0.043 A 
ATOM     15  C   UNL     1       2.380   1.418  -0.013  0.00  0.00    +0.161 A 
ATOM     16  C   UNL     1       2.403   0.032  -0.021  0.00  0.00    +0.195 A 
ATOM     17  C   UNL     1       1.216  -0.681  -0.013  0.00  0.00    +0.186 A 
ATOM     18  C   UNL     1       0.002  -0.004   0.002  0.00  0.00    +0.112 A 
ATOM     19  F   UNL     1       1.238  -2.032  -0.021  0.00  0.00    -0.200 F 
ATOM     20  F   UNL     1       3.585  -0.624  -0.037  0.00  0.00    -0.199 F 
ATOM     21  F   UNL     1       3.538   2.113  -0.022  0.00  0.00    -0.202 F 
ENDBRANCH  12  18
ENDBRANCH   1  12
TORSDOF 3
