REMARK  Name = ZINC63376010
REMARK  8 active torsions:
REMARK  status: ('A' for Active; 'I' for Inactive)
REMARK    1  A    between atoms: C_1  and  C_2
REMARK    2  A    between atoms: C_2  and  C_3
REMARK    3  A    between atoms: C_3  and  C_4
REMARK    4  A    between atoms: C_4  and  C_5
REMARK    5  A    between atoms: C_5  and  C_6
REMARK    6  A    between atoms: C_6  and  N_7
REMARK    7  A    between atoms: C_8  and  O_32
REMARK    8  A    between atoms: C_10  and  C_17
REMARK                            x       y       z     vdW  Elec       q    Type
REMARK                         _______ _______ _______ _____ _____    ______ ____
ROOT
ATOM      1  N   UNL     1      -4.202  -4.630   0.017  0.00  0.00    -0.286 N 
ATOM      2  C   UNL     1      -4.869  -4.881   1.296  0.00  0.00    +0.217 C 
ATOM      3  C   UNL     1      -6.353  -4.527   1.177  0.00  0.00    +0.141 C 
ATOM      4  C   UNL     1      -6.904  -5.125  -0.093  0.00  0.00    +0.227 C 
ATOM      5  O   UNL     1      -8.048  -5.526  -0.127  0.00  0.00    -0.275 OA
ATOM      6  N   UNL     1      -6.127  -5.214  -1.187  0.00  0.00    -0.267 N 
ATOM      7  C   UNL     1      -4.834  -4.853  -1.146  0.00  0.00    +0.141 C 
ATOM      8  S   UNL     1      -3.969  -4.679  -2.614  0.00  0.00    -0.018 S 
ATOM      9  H   UNL     1      -6.507  -5.540  -2.018  0.00  0.00    +0.157 HD
ENDROOT
BRANCH   3  10
ATOM     10  C   UNL     1      -6.514  -3.006   1.139  0.00  0.00    +0.096 C 
ATOM     11  C   UNL     1      -8.001  -2.645   1.132  0.00  0.00    +0.124 C 
ATOM     12  C   UNL     1      -8.073  -1.137   0.921  0.00  0.00    -0.036 C 
ATOM     13  C   UNL     1      -8.806  -0.654   1.914  0.00  0.00    -0.001 A 
ATOM     14  C   UNL     1      -9.294   0.704   2.204  0.00  0.00    +0.010 A 
ATOM     15  C   UNL     1     -10.025   0.849   3.341  0.00  0.00    +0.001 A 
ATOM     16  C   UNL     1     -10.316  -0.208   4.209  0.00  0.00    +0.002 A 
ATOM     17  C   UNL     1      -9.913  -1.490   4.018  0.00  0.00    +0.026 A 
ATOM     18  C   UNL     1      -9.142  -1.769   2.852  0.00  0.00    +0.043 A 
ATOM     19  N   UNL     1      -8.652  -2.912   2.414  0.00  0.00    -0.376 N 
ATOM     20  C   UNL     1      -7.315  -0.456  -0.192  0.00  0.00    +0.048 C 
ATOM     21  C   UNL     1      -5.879  -1.008  -0.134  0.00  0.00    +0.085 C 
ATOM     22  N   UNL     1      -5.902  -2.473  -0.088  0.00  0.00    -0.310 NA
ATOM     23  H   UNL     1      -4.978  -2.854  -0.226  0.00  0.00    +0.122 HD
ATOM     24  H   UNL     1      -8.703  -3.775   2.855  0.00  0.00    +0.160 HD
ENDBRANCH   3  10
BRANCH   2  25
ATOM     25  O   UNL     1      -4.268  -4.076   2.313  0.00  0.00    -0.373 OA
ATOM     26  H   UNL     1      -3.325  -4.248   2.444  0.00  0.00    +0.212 HD
ENDBRANCH   2  25
BRANCH   1  27
ATOM     27  C   UNL     1      -2.827  -4.123   0.007  0.00  0.00    +0.109 C 
BRANCH  27  28
ATOM     28  C   UNL     1      -2.848  -2.593   0.015  0.00  0.00    +0.019 C 
BRANCH  28  29
ATOM     29  C   UNL     1      -1.413  -2.063   0.004  0.00  0.00    +0.002 C 
BRANCH  29  30
ATOM     30  C   UNL     1      -1.433  -0.534   0.013  0.00  0.00    -0.000 C 
BRANCH  30  32
ATOM     31  C   UNL     1      -0.019   1.526   0.010  0.00  0.00    +0.004 C 
ATOM     32  C   UNL     1       0.002  -0.004   0.002  0.00  0.00    -0.003 C 
ENDBRANCH  30  32
ENDBRANCH  29  30
ENDBRANCH  28  29
ENDBRANCH  27  28
ENDBRANCH   1  27
TORSDOF 7
