REMARK  Name = ZINC62825356
REMARK  8 active torsions:
REMARK  status: ('A' for Active; 'I' for Inactive)
REMARK    1  A    between atoms: C_1  and  C_2
REMARK    2  A    between atoms: C_2  and  C_3
REMARK    3  A    between atoms: C_3  and  C_5
REMARK    4  A    between atoms: C_3  and  C_6
REMARK    5  A    between atoms: C_6  and  C_8
REMARK    6  A    between atoms: C_6  and  N_22
REMARK    7  A    between atoms: N_10  and  C_11
REMARK    8  A    between atoms: C_12  and  C_19
REMARK                            x       y       z     vdW  Elec       q    Type
REMARK                         _______ _______ _______ _____ _____    ______ ____
ROOT
ATOM      1  C   UNL     1      -2.994  -1.970   0.211  0.00  0.00    +0.203 C 
ATOM      2  O   UNL     1      -3.635  -1.855  -0.812  0.00  0.00    -0.277 OA
ATOM      3  N   UNL     1      -3.547  -2.559   1.290  0.00  0.00    -0.285 N 
ATOM      4  H   UNL     1      -3.011  -2.723   2.082  0.00  0.00    +0.155 HD
ENDROOT
BRANCH   3   5
ATOM      5  C   UNL     1      -4.888  -2.932   1.269  0.00  0.00    +0.062 A 
ATOM      6  C   UNL     1      -5.759  -2.496   2.280  0.00  0.00    +0.086 A 
ATOM      7  C   UNL     1      -7.103  -2.878   2.246  0.00  0.00    +0.032 A 
ATOM      8  C   UNL     1      -7.565  -3.678   1.224  0.00  0.00    +0.020 A 
ATOM      9  C   UNL     1      -6.703  -4.107   0.226  0.00  0.00    +0.032 A 
ATOM     10  C   UNL     1      -5.373  -3.734   0.243  0.00  0.00    +0.041 A 
ATOM     11 BR   UNL     1      -4.210  -4.321  -1.127  0.00  0.00    -0.048 Br
ATOM     12 BR   UNL     1      -9.384  -4.194   1.180  0.00  0.00    -0.050 Br
BRANCH   6  13
ATOM     13  C   UNL     1      -5.259  -1.642   3.370  0.00  0.00    +0.388 C 
ATOM     14  O   UNL     1      -5.993  -1.349   4.303  0.00  0.00    -0.241 OA
ATOM     15  O   UNL     1      -4.109  -1.225   3.342  0.00  0.00    -0.241 OA
ENDBRANCH   6  13
ENDBRANCH   3   5
BRANCH   1  16
ATOM     16  C   UNL     1      -1.580  -1.453   0.277  0.00  0.00    +0.016 C 
BRANCH  16  17
ATOM     17  N   UNL     1      -1.049  -1.306  -1.085  0.00  0.00    +0.386 N 
ATOM     18  H   UNL     1      -1.058  -2.203  -1.548  0.00  0.00    -0.089 HD
ATOM     19  H   UNL     1      -1.621  -0.655  -1.601  0.00  0.00    -0.089 HD
ATOM     20  H   UNL     1      -0.102  -0.961  -1.041  0.00  0.00    -0.089 HD
ENDBRANCH  16  17
BRANCH  16  21
ATOM     21  C   UNL     1      -1.565  -0.094   0.979  0.00  0.00    -0.020 C 
ATOM     22  C   UNL     1      -2.433   0.894   0.197  0.00  0.00    +0.006 C 
BRANCH  21  24
ATOM     23  C   UNL     1      -0.097   1.728   1.856  0.00  0.00    +0.004 C 
ATOM     24  C   UNL     1      -0.130   0.430   1.046  0.00  0.00    -0.001 C 
ENDBRANCH  21  24
ENDBRANCH  16  21
ENDBRANCH   1  16
TORSDOF 6
