REMARK  Name = ZINC00622462
REMARK  9 active torsions:
REMARK  status: ('A' for Active; 'I' for Inactive)
REMARK    1  A    between atoms: C_1  and  C_2
REMARK    2  A    between atoms: C_2  and  C_3
REMARK    3  A    between atoms: C_2  and  C_4
REMARK    4  A    between atoms: C_2  and  C_5
REMARK    5  A    between atoms: C_10  and  O_11
REMARK    6  A    between atoms: O_11  and  C_12
REMARK    7  A    between atoms: C_12  and  C_13
REMARK    8  A    between atoms: N_15  and  C_16
REMARK    9  A    between atoms: C_21  and  C_22
REMARK                            x       y       z     vdW  Elec       q    Type
REMARK                         _______ _______ _______ _____ _____    ______ ____
ROOT
ATOM      1  C   UNL     1       3.706  -0.870  -0.021  0.00  0.00    +0.255 C 
ATOM      2  O   UNL     1       4.654  -0.113  -0.039  0.00  0.00    -0.272 OA
ATOM      3  N   UNL     1       3.907  -2.202  -0.034  0.00  0.00    -0.282 N 
ATOM      4  H   UNL     1       3.153  -2.807   0.046  0.00  0.00    +0.155 HD
ENDROOT
BRANCH   3   5
ATOM      5  C   UNL     1       5.197  -2.711  -0.162  0.00  0.00    +0.046 A 
ATOM      6  C   UNL     1       6.269  -2.049   0.422  0.00  0.00    +0.024 A 
ATOM      7  C   UNL     1       7.547  -2.557   0.297  0.00  0.00    +0.002 A 
ATOM      8  C   UNL     1       7.771  -3.722  -0.418  0.00  0.00    +0.001 A 
ATOM      9  C   UNL     1       6.720  -4.390  -1.008  0.00  0.00    +0.015 A 
ATOM     10  C   UNL     1       5.421  -3.891  -0.886  0.00  0.00    +0.058 A 
BRANCH  10  11
ATOM     11  C   UNL     1       4.292  -4.600  -1.517  0.00  0.00    +0.243 C 
ATOM     12  O   UNL     1       3.178  -4.112  -1.494  0.00  0.00    -0.270 OA
ATOM     13  N   UNL     1       4.494  -5.789  -2.118  0.00  0.00    -0.325 N 
ATOM     14  H   UNL     1       5.382  -6.179  -2.136  0.00  0.00    +0.145 HD
ATOM     15  H   UNL     1       3.751  -6.256  -2.532  0.00  0.00    +0.145 HD
ENDBRANCH  10  11
ENDBRANCH   3   5
BRANCH   1  16
ATOM     16  C   UNL     1       2.304  -0.319   0.017  0.00  0.00    +0.324 C 
BRANCH  16  17
ATOM     17  O   UNL     1       2.352   1.109   0.025  0.00  0.00    -0.482 OA
BRANCH  17  23
ATOM     18  C   UNL     1       1.137   3.153   0.067  0.00  0.00    +0.001 A 
ATOM     19  C   UNL     1      -0.073   3.820   0.101  0.00  0.00    +0.023 A 
ATOM     20  C   UNL     1      -1.257   3.105   0.125  0.00  0.00    +0.018 A 
ATOM     21  C   UNL     1      -1.233   1.722   0.111  0.00  0.00    +0.019 A 
ATOM     22  C   UNL     1      -0.026   1.052   0.083  0.00  0.00    +0.047 A 
ATOM     23  C   UNL     1       1.163   1.766   0.058  0.00  0.00    +0.125 A 
ATOM     24 BR   UNL     1      -2.911   4.020   0.169  0.00  0.00    -0.050 Br
BRANCH  18  26
ATOM     25  C   UNL     1       2.118   5.431   0.058  0.00  0.00    +0.015 C 
ATOM     26  C   UNL     1       2.426   3.932   0.041  0.00  0.00    -0.009 C 
ATOM     27  C   UNL     1       3.265   3.571   1.268  0.00  0.00    +0.015 C 
ATOM     28  C   UNL     1       3.206   3.586  -1.229  0.00  0.00    +0.015 C 
ENDBRANCH  18  26
ENDBRANCH  17  23
ENDBRANCH  16  17
ENDBRANCH   1  16
TORSDOF 6
