REMARK  Name = ZINC03033260
REMARK  7 active torsions:
REMARK  status: ('A' for Active; 'I' for Inactive)
REMARK    1  A    between atoms: C_4  and  C_7
REMARK    2  A    between atoms: C_7  and  C_8
REMARK    3  A    between atoms: C_7  and  C_14
REMARK    4  A    between atoms: C_7  and  O_27
REMARK    5  A    between atoms: N_16  and  N_17
REMARK    6  A    between atoms: C_18  and  C_19
REMARK    7  A    between atoms: C_24  and  O_25
REMARK                            x       y       z     vdW  Elec       q    Type
REMARK                         _______ _______ _______ _____ _____    ______ ____
ROOT
ATOM      1  C   UNL     1       0.002  -0.004   0.002  0.00  0.00    +0.194 C 
ENDROOT
BRANCH   1   5
ATOM      2  C   UNL     1      -0.204   4.247   0.364  0.00  0.00    +0.000 A 
ATOM      3  C   UNL     1       0.840   3.662  -0.329  0.00  0.00    +0.000 A 
ATOM      4  C   UNL     1       0.907   2.287  -0.446  0.00  0.00    +0.007 A 
ATOM      5  C   UNL     1      -0.070   1.496   0.130  0.00  0.00    -0.003 A 
ATOM      6  C   UNL     1      -1.117   2.081   0.818  0.00  0.00    +0.007 A 
ATOM      7  C   UNL     1      -1.181   3.457   0.939  0.00  0.00    +0.000 A 
ENDBRANCH   1   5
BRANCH   1   8
ATOM      8  C   UNL     1      -1.284  -0.521  -0.589  0.00  0.00    -0.003 A 
ATOM      9  C   UNL     1      -2.399  -0.678   0.213  0.00  0.00    +0.007 A 
ATOM     10  C   UNL     1      -3.581  -1.147  -0.330  0.00  0.00    +0.000 A 
ATOM     11  C   UNL     1      -3.644  -1.469  -1.673  0.00  0.00    +0.000 A 
ATOM     12  C   UNL     1      -2.528  -1.317  -2.474  0.00  0.00    +0.000 A 
ATOM     13  C   UNL     1      -1.348  -0.843  -1.932  0.00  0.00    +0.007 A 
ENDBRANCH   1   8
BRANCH   1  14
ATOM     14  C   UNL     1       0.210  -0.615   1.364  0.00  0.00    +0.273 C 
ATOM     15  O   UNL     1      -0.148  -0.018   2.357  0.00  0.00    -0.270 OA
ATOM     16  N   UNL     1       0.794  -1.824   1.478  0.00  0.00    -0.204 N 
ATOM     17  H   UNL     1       1.080  -2.301   0.684  0.00  0.00    +0.177 HD
BRANCH  16  18
ATOM     18  N   UNL     1       0.988  -2.392   2.744  0.00  0.00    -0.188 NA
ATOM     19  C   UNL     1       1.550  -3.557   2.854  0.00  0.00    +0.142 C 
BRANCH  19  20
ATOM     20  C   UNL     1       1.753  -4.154   4.186  0.00  0.00    +0.037 A 
ATOM     21  C   UNL     1       2.358  -5.407   4.309  0.00  0.00    +0.028 A 
ATOM     22  C   UNL     1       2.546  -5.960   5.559  0.00  0.00    +0.019 A 
ATOM     23  C   UNL     1       2.136  -5.278   6.693  0.00  0.00    +0.019 A 
ATOM     24  C   UNL     1       1.537  -4.037   6.584  0.00  0.00    +0.047 A 
ATOM     25  C   UNL     1       1.346  -3.465   5.337  0.00  0.00    +0.126 A 
ATOM     26 BR   UNL     1       3.364  -7.657   5.724  0.00  0.00    -0.050 Br
BRANCH  25  27
ATOM     27  O   UNL     1       0.762  -2.244   5.229  0.00  0.00    -0.506 OA
ATOM     28  H   UNL     1      -0.201  -2.274   5.147  0.00  0.00    +0.292 HD
ENDBRANCH  25  27
ENDBRANCH  19  20
ENDBRANCH  16  18
ENDBRANCH   1  14
BRANCH   1  29
ATOM     29  O   UNL     1       1.093  -0.357  -0.850  0.00  0.00    -0.371 OA
ATOM     30  H   UNL     1       1.955  -0.056  -0.531  0.00  0.00    +0.212 HD
ENDBRANCH   1  29
TORSDOF 7
