REMARK  Name = ZINC67060063
REMARK  11 active torsions:
REMARK  status: ('A' for Active; 'I' for Inactive)
REMARK    1  A    between atoms: C_1  and  C_2
REMARK    2  A    between atoms: N_8  and  C_9
REMARK    3  A    between atoms: C_9  and  C_10
REMARK    4  A    between atoms: C_15  and  C_16
REMARK    5  A    between atoms: C_16  and  N_17
REMARK    6  A    between atoms: N_20  and  N_21
REMARK    7  A    between atoms: C_22  and  C_24
REMARK    8  A    between atoms: C_24  and  C_25
REMARK    9  A    between atoms: C_25  and  C_26
REMARK   10  A    between atoms: C_26  and  C_27
REMARK   11  A    between atoms: C_26  and  C_28
REMARK                            x       y       z     vdW  Elec       q    Type
REMARK                         _______ _______ _______ _____ _____    ______ ____
ROOT
ATOM      1  C   UNL     1       3.281  -2.538   1.215  0.00  0.00    +0.141 C 
ENDROOT
BRANCH   1   7
ATOM      2  C   UNL     1       2.526  -0.328   2.116  0.00  0.00    -0.059 A 
ATOM      3  C   UNL     1       2.425   0.595   3.141  0.00  0.00    +0.002 A 
ATOM      4  C   UNL     1       2.980   0.319   4.376  0.00  0.00    +0.000 A 
ATOM      5  C   UNL     1       3.635  -0.879   4.588  0.00  0.00    +0.000 A 
ATOM      6  C   UNL     1       3.735  -1.803   3.564  0.00  0.00    +0.005 A 
ATOM      7  C   UNL     1       3.176  -1.529   2.330  0.00  0.00    -0.029 A 
BRANCH   2   8
ATOM      8  C   UNL     1       1.921  -0.028   0.769  0.00  0.00    -0.042 C 
BRANCH   8  15
ATOM      9  C   UNL     1       1.769  -0.652  -1.964  0.00  0.00    -0.013 C 
ATOM     10  C   UNL     1       2.397   0.656  -1.478  0.00  0.00    -0.071 C 
ATOM     11  C   UNL     1       3.501   1.082  -2.448  0.00  0.00    -0.016 C 
ATOM     12  C   UNL     1       4.126   2.391  -1.958  0.00  0.00    -0.003 C 
ATOM     13  C   UNL     1       4.651   2.193  -0.533  0.00  0.00    -0.019 C 
ATOM     14  C   UNL     1       3.505   1.725   0.366  0.00  0.00    -0.078 C 
ATOM     15  N   UNL     1       2.968   0.456  -0.141  0.00  0.00    +0.384 N 
ATOM     16  H   UNL     1       3.709  -0.226  -0.191  0.00  0.00    -0.081 HD
ENDBRANCH   8  15
ENDBRANCH   2   8
ENDBRANCH   1   7
BRANCH   1  17
ATOM     17  N   UNL     1       4.392  -2.176   0.331  0.00  0.00    -0.294 N 
ATOM     18  C   UNL     1       4.610  -2.878  -0.799  0.00  0.00    +0.316 C 
ATOM     19  O   UNL     1       3.885  -3.811  -1.085  0.00  0.00    -0.251 OA
ATOM     20  N   UNL     1       5.632  -2.545  -1.612  0.00  0.00    -0.218 N 
ATOM     21  H   UNL     1       4.970  -1.432   0.559  0.00  0.00    +0.151 HD
ATOM     22  H   UNL     1       5.789  -3.050  -2.425  0.00  0.00    +0.174 HD
BRANCH  20  23
ATOM     23  N   UNL     1       6.468  -1.469  -1.282  0.00  0.00    -0.233 N 
ATOM     24  C   UNL     1       7.490  -1.137  -2.095  0.00  0.00    +0.229 C 
ATOM     25  O   UNL     1       7.686  -1.768  -3.112  0.00  0.00    -0.274 OA
ATOM     26  H   UNL     1       6.311  -0.965  -0.469  0.00  0.00    +0.173 HD
BRANCH  24  27
ATOM     27  C   UNL     1       8.389   0.020  -1.741  0.00  0.00    +0.097 C 
BRANCH  27  28
ATOM     28  C   UNL     1       9.459   0.184  -2.821  0.00  0.00    +0.012 C 
BRANCH  28  29
ATOM     29  C   UNL     1      10.371   1.358  -2.462  0.00  0.00    -0.017 C 
ATOM     30  C   UNL     1      11.515   1.444  -3.475  0.00  0.00    +0.007 C 
ATOM     31  C   UNL     1       9.565   2.658  -2.491  0.00  0.00    +0.007 C 
ENDBRANCH  28  29
ENDBRANCH  27  28
ENDBRANCH  24  27
ENDBRANCH  20  23
ENDBRANCH   1  17
TORSDOF 8
