REMARK  Name = ZINC62318301
REMARK  10 active torsions:
REMARK  status: ('A' for Active; 'I' for Inactive)
REMARK    1  A    between atoms: C_1  and  C_2
REMARK    2  A    between atoms: C_2  and  C_3
REMARK    3  A    between atoms: C_2  and  C_4
REMARK    4  A    between atoms: C_2  and  C_5
REMARK    5  A    between atoms: C_8  and  C_11
REMARK    6  A    between atoms: C_11  and  C_12
REMARK    7  A    between atoms: C_12  and  N_13
REMARK    8  A    between atoms: N_16  and  C_17
REMARK    9  A    between atoms: C_17  and  C_18
REMARK   10  A    between atoms: C_18  and  N_19
REMARK                            x       y       z     vdW  Elec       q    Type
REMARK                         _______ _______ _______ _____ _____    ______ ____
ROOT
ATOM      1  N   UNL     1       3.198  -1.328  -7.086  0.00  0.00    -0.299 N 
ATOM      2  C   UNL     1       3.162  -0.592  -8.215  0.00  0.00    +0.300 C 
ATOM      3  O   UNL     1       2.561   0.465  -8.233  0.00  0.00    -0.253 OA
ATOM      4  N   UNL     1       3.793  -1.027  -9.323  0.00  0.00    -0.298 N 
ATOM      5  H   UNL     1       3.678  -2.171  -7.072  0.00  0.00    +0.150 HD
ATOM      6  H   UNL     1       4.273  -1.870  -9.309  0.00  0.00    +0.150 HD
ENDROOT
BRANCH   1   7
ATOM      7  C   UNL     1       2.512  -0.855  -5.881  0.00  0.00    +0.110 C 
BRANCH   7   8
ATOM      8  C   UNL     1       2.707  -1.868  -4.752  0.00  0.00    +0.054 C 
BRANCH   8  12
ATOM      9  C   UNL     1       0.707  -0.490  -1.238  0.00  0.00    -0.042 A 
ATOM     10  C   UNL     1       0.036  -1.284  -2.148  0.00  0.00    +0.004 A 
ATOM     11  C   UNL     1       0.683  -1.730  -3.286  0.00  0.00    +0.004 A 
ATOM     12  C   UNL     1       2.001  -1.381  -3.513  0.00  0.00    -0.046 A 
ATOM     13  C   UNL     1       2.672  -0.586  -2.603  0.00  0.00    +0.004 A 
ATOM     14  C   UNL     1       2.024  -0.137  -1.467  0.00  0.00    +0.004 A 
BRANCH   9  16
ATOM     15  C   UNL     1      -0.019   1.526   0.010  0.00  0.00    +0.015 C 
ATOM     16  C   UNL     1       0.002  -0.004   0.002  0.00  0.00    -0.013 C 
ATOM     17  C   UNL     1       0.742  -0.511   1.242  0.00  0.00    +0.015 C 
ATOM     18  C   UNL     1      -1.433  -0.534   0.013  0.00  0.00    +0.015 C 
ENDBRANCH   9  16
ENDBRANCH   8  12
ENDBRANCH   7   8
ENDBRANCH   1   7
BRANCH   4  19
ATOM     19  C   UNL     1       3.755  -0.228 -10.550  0.00  0.00    +0.127 C 
BRANCH  19  20
ATOM     20  C   UNL     1       4.543  -0.942 -11.650  0.00  0.00    +0.145 C 
BRANCH  20  21
ATOM     21  N   UNL     1       4.505  -0.142 -12.877  0.00  0.00    -0.291 N 
ATOM     22  C   UNL     1       3.542  -0.233 -13.879  0.00  0.00    +0.070 A 
ATOM     23  C   UNL     1       2.413  -1.022 -14.046  0.00  0.00    +0.028 A 
ATOM     24  C   UNL     1       1.635  -0.877 -15.177  0.00  0.00    +0.002 A 
ATOM     25  C   UNL     1       1.977   0.051 -16.146  0.00  0.00    +0.002 A 
ATOM     26  C   UNL     1       3.099   0.840 -15.989  0.00  0.00    +0.028 A 
ATOM     27  C   UNL     1       3.886   0.703 -14.856  0.00  0.00    +0.067 A 
ATOM     28  N   UNL     1       5.048   1.334 -14.416  0.00  0.00    -0.306 N 
ATOM     29  H   UNL     1       5.526   2.035 -14.887  0.00  0.00    +0.170 HD
ATOM     30  C   UNL     1       5.390   0.810 -13.225  0.00  0.00    +0.328 A 
ATOM     31  O   UNL     1       6.356   1.144 -12.564  0.00  0.00    -0.247 OA
ENDBRANCH  20  21
ENDBRANCH  19  20
ENDBRANCH   4  19
TORSDOF 7
