REMARK  Name = ZINC00855984
REMARK  9 active torsions:
REMARK  status: ('A' for Active; 'I' for Inactive)
REMARK    1  A    between atoms: C_1  and  O_2
REMARK    2  A    between atoms: O_2  and  C_3
REMARK    3  A    between atoms: C_5  and  C_10
REMARK    4  A    between atoms: C_8  and  O_9
REMARK    5  A    between atoms: C_12  and  C_36
REMARK    6  A    between atoms: C_18  and  C_22
REMARK    7  A    between atoms: C_28  and  O_35
REMARK    8  A    between atoms: C_30  and  O_34
REMARK    9  A    between atoms: C_36  and  O_37
REMARK                            x       y       z     vdW  Elec       q    Type
REMARK                         _______ _______ _______ _____ _____    ______ ____
ROOT
ATOM      1  C   UNL     1       7.676   5.986   7.243  0.00  0.00    +0.246 C 
ATOM      2  C   UNL     1       7.270   4.852   8.195  0.00  0.00    +0.244 C 
ATOM      3  O   UNL     1       7.264   3.627   7.455  0.00  0.00    -0.479 OA
ATOM      4  C   UNL     1       6.653   3.648   6.239  0.00  0.00    +0.163 A 
ATOM      5  C   UNL     1       6.297   2.452   5.635  0.00  0.00    +0.050 A 
ATOM      6  C   UNL     1       5.683   2.457   4.397  0.00  0.00    +0.011 A 
ATOM      7  C   UNL     1       5.420   3.655   3.758  0.00  0.00    -0.003 A 
ATOM      8  C   UNL     1       5.774   4.851   4.354  0.00  0.00    +0.056 A 
ATOM      9  C   UNL     1       6.386   4.852   5.598  0.00  0.00    +0.163 A 
ATOM     10  O   UNL     1       6.723   6.038   6.176  0.00  0.00    -0.477 OA
ENDROOT
BRANCH   7  11
ATOM     11  C   UNL     1       4.751   3.657   2.408  0.00  0.00    +0.211 C 
ATOM     12  C   UNL     1       5.791   3.349   1.320  0.00  0.00    +0.129 C 
ATOM     13  C   UNL     1       5.058   3.330  -0.009  0.00  0.00    +0.174 C 
ATOM     14  O   UNL     1       5.543   3.812  -1.012  0.00  0.00    -0.292 OA
ATOM     15  C   UNL     1       3.733   2.701  -0.019  0.00  0.00    +0.101 A 
ATOM     16  C   UNL     1       3.088   2.409  -1.232  0.00  0.00    +0.134 A 
ATOM     17  C   UNL     1       1.833   1.826  -1.213  0.00  0.00    +0.091 A 
ATOM     18  C   UNL     1       1.221   1.532  -0.001  0.00  0.00    +0.124 A 
ATOM     19  C   UNL     1       1.854   1.818   1.201  0.00  0.00    +0.092 A 
ATOM     20  C   UNL     1       3.112   2.395   1.206  0.00  0.00    +0.139 A 
ATOM     21  O   UNL     1       3.730   2.659   2.381  0.00  0.00    -0.483 OA
BRANCH  18  22
ATOM     22  O   UNL     1      -0.011   0.963   0.007  0.00  0.00    -0.507 OA
ATOM     23  H   UNL     1       0.002  -0.004   0.002  0.00  0.00    +0.292 HD
ENDBRANCH  18  22
BRANCH  16  24
ATOM     24  O   UNL     1       3.690   2.698  -2.412  0.00  0.00    -0.506 OA
ATOM     25  H   UNL     1       3.492   3.582  -2.749  0.00  0.00    +0.292 HD
ENDBRANCH  16  24
ENDBRANCH   7  11
BRANCH   1  28
ATOM     26  C   UNL     1       8.878   9.048   9.100  0.00  0.00    +0.162 A 
ATOM     27  C   UNL     1       8.873   7.840   8.422  0.00  0.00    +0.056 A 
ATOM     28  C   UNL     1       7.679   7.298   7.986  0.00  0.00    -0.000 A 
ATOM     29  C   UNL     1       6.487   7.952   8.235  0.00  0.00    +0.011 A 
ATOM     30  C   UNL     1       6.484   9.155   8.917  0.00  0.00    +0.049 A 
ATOM     31  C   UNL     1       7.678   9.707   9.352  0.00  0.00    +0.158 A 
BRANCH  26  33
ATOM     32  C   UNL     1      11.245   8.855   9.232  0.00  0.00    +0.277 C 
ATOM     33  O   UNL     1      10.053   9.586   9.525  0.00  0.00    -0.491 OA
ENDBRANCH  26  33
BRANCH  31  34
ATOM     34  O   UNL     1       7.678  10.890  10.022  0.00  0.00    -0.503 OA
ATOM     35  H   UNL     1       7.600  10.799  10.981  0.00  0.00    +0.292 HD
ENDBRANCH  31  34
ENDBRANCH   1  28
BRANCH   2  36
ATOM     36  C   UNL     1       8.276   4.758   9.344  0.00  0.00    +0.204 C 
BRANCH  36  37
ATOM     37  O   UNL     1       7.832   3.781  10.287  0.00  0.00    -0.391 OA
ATOM     38  H   UNL     1       8.423   3.668  11.044  0.00  0.00    +0.210 HD
ENDBRANCH  36  37
ENDBRANCH   2  36
TORSDOF 8
