REMARK  Name = ZINC56245974
REMARK  4 active torsions:
REMARK  status: ('A' for Active; 'I' for Inactive)
REMARK    1  A    between atoms: C_10  and  N_11
REMARK    2  A    between atoms: C_12  and  C_14
REMARK    3  A    between atoms: C_17  and  S_19
REMARK    4  A    between atoms: S_19  and  N_22
REMARK                            x       y       z     vdW  Elec       q    Type
REMARK                         _______ _______ _______ _____ _____    ______ ____
ROOT
ATOM      1  N   UNL     1       4.870   0.097  -0.044  0.00  0.00    -0.278 N 
ATOM      2  C   UNL     1       6.046  -0.556   0.044  0.00  0.00    +0.284 C 
ATOM      3  O   UNL     1       6.067  -1.773   0.038  0.00  0.00    -0.266 OA
ATOM      4  H   UNL     1       4.858   1.064  -0.120  0.00  0.00    +0.155 HD
ENDROOT
BRANCH   1  14
ATOM      5  C   UNL     1       0.203   0.946  -1.767  0.00  0.00    +0.001 A 
ATOM      6  C   UNL     1       1.390   1.676  -1.796  0.00  0.00    +0.001 A 
ATOM      7  C   UNL     1       2.529   1.184  -1.235  0.00  0.00    +0.010 A 
ATOM      8  C   UNL     1       2.511  -0.076  -0.617  0.00  0.00    +0.003 A 
ATOM      9  C   UNL     1       1.306  -0.819  -0.586  0.00  0.00    -0.016 A 
ATOM     10  C   UNL     1       0.149  -0.279  -1.176  0.00  0.00    +0.008 A 
ATOM     11  C   UNL     1       1.286  -2.080   0.033  0.00  0.00    +0.008 A 
ATOM     12  C   UNL     1       2.421  -2.578   0.597  0.00  0.00    +0.002 A 
ATOM     13  C   UNL     1       3.611  -1.857   0.573  0.00  0.00    +0.024 A 
ATOM     14  C   UNL     1       3.672  -0.617  -0.025  0.00  0.00    +0.042 A 
ENDBRANCH   1  14
BRANCH   2  15
ATOM     15  C   UNL     1       7.299   0.199   0.146  0.00  0.00    +0.192 A 
ATOM     16  C   UNL     1       8.552  -0.336   0.235  0.00  0.00    +0.057 A 
ATOM     17  C   UNL     1       9.446   0.744   0.313  0.00  0.00    +0.072 A 
ATOM     18  C   UNL     1       8.708   1.875   0.269  0.00  0.00    +0.258 A 
ATOM     19  O   UNL     1       7.415   1.542   0.163  0.00  0.00    -0.432 OA
BRANCH  18  20
ATOM     20  S   UNL     1       9.343   3.518   0.335  0.00  0.00    +0.089 S 
ATOM     21  O   UNL     1       8.290   4.341   0.817  0.00  0.00    -0.150 OA
ATOM     22  O   UNL     1      10.606   3.439   0.983  0.00  0.00    -0.150 OA
BRANCH  20  23
ATOM     23  N   UNL     1       9.639   3.991  -1.224  0.00  0.00    -0.201 NA
ATOM     24  H   UNL     1       9.455   3.384  -1.958  0.00  0.00    +0.144 HD
ATOM     25  H   UNL     1       9.996   4.875  -1.403  0.00  0.00    +0.144 HD
ENDBRANCH  20  23
ENDBRANCH  18  20
ENDBRANCH   2  15
TORSDOF 4
