REMARK  Name = ZINC13979019
REMARK  10 active torsions:
REMARK  status: ('A' for Active; 'I' for Inactive)
REMARK    1  A    between atoms: C_1  and  C_2
REMARK    2  A    between atoms: C_2  and  C_3
REMARK    3  A    between atoms: C_2  and  C_4
REMARK    4  A    between atoms: C_4  and  C_5
REMARK    5  A    between atoms: N_7  and  C_8
REMARK    6  A    between atoms: C_11  and  C_14
REMARK    7  A    between atoms: N_16  and  N_17
REMARK    8  A    between atoms: N_17  and  C_18
REMARK    9  A    between atoms: C_18  and  N_20
REMARK   10  A    between atoms: C_21  and  C_23
REMARK                            x       y       z     vdW  Elec       q    Type
REMARK                         _______ _______ _______ _____ _____    ______ ____
ROOT
ATOM      1  C   UNL     1       4.636   4.024  -0.050  0.00  0.00    +0.260 C 
ATOM      2  O   UNL     1       5.699   3.434  -0.072  0.00  0.00    -0.269 OA
ATOM      3  N   UNL     1       3.481   3.330  -0.039  0.00  0.00    -0.231 N 
ATOM      4  H   UNL     1       2.633   3.800  -0.020  0.00  0.00    +0.173 HD
ENDROOT
BRANCH   1   8
ATOM      5  C   UNL     1       4.564   8.270  -0.004  0.00  0.00    +0.033 A 
ATOM      6  C   UNL     1       5.781   7.597  -0.030  0.00  0.00    +0.024 A 
ATOM      7  C   UNL     1       5.808   6.220  -0.045  0.00  0.00    +0.015 A 
ATOM      8  C   UNL     1       4.611   5.499  -0.034  0.00  0.00    +0.038 A 
ATOM      9  C   UNL     1       3.390   6.179  -0.013  0.00  0.00    +0.015 A 
ATOM     10  C   UNL     1       3.370   7.555   0.008  0.00  0.00    +0.024 A 
BRANCH   5  13
ATOM     11  C   UNL     1       5.493  10.347   0.676  0.00  0.00    +0.217 C 
ATOM     12  O   UNL     1       6.418   9.754   1.190  0.00  0.00    -0.275 OA
ATOM     13  N   UNL     1       4.540   9.664   0.012  0.00  0.00    -0.285 N 
ATOM     14  H   UNL     1       3.837  10.142  -0.456  0.00  0.00    +0.155 HD
BRANCH  11  15
ATOM     15  C   UNL     1       5.411  11.848   0.780  0.00  0.00    +0.099 C 
BRANCH  15  17
ATOM     16  C   UNL     1       6.591  13.900   1.578  0.00  0.00    +0.008 C 
ATOM     17  C   UNL     1       6.607  12.371   1.578  0.00  0.00    -0.008 C 
ATOM     18  C   UNL     1       6.521  11.860   3.018  0.00  0.00    +0.008 C 
ENDBRANCH  15  17
ENDBRANCH  11  15
ENDBRANCH   5  13
ENDBRANCH   1   8
BRANCH   3  19
ATOM     19  N   UNL     1       3.505   1.929  -0.053  0.00  0.00    -0.245 N 
ATOM     20  H   UNL     1       4.353   1.459  -0.072  0.00  0.00    +0.172 HD
BRANCH  19  21
ATOM     21  C   UNL     1       2.350   1.235  -0.043  0.00  0.00    +0.153 C 
ATOM     22  S   UNL     1       2.379  -0.476  -0.061  0.00  0.00    -0.017 S 
BRANCH  21  23
ATOM     23  N   UNL     1       1.171   1.889  -0.017  0.00  0.00    -0.263 N 
ATOM     24  C   UNL     1       0.016   1.195  -0.006  0.00  0.00    +0.250 C 
ATOM     25  O   UNL     1       0.037  -0.020  -0.019  0.00  0.00    -0.270 OA
ATOM     26  H   UNL     1       1.155   2.859  -0.007  0.00  0.00    +0.157 HD
BRANCH  24  27
ATOM     27  C   UNL     1      -1.276   1.911   0.016  0.00  0.00    +0.037 A 
ATOM     28  C   UNL     1      -1.303   3.307   0.036  0.00  0.00    +0.014 A 
ATOM     29  C   UNL     1      -2.512   3.970   0.052  0.00  0.00    +0.021 A 
ATOM     30  C   UNL     1      -3.697   3.255   0.057  0.00  0.00    +0.041 A 
ATOM     31  C   UNL     1      -3.677   1.869   0.042  0.00  0.00    +0.021 A 
ATOM     32  C   UNL     1      -2.475   1.195   0.021  0.00  0.00    +0.014 A 
ATOM     33 CL   UNL     1      -5.215   4.096   0.083  0.00  0.00    -0.084 Cl
ENDBRANCH  24  27
ENDBRANCH  21  23
ENDBRANCH  19  21
ENDBRANCH   3  19
TORSDOF 8
