REMARK  Name = ZINC50987813
REMARK  4 active torsions:
REMARK  status: ('A' for Active; 'I' for Inactive)
REMARK    1  A    between atoms: C_1  and  C_2
REMARK    2  A    between atoms: C_4  and  C_11
REMARK    3  A    between atoms: N_6  and  C_7
REMARK    4  A    between atoms: C_7  and  C_8
REMARK                            x       y       z     vdW  Elec       q    Type
REMARK                         _______ _______ _______ _____ _____    ______ ____
ROOT
ATOM      1  C   UNL     1      -0.013   1.086   0.008  0.00  0.00    +0.081 C 
ATOM      2  C   UNL     1      -0.742   1.585  -1.213  0.00  0.00    +0.073 C 
ATOM      3  N   UNL     1      -1.252   0.805  -2.099  0.00  0.00    -0.363 N 
ATOM      4  C   UNL     1      -1.878   1.638  -3.137  0.00  0.00    +0.172 C 
ATOM      5  C   UNL     1      -1.624   3.058  -2.667  0.00  0.00    +0.101 C 
ATOM      6  N   UNL     1      -0.930   2.911  -1.485  0.00  0.00    -0.275 N 
ATOM      7  N   UNL     1      -1.981   4.158  -3.243  0.00  0.00    -0.388 N 
ATOM      8  H   UNL     1      -2.473   4.130  -4.078  0.00  0.00    +0.157 HD
ATOM      9  H   UNL     1      -1.757   5.011  -2.840  0.00  0.00    +0.157 HD
ATOM     10  H   UNL     1      -1.228  -0.164  -2.086  0.00  0.00    +0.162 HD
ENDROOT
BRANCH   4  11
ATOM     11  C   UNL     1      -1.224   1.399  -4.474  0.00  0.00    -0.014 A 
ATOM     12  C   UNL     1       0.143   1.206  -4.547  0.00  0.00    +0.010 A 
ATOM     13  C   UNL     1       0.750   0.985  -5.770  0.00  0.00    +0.050 A 
ATOM     14  C   UNL     1      -0.018   0.957  -6.923  0.00  0.00    +0.162 A 
ATOM     15  C   UNL     1      -1.390   1.150  -6.849  0.00  0.00    +0.162 A 
ATOM     16  C   UNL     1      -1.995   1.366  -5.622  0.00  0.00    +0.055 A 
ATOM     17  O   UNL     1      -2.137   1.119  -7.990  0.00  0.00    -0.488 OA
ATOM     18  C   UNL     1      -1.929   2.199  -8.903  0.00  0.00    +0.232 C 
ATOM     19  C   UNL     1      -0.739   1.918  -9.807  0.00  0.00    +0.082 C 
ATOM     20  C   UNL     1       0.570   1.848  -9.037  0.00  0.00    +0.232 C 
ATOM     21  O   UNL     1       0.569   0.739  -8.135  0.00  0.00    -0.488 OA
ENDBRANCH   4  11
BRANCH   6  22
ATOM     22  C   UNL     1      -0.461   4.015  -0.644  0.00  0.00    +0.140 C 
BRANCH  22  23
ATOM     23  C   UNL     1       0.924   4.421  -1.075  0.00  0.00    -0.015 C 
ATOM     24  C   UNL     1       1.171   5.666  -1.399  0.00  0.00    +0.005 C 
ENDBRANCH  22  23
ENDBRANCH   6  22
TORSDOF 3
