REMARK  Name = ZINC05383551
REMARK  14 active torsions:
REMARK  status: ('A' for Active; 'I' for Inactive)
REMARK    1  A    between atoms: C_1  and  C_2
REMARK    2  A    between atoms: C_2  and  C_3
REMARK    3  A    between atoms: C_2  and  C_4
REMARK    4  A    between atoms: C_2  and  C_5
REMARK    5  A    between atoms: N_7  and  C_8
REMARK    6  A    between atoms: C_8  and  N_10
REMARK    7  A    between atoms: N_10  and  C_11
REMARK    8  A    between atoms: C_16  and  N_17
REMARK    9  A    between atoms: N_17  and  C_18
REMARK   10  A    between atoms: C_18  and  N_20
REMARK   11  A    between atoms: C_21  and  C_23
REMARK   12  A    between atoms: C_23  and  C_24
REMARK   13  A    between atoms: C_23  and  C_25
REMARK   14  A    between atoms: C_23  and  C_26
REMARK                            x       y       z     vdW  Elec       q    Type
REMARK                         _______ _______ _______ _____ _____    ______ ____
ROOT
ATOM      1  C   UNL     1      -2.479   1.693   0.165  0.00  0.00    +0.054 A 
ATOM      2  C   UNL     1      -2.523   0.307   0.146  0.00  0.00    +0.025 A 
ATOM      3  C   UNL     1      -3.697  -0.343  -0.187  0.00  0.00    +0.002 A 
ATOM      4  C   UNL     1      -4.827   0.386  -0.512  0.00  0.00    +0.002 A 
ATOM      5  C   UNL     1      -4.790   1.767  -0.501  0.00  0.00    +0.025 A 
ATOM      6  C   UNL     1      -3.618   2.428  -0.164  0.00  0.00    +0.054 A 
ENDROOT
BRANCH   1   7
ATOM      7  N   UNL     1      -1.292   2.353   0.506  0.00  0.00    -0.295 N 
ATOM      8  H   UNL     1      -1.310   3.087   1.140  0.00  0.00    +0.154 HD
BRANCH   7   9
ATOM      9  C   UNL     1      -0.124   1.968  -0.046  0.00  0.00    +0.141 C 
ATOM     10  S   UNL     1      -0.072   0.598  -1.071  0.00  0.00    -0.018 S 
BRANCH   9  13
ATOM     11  C   UNL     1       2.168   2.285  -0.353  0.00  0.00    +0.224 C 
ATOM     12  O   UNL     1       2.205   1.314  -1.079  0.00  0.00    -0.275 OA
ATOM     13  N   UNL     1       1.002   2.666   0.203  0.00  0.00    -0.267 N 
ATOM     14  H   UNL     1       0.972   3.443   0.784  0.00  0.00    +0.157 HD
BRANCH  11  16
ATOM     15  C   UNL     1       4.599   2.427  -0.822  0.00  0.00    +0.020 C 
ATOM     16  C   UNL     1       3.427   3.065  -0.074  0.00  0.00    +0.039 C 
ATOM     17  C   UNL     1       3.247   4.510  -0.545  0.00  0.00    +0.020 C 
ATOM     18  C   UNL     1       3.713   3.051   1.429  0.00  0.00    +0.020 C 
ENDBRANCH  11  16
ENDBRANCH   9  13
ENDBRANCH   7   9
ENDBRANCH   1   7
BRANCH   6  19
ATOM     19  N   UNL     1      -3.578   3.827  -0.153  0.00  0.00    -0.295 N 
ATOM     20  H   UNL     1      -2.842   4.295  -0.576  0.00  0.00    +0.154 HD
BRANCH  19  21
ATOM     21  C   UNL     1      -4.564   4.525   0.446  0.00  0.00    +0.141 C 
ATOM     22  S   UNL     1      -5.921   3.706   1.093  0.00  0.00    -0.018 S 
BRANCH  21  23
ATOM     23  N   UNL     1      -4.481   5.867   0.536  0.00  0.00    -0.267 N 
ATOM     24  C   UNL     1      -5.467   6.564   1.135  0.00  0.00    +0.224 C 
ATOM     25  O   UNL     1      -6.428   5.984   1.593  0.00  0.00    -0.275 OA
ATOM     26  H   UNL     1      -3.712   6.331   0.169  0.00  0.00    +0.157 HD
BRANCH  24  27
ATOM     27  C   UNL     1      -5.375   8.065   1.234  0.00  0.00    +0.039 C 
ATOM     28  C   UNL     1      -6.612   8.606   1.953  0.00  0.00    +0.020 C 
ATOM     29  C   UNL     1      -4.120   8.448   2.022  0.00  0.00    +0.020 C 
ATOM     30  C   UNL     1      -5.298   8.666  -0.171  0.00  0.00    +0.020 C 
ENDBRANCH  24  27
ENDBRANCH  21  23
ENDBRANCH  19  21
ENDBRANCH   6  19
TORSDOF 8
