REMARK  Name = ZINC36778057
REMARK  6 active torsions:
REMARK  status: ('A' for Active; 'I' for Inactive)
REMARK    1  A    between atoms: C_1  and  C_2
REMARK    2  A    between atoms: C_3  and  C_17
REMARK    3  A    between atoms: C_4  and  C_16
REMARK    4  A    between atoms: N_5  and  C_7
REMARK    5  A    between atoms: C_7  and  C_9
REMARK    6  A    between atoms: C_7  and  C_10
REMARK                            x       y       z     vdW  Elec       q    Type
REMARK                         _______ _______ _______ _____ _____    ______ ____
ROOT
ATOM      1  C   UNL     1       0.055  -3.283   1.515  0.00  0.00    +0.190 C 
ATOM      2  C   UNL     1      -1.190  -3.274   2.404  0.00  0.00    +0.042 C 
ENDROOT
BRANCH   1   3
ATOM      3  C   UNL     1       1.289  -3.240   2.379  0.00  0.00    +0.245 C 
ATOM      4  O   UNL     1       2.074  -2.323   2.270  0.00  0.00    -0.273 OA
ATOM      5  N   UNL     1       1.520  -4.223   3.272  0.00  0.00    -0.239 N 
ATOM      6  C   UNL     1       2.624  -4.185   4.045  0.00  0.00    +0.303 C 
ATOM      7  O   UNL     1       3.410  -3.265   3.936  0.00  0.00    -0.253 OA
ATOM      8  N   UNL     1       2.855  -5.167   4.939  0.00  0.00    -0.313 N 
ATOM      9  H   UNL     1       0.892  -4.957   3.360  0.00  0.00    +0.159 HD
ATOM     10  H   UNL     1       2.227  -5.901   5.026  0.00  0.00    +0.146 HD
ATOM     11  H   UNL     1       3.649  -5.140   5.495  0.00  0.00    +0.146 HD
ENDBRANCH   1   3
BRANCH   1  16
ATOM     12  C   UNL     1      -0.018   1.503   0.010  0.00  0.00    +0.068 C 
ATOM     13  C   UNL     1       0.002  -0.004   0.002  0.00  0.00    +0.074 A 
ATOM     14  C   UNL     1       0.008  -0.829  -1.147  0.00  0.00    +0.106 A 
ATOM     15  C   UNL     1       0.028  -2.140  -0.706  0.00  0.00    +0.051 A 
ATOM     16  N   UNL     1       0.034  -2.112   0.635  0.00  0.00    -0.256 N 
ATOM     17  N   UNL     1       0.023  -0.776   1.052  0.00  0.00    -0.175 NA
ATOM     18  C   UNL     1       0.041  -3.373  -1.572  0.00  0.00    +0.066 C 
BRANCH  14  19
ATOM     19  C   UNL     1      -0.005  -0.379  -2.546  0.00  0.00    +0.390 C 
ATOM     20  O   UNL     1      -0.023   0.817  -2.804  0.00  0.00    -0.240 OA
ATOM     21  O   UNL     1       0.002  -1.200  -3.453  0.00  0.00    -0.240 OA
ENDBRANCH  14  19
ENDBRANCH   1  16
TORSDOF 3
