REMARK  Name = ZINC02215676
REMARK  10 active torsions:
REMARK  status: ('A' for Active; 'I' for Inactive)
REMARK    1  A    between atoms: C_1  and  C_2
REMARK    2  A    between atoms: N_8  and  C_9
REMARK    3  A    between atoms: C_9  and  C_10
REMARK    4  A    between atoms: C_10  and  C_11
REMARK    5  A    between atoms: C_14  and  O_18
REMARK    6  A    between atoms: C_15  and  O_17
REMARK    7  A    between atoms: C_19  and  C_27
REMARK    8  A    between atoms: C_21  and  C_25
REMARK    9  A    between atoms: C_22  and  N_24
REMARK   10  A    between atoms: C_27  and  C_28
REMARK                            x       y       z     vdW  Elec       q    Type
REMARK                         _______ _______ _______ _____ _____    ______ ____
ROOT
ATOM      1  C   UNL     1      -2.732   2.923  -4.725  0.00  0.00    +0.064 C 
ATOM      2  C   UNL     1      -2.029   2.454  -3.478  0.00  0.00    +0.022 A 
ATOM      3  C   UNL     1      -2.299   3.050  -2.297  0.00  0.00    +0.068 A 
ATOM      4  C   UNL     1      -1.644   2.614  -1.126  0.00  0.00    +0.141 A 
ATOM      5  C   UNL     1      -0.735   1.581  -1.215  0.00  0.00    +0.068 A 
ATOM      6  C   UNL     1      -0.486   0.993  -2.462  0.00  0.00    +0.259 A 
ATOM      7  O   UNL     1       0.317   0.078  -2.555  0.00  0.00    -0.267 OA
ATOM      8  N   UNL     1      -1.131   1.437  -3.557  0.00  0.00    -0.312 N 
ATOM      9  C   UNL     1      -0.013   1.086   0.008  0.00  0.00    +0.078 C 
ATOM     10  C   UNL     1      -0.711   1.568   1.249  0.00  0.00    +0.094 C 
ATOM     11  C   UNL     1      -1.602   2.584   1.206  0.00  0.00    +0.198 C 
ATOM     12  O   UNL     1      -1.912   3.208   0.056  0.00  0.00    -0.441 OA
ENDROOT
BRANCH  11  13
ATOM     13  N   UNL     1      -2.210   2.988   2.368  0.00  0.00    -0.328 N 
ATOM     14  H   UNL     1      -2.853   3.715   2.352  0.00  0.00    +0.145 HD
ATOM     15  H   UNL     1      -1.996   2.548   3.206  0.00  0.00    +0.145 HD
ENDBRANCH  11  13
BRANCH  10  16
ATOM     16  C   UNL     1      -0.425   0.941   2.505  0.00  0.00    +0.100 C 
ATOM     17  N   UNL     1      -0.198   0.444   3.501  0.00  0.00    -0.191 NA
ENDBRANCH  10  16
BRANCH   8  18
ATOM     18  C   UNL     1      -0.861   0.812  -4.854  0.00  0.00    +0.130 C 
BRANCH  18  19
ATOM     19  C   UNL     1       0.290   1.547  -5.544  0.00  0.00    +0.057 C 
BRANCH  19  20
ATOM     20  C   UNL     1       0.567   0.904  -6.879  0.00  0.00    -0.042 A 
ATOM     21  C   UNL     1       1.483  -0.127  -6.971  0.00  0.00    +0.007 A 
ATOM     22  C   UNL     1       1.737  -0.723  -8.192  0.00  0.00    +0.049 A 
ATOM     23  C   UNL     1       1.081  -0.280  -9.329  0.00  0.00    +0.158 A 
ATOM     24  C   UNL     1       0.164   0.762  -9.238  0.00  0.00    +0.158 A 
ATOM     25  C   UNL     1      -0.090   1.352  -8.010  0.00  0.00    +0.052 A 
BRANCH  24  26
ATOM     26  O   UNL     1      -0.483   1.201 -10.351  0.00  0.00    -0.503 OA
ATOM     27  H   UNL     1      -0.022   1.911 -10.819  0.00  0.00    +0.292 HD
ENDBRANCH  24  26
BRANCH  23  28
ATOM     28  O   UNL     1       1.334  -0.861 -10.533  0.00  0.00    -0.503 OA
ATOM     29  H   UNL     1       2.055  -0.446 -11.026  0.00  0.00    +0.292 HD
ENDBRANCH  23  28
ENDBRANCH  19  20
ENDBRANCH  18  19
ENDBRANCH   8  18
BRANCH   9  30
ATOM     30  C   UNL     1       1.424   1.613  -0.003  0.00  0.00    +0.049 C 
BRANCH  30  31
ATOM     31  C   UNL     1       2.187   1.014   1.151  0.00  0.00    -0.046 A 
ATOM     32  C   UNL     1       2.211   1.660   2.373  0.00  0.00    +0.003 A 
ATOM     33  C   UNL     1       2.907   1.108   3.432  0.00  0.00    +0.000 A 
ATOM     34  C   UNL     1       3.588  -0.083   3.266  0.00  0.00    +0.000 A 
ATOM     35  C   UNL     1       3.568  -0.726   2.043  0.00  0.00    +0.000 A 
ATOM     36  C   UNL     1       2.868  -0.177   0.985  0.00  0.00    +0.003 A 
ENDBRANCH  30  31
ENDBRANCH   9  30
TORSDOF 9
