REMARK  Name = ZINC39751770
REMARK  5 active torsions:
REMARK  status: ('A' for Active; 'I' for Inactive)
REMARK    1  A    between atoms: C_1  and  C_2
REMARK    2  A    between atoms: C_4  and  C_7
REMARK    3  A    between atoms: C_7  and  S_8
REMARK    4  A    between atoms: S_8  and  C_9
REMARK    5  A    between atoms: C_17  and  C_25
REMARK                            x       y       z     vdW  Elec       q    Type
REMARK                         _______ _______ _______ _____ _____    ______ ____
ROOT
ATOM      1  C   UNL     1      -2.873  -5.286  -1.556  0.00  0.00    +0.182 C 
ATOM      2  N   UNL     1      -3.170  -5.710  -0.339  0.00  0.00    -0.151 NA
ATOM      3  C   UNL     1      -3.934  -6.779  -0.116  0.00  0.00    +0.272 C 
ATOM      4  O   UNL     1      -4.186  -7.144   1.020  0.00  0.00    -0.268 OA
ATOM      5  C   UNL     1      -4.475  -7.518  -1.302  0.00  0.00    +0.071 C 
ATOM      6  C   UNL     1      -5.308  -8.572  -1.306  0.00  0.00    -0.042 C 
ATOM      7  C   UNL     1      -5.999  -9.113  -0.057  0.00  0.00    +0.033 C 
ATOM      8  C   UNL     1      -7.505  -9.124  -0.355  0.00  0.00    +0.008 C 
ATOM      9  C   UNL     1      -7.781  -9.875  -1.655  0.00  0.00    -0.012 C 
ATOM     10  C   UNL     1      -7.130  -9.163  -2.845  0.00  0.00    +0.022 C 
ATOM     11  C   UNL     1      -5.610  -9.199  -2.663  0.00  0.00    +0.080 C 
ATOM     12  S   UNL     1      -4.812  -8.017  -3.814  0.00  0.00    -0.097 S 
ATOM     13  C   UNL     1      -4.064  -6.953  -2.606  0.00  0.00    +0.112 C 
ATOM     14  N   UNL     1      -3.309  -5.886  -2.664  0.00  0.00    -0.217 NA
ATOM     15  C   UNL     1      -9.292  -9.950  -1.882  0.00  0.00    +0.007 C 
ENDROOT
BRANCH   1  16
ATOM     16  S   UNL     1      -1.858  -3.855  -1.721  0.00  0.00    -0.082 S 
BRANCH  16  17
ATOM     17  C   UNL     1      -1.500  -3.372  -0.010  0.00  0.00    +0.136 C 
BRANCH  17  21
ATOM     18  C   UNL     1      -0.018   1.503   0.010  0.00  0.00    +0.089 C 
ATOM     19  C   UNL     1       0.002  -0.004   0.002  0.00  0.00    +0.134 A 
ATOM     20  C   UNL     1      -1.077  -0.810   0.003  0.00  0.00    +0.071 A 
ATOM     21  C   UNL     1      -0.627  -2.143  -0.007  0.00  0.00    +0.094 A 
ATOM     22  N   UNL     1       0.676  -2.130  -0.013  0.00  0.00    -0.082 NA
ATOM     23  O   UNL     1       1.098  -0.778  -0.013  0.00  0.00    -0.360 OA
ENDBRANCH  17  21
ENDBRANCH  16  17
ENDBRANCH   1  16
TORSDOF 3
