REMARK  Name = ZINC22508139
REMARK  8 active torsions:
REMARK  status: ('A' for Active; 'I' for Inactive)
REMARK    1  A    between atoms: C_4  and  C_7
REMARK    2  A    between atoms: C_8  and  C_9
REMARK    3  A    between atoms: C_8  and  C_12
REMARK    4  A    between atoms: C_9  and  C_10
REMARK    5  A    between atoms: C_10  and  O_11
REMARK    6  A    between atoms: N_14  and  N_15
REMARK    7  A    between atoms: N_15  and  C_16
REMARK    8  A    between atoms: C_16  and  C_17
REMARK                            x       y       z     vdW  Elec       q    Type
REMARK                         _______ _______ _______ _____ _____    ______ ____
ROOT
ATOM      1  C   UNL     1       8.784   2.175  -1.323  0.00  0.00    +0.198 C 
ENDROOT
BRANCH   1   2
ATOM      2  C   UNL     1       8.547   1.960   0.149  0.00  0.00    +0.234 C 
ATOM      3  O   UNL     1       9.119   2.654   0.964  0.00  0.00    -0.274 OA
ATOM      4  N   UNL     1       7.699   0.997   0.562  0.00  0.00    -0.264 N 
ATOM      5  C   UNL     1       7.480   0.798   1.920  0.00  0.00    +0.165 A 
ATOM      6  N   UNL     1       6.698  -0.082   2.513  0.00  0.00    -0.229 NA
ATOM      7  C   UNL     1       6.604  -0.137   3.827  0.00  0.00    +0.054 A 
ATOM      8  C   UNL     1       7.334   0.736   4.564  0.00  0.00    +0.014 A 
ATOM      9  S   UNL     1       8.167   1.646   3.271  0.00  0.00    -0.057 S 
ATOM     10  C   UNL     1       7.419   0.895   6.060  0.00  0.00    +0.044 C 
ATOM     11  C   UNL     1       7.069  -0.432   6.734  0.00  0.00    +0.005 C 
ATOM     12  C   UNL     1       7.658  -0.458   8.146  0.00  0.00    +0.000 C 
ATOM     13  C   UNL     1       6.879  -1.456   9.005  0.00  0.00    +0.000 C 
ATOM     14  C   UNL     1       6.862  -2.821   8.313  0.00  0.00    +0.000 C 
ATOM     15  C   UNL     1       5.630  -2.920   7.411  0.00  0.00    +0.000 C 
ATOM     16  C   UNL     1       5.827  -4.054   6.403  0.00  0.00    +0.000 C 
ATOM     17  C   UNL     1       5.418  -3.574   5.009  0.00  0.00    +0.000 C 
ATOM     18  C   UNL     1       6.404  -2.508   4.527  0.00  0.00    +0.006 C 
ATOM     19  C   UNL     1       5.707  -1.147   4.495  0.00  0.00    +0.056 C 
ATOM     20  H   UNL     1       7.181   0.368  -0.177  0.00  0.00    +0.157 HD
ENDBRANCH   1   2
BRANCH   1  21
ATOM     21  N   UNL     1       9.741   3.274  -1.510  0.00  0.00    -0.232 NA
ATOM     22  H   UNL     1      10.601   3.093  -1.013  0.00  0.00    +0.145 HD
BRANCH  21  25
ATOM     23  C   UNL     1      10.833   4.468  -3.214  0.00  0.00    +0.254 C 
ATOM     24  O   UNL     1      11.392   5.148  -2.373  0.00  0.00    -0.269 OA
ATOM     25  N   UNL     1       9.979   3.496  -2.836  0.00  0.00    -0.247 N 
ATOM     26  H   UNL     1       9.474   2.882  -3.596  0.00  0.00    +0.169 HD
BRANCH  23  28
ATOM     27  C   UNL     1      11.943   5.679  -5.014  0.00  0.00    +0.016 C 
ATOM     28  C   UNL     1      11.088   4.706  -4.636  0.00  0.00    +0.018 C 
BRANCH  27  32
ATOM     29  C   UNL     1      13.076   6.042  -9.086  0.00  0.00    +0.000 A 
ATOM     30  C   UNL     1      11.752   5.810  -8.758  0.00  0.00    +0.001 A 
ATOM     31  C   UNL     1      11.375   5.691  -7.437  0.00  0.00    +0.008 A 
ATOM     32  C   UNL     1      12.336   5.804  -6.427  0.00  0.00    -0.025 A 
ATOM     33  C   UNL     1      13.671   6.043  -6.766  0.00  0.00    +0.008 A 
ATOM     34  C   UNL     1      14.033   6.155  -8.092  0.00  0.00    +0.001 A 
ENDBRANCH  27  32
BRANCH  28  35
ATOM     35  C   UNL     1      10.397   3.865  -5.677  0.00  0.00    +0.068 C 
BRANCH  35  36
ATOM     36  C   UNL     1       8.992   4.416  -5.928  0.00  0.00    +0.160 C 
BRANCH  36  37
ATOM     37  O   UNL     1       8.398   3.725  -7.028  0.00  0.00    -0.395 OA
ATOM     38  H   UNL     1       7.381   3.986  -7.358  0.00  0.00    +0.209 HD
ENDBRANCH  36  37
ENDBRANCH  35  36
ENDBRANCH  28  35
ENDBRANCH  23  28
ENDBRANCH  21  25
ENDBRANCH   1  21
TORSDOF 8
