REMARK  Name = ZINC03090995
REMARK  5 active torsions:
REMARK  status: ('A' for Active; 'I' for Inactive)
REMARK    1  A    between atoms: C_1  and  C_2
REMARK    2  A    between atoms: C_3  and  C_13
REMARK    3  A    between atoms: N_15  and  N_16
REMARK    4  A    between atoms: C_17  and  C_18
REMARK    5  A    between atoms: C_23  and  O_24
REMARK                            x       y       z     vdW  Elec       q    Type
REMARK                         _______ _______ _______ _____ _____    ______ ____
ROOT
ATOM      1  C   UNL     1       0.085  -0.438  -2.523  0.00  0.00    +0.284 C 
ATOM      2  O   UNL     1      -0.004   0.736  -2.831  0.00  0.00    -0.267 OA
ATOM      3  N   UNL     1       0.215  -1.378  -3.479  0.00  0.00    -0.202 N 
ATOM      4  H   UNL     1       0.211  -2.318  -3.240  0.00  0.00    +0.178 HD
ENDROOT
BRANCH   1   7
ATOM      5  C   UNL     1      -2.494  -0.780  -0.723  0.00  0.00    +0.070 C 
ATOM      6  C   UNL     1      -1.058  -0.983  -0.314  0.00  0.00    +0.093 A 
ATOM      7  C   UNL     1       0.051  -0.831  -1.105  0.00  0.00    +0.155 A 
ATOM      8  N   UNL     1       1.123  -1.122  -0.298  0.00  0.00    -0.183 N 
ATOM      9  N   UNL     1       0.669  -1.419   0.869  0.00  0.00    -0.058 NA
ATOM     10  N   UNL     1      -0.614  -1.341   0.891  0.00  0.00    -0.134 NA
ATOM     11  C   UNL     1       2.468  -1.099  -0.676  0.00  0.00    +0.241 A 
ATOM     12  C   UNL     1       3.600  -1.524   0.153  0.00  0.00    +0.206 A 
ATOM     13  N   UNL     1       4.697  -1.359  -0.535  0.00  0.00    -0.032 NA
ATOM     14  O   UNL     1       4.340  -0.837  -1.802  0.00  0.00    -0.239 OA
ATOM     15  N   UNL     1       2.930  -0.703  -1.829  0.00  0.00    -0.027 NA
ATOM     16  N   UNL     1       3.519  -2.017   1.450  0.00  0.00    -0.337 N 
ATOM     17  H   UNL     1       2.655  -2.104   1.883  0.00  0.00    +0.144 HD
ATOM     18  H   UNL     1       4.326  -2.274   1.923  0.00  0.00    +0.144 HD
ENDBRANCH   1   7
BRANCH   3  19
ATOM     19  N   UNL     1       0.356  -0.998  -4.821  0.00  0.00    -0.187 NA
ATOM     20  C   UNL     1       0.481  -1.904  -5.742  0.00  0.00    +0.142 C 
BRANCH  20  21
ATOM     21  C   UNL     1       0.629  -1.504  -7.153  0.00  0.00    +0.038 A 
ATOM     22  C   UNL     1       0.759  -2.475  -8.148  0.00  0.00    +0.028 A 
ATOM     23  C   UNL     1       0.897  -2.095  -9.467  0.00  0.00    +0.020 A 
ATOM     24  C   UNL     1       0.908  -0.752  -9.809  0.00  0.00    +0.034 A 
ATOM     25  C   UNL     1       0.782   0.219  -8.832  0.00  0.00    +0.061 A 
ATOM     26  C   UNL     1       0.635  -0.147  -7.503  0.00  0.00    +0.139 A 
ATOM     27 BR   UNL     1       0.800   2.048  -9.312  0.00  0.00    -0.046 Br
ATOM     28 BR   UNL     1       1.073  -3.410 -10.814  0.00  0.00    -0.050 Br
BRANCH  26  29
ATOM     29  O   UNL     1       0.504   0.806  -6.544  0.00  0.00    -0.505 OA
ATOM     30  H   UNL     1       1.344   1.103  -6.168  0.00  0.00    +0.292 HD
ENDBRANCH  26  29
ENDBRANCH  20  21
ENDBRANCH   3  19
TORSDOF 4
