REMARK  Name = ZINC15774893
REMARK  7 active torsions:
REMARK  status: ('A' for Active; 'I' for Inactive)
REMARK    1  A    between atoms: C_9  and  C_21
REMARK    2  A    between atoms: N_11  and  C_14
REMARK    3  A    between atoms: C_21  and  C_23
REMARK    4  A    between atoms: C_21  and  O_28
REMARK    5  A    between atoms: C_23  and  C_25
REMARK    6  A    between atoms: C_23  and  O_27
REMARK    7  A    between atoms: C_25  and  O_26
REMARK                            x       y       z     vdW  Elec       q    Type
REMARK                         _______ _______ _______ _____ _____    ______ ____
ROOT
ATOM      1  C   UNL     1       3.568   3.345  -0.014  0.00  0.00    +0.002 A 
ATOM      2  C   UNL     1       2.361   4.042   0.001  0.00  0.00    +0.002 A 
ATOM      3  C   UNL     1       1.165   3.397   0.009  0.00  0.00    +0.030 A 
ATOM      4  C   UNL     1       1.134   1.990   0.002  0.00  0.00    +0.092 A 
ATOM      5  C   UNL     1       2.403   1.257  -0.013  0.00  0.00    +0.090 A 
ATOM      6  C   UNL     1       3.608   1.986  -0.021  0.00  0.00    +0.030 A 
ATOM      7  N   UNL     1       2.391  -0.074  -0.021  0.00  0.00    -0.240 NA
ATOM      8  C   UNL     1       1.231  -0.715  -0.013  0.00  0.00    +0.134 A 
ATOM      9  C   UNL     1       0.877  -2.135  -0.019  0.00  0.00    +0.122 A 
ATOM     10  N   UNL     1      -0.421  -2.224  -0.007  0.00  0.00    -0.164 NA
ATOM     11  N   UNL     1      -0.997  -0.951   0.006  0.00  0.00    -0.212 N 
ATOM     12  C   UNL     1       0.002  -0.004   0.002  0.00  0.00    +0.183 A 
ATOM     13  N   UNL     1      -0.016   1.316   0.009  0.00  0.00    -0.224 NA
ENDROOT
BRANCH  11  14
ATOM     14  C   UNL     1      -2.371  -0.681   0.020  0.00  0.00    +0.068 A 
ATOM     15  C   UNL     1      -2.858   0.411   0.726  0.00  0.00    +0.029 A 
ATOM     16  C   UNL     1      -4.213   0.678   0.734  0.00  0.00    +0.016 A 
ATOM     17  C   UNL     1      -5.086  -0.149   0.049  0.00  0.00    +0.014 A 
ATOM     18  C   UNL     1      -4.604  -1.241  -0.650  0.00  0.00    +0.016 A 
ATOM     19  C   UNL     1      -3.249  -1.510  -0.666  0.00  0.00    +0.029 A 
ATOM     20  I   UNL     1      -7.142   0.254   0.072  0.00  0.00    -0.044 I 
ENDBRANCH  11  14
BRANCH   9  21
ATOM     21  C   UNL     1       1.845  -3.291  -0.035  0.00  0.00    +0.197 C 
BRANCH  21  22
ATOM     22  O   UNL     1       1.430  -4.273   0.916  0.00  0.00    -0.383 OA
ATOM     23  H   UNL     1       0.549  -4.636   0.748  0.00  0.00    +0.210 HD
ENDBRANCH  21  22
BRANCH  21  24
ATOM     24  C   UNL     1       1.873  -3.913  -1.432  0.00  0.00    +0.174 C 
BRANCH  24  25
ATOM     25  O   UNL     1       2.288  -2.930  -2.383  0.00  0.00    -0.387 OA
ATOM     26  H   UNL     1       3.168  -2.567  -2.215  0.00  0.00    +0.210 HD
ENDBRANCH  24  25
BRANCH  24  27
ATOM     27  C   UNL     1       2.856  -5.085  -1.449  0.00  0.00    +0.190 C 
BRANCH  27  28
ATOM     28  O   UNL     1       2.796  -5.739  -2.718  0.00  0.00    -0.392 OA
ATOM     29  H   UNL     1       3.395  -6.494  -2.800  0.00  0.00    +0.210 HD
ENDBRANCH  27  28
ENDBRANCH  24  27
ENDBRANCH  21  24
ENDBRANCH   9  21
TORSDOF 7
