REMARK  Name = ZINC09332853
REMARK  1 active torsions:
REMARK  status: ('A' for Active; 'I' for Inactive)
REMARK    1  A    between atoms: N_19  and  C_22
REMARK                            x       y       z     vdW  Elec       q    Type
REMARK                         _______ _______ _______ _____ _____    ______ ____
ROOT
ATOM      1  C   UNL     1      -5.614   4.296  -0.452  0.00  0.00    +0.000 A 
ATOM      2  C   UNL     1      -5.888   5.359   0.391  0.00  0.00    +0.002 A 
ATOM      3  C   UNL     1      -5.157   5.537   1.546  0.00  0.00    +0.023 A 
ATOM      4  C   UNL     1      -4.137   4.647   1.875  0.00  0.00    +0.036 A 
ATOM      5  C   UNL     1      -3.869   3.583   1.019  0.00  0.00    -0.027 A 
ATOM      6  C   UNL     1      -4.602   3.408  -0.134  0.00  0.00    +0.004 A 
ATOM      7  C   UNL     1      -2.732   2.826   1.646  0.00  0.00    +0.053 C 
ATOM      8  C   UNL     1      -3.119   1.372   1.937  0.00  0.00    +0.089 C 
ATOM      9  C   UNL     1      -1.824   0.558   1.666  0.00  0.00    +0.074 C 
ATOM     10  C   UNL     1      -0.772   1.601   1.244  0.00  0.00    -0.054 C 
ATOM     11  C   UNL     1      -1.989   2.390  -0.614  0.00  0.00    -0.076 C 
ATOM     12  C   UNL     1      -0.796   1.615  -1.209  0.00  0.00    -0.020 C 
ATOM     13  C   UNL     1      -0.013   1.086   0.008  0.00  0.00    -0.016 C 
ATOM     14  C   UNL     1      -1.466   0.008   3.028  0.00  0.00    +0.228 C 
ATOM     15  O   UNL     1      -0.508  -0.694   3.270  0.00  0.00    -0.275 OA
ATOM     16  N   UNL     1      -2.372   0.417   3.924  0.00  0.00    -0.209 N 
ATOM     17  C   UNL     1      -3.358   1.193   3.419  0.00  0.00    +0.229 C 
ATOM     18  O   UNL     1      -4.281   1.671   4.043  0.00  0.00    -0.275 OA
ATOM     19  C   UNL     1      -2.418   3.575   2.913  0.00  0.00    +0.212 C 
ATOM     20  O   UNL     1      -1.562   3.296   3.726  0.00  0.00    -0.277 OA
ATOM     21  N   UNL     1      -3.272   4.614   2.971  0.00  0.00    -0.286 N 
ATOM     22  H   UNL     1      -3.285   5.265   3.690  0.00  0.00    +0.155 HD
ATOM     23  N   UNL     1      -1.564   2.710   0.759  0.00  0.00    +0.395 N 
ATOM     24  H   UNL     1      -1.020   3.581   0.768  0.00  0.00    -0.079 HD
ENDROOT
BRANCH  16  25
ATOM     25  C   UNL     1      -2.308   0.067   5.280  0.00  0.00    +0.064 A 
ATOM     26  C   UNL     1      -1.610   0.867   6.174  0.00  0.00    +0.045 A 
ATOM     27  C   UNL     1      -1.554   0.522   7.511  0.00  0.00    +0.043 A 
ATOM     28  C   UNL     1      -2.184  -0.627   7.958  0.00  0.00    +0.021 A 
ATOM     29  C   UNL     1      -2.876  -1.429   7.069  0.00  0.00    +0.023 A 
ATOM     30  C   UNL     1      -2.940  -1.085   5.732  0.00  0.00    +0.063 A 
ATOM     31 CL   UNL     1      -3.808  -2.094   4.617  0.00  0.00    -0.082 Cl
ATOM     32 CL   UNL     1      -0.686   1.526   8.630  0.00  0.00    -0.083 Cl
ENDBRANCH  16  25
TORSDOF 1
