REMARK  Name = ZINC39860118
REMARK  8 active torsions:
REMARK  status: ('A' for Active; 'I' for Inactive)
REMARK    1  A    between atoms: C_1  and  C_2
REMARK    2  A    between atoms: C_5  and  C_26
REMARK    3  A    between atoms: C_6  and  N_8
REMARK    4  A    between atoms: C_12  and  C_13
REMARK    5  A    between atoms: C_16  and  O_21
REMARK    6  A    between atoms: C_18  and  O_19
REMARK    7  A    between atoms: O_19  and  C_20
REMARK    8  A    between atoms: O_21  and  C_22
REMARK                            x       y       z     vdW  Elec       q    Type
REMARK                         _______ _______ _______ _____ _____    ______ ____
ROOT
ATOM      1  N   UNL     1       0.101  -2.456   2.580  0.00  0.00    -0.196 N 
ATOM      2  C   UNL     1       1.249  -2.891   3.072  0.00  0.00    +0.265 C 
ATOM      3  O   UNL     1       2.313  -2.619   2.546  0.00  0.00    -0.269 OA
ATOM      4  C   UNL     1       1.177  -3.720   4.288  0.00  0.00    +0.080 C 
ATOM      5  C   UNL     1       2.177  -4.297   5.004  0.00  0.00    +0.032 C 
ATOM      6  S   UNL     1      -0.589  -3.760   4.562  0.00  0.00    -0.025 S 
ATOM      7  C   UNL     1      -1.075  -2.755   3.168  0.00  0.00    +0.290 C 
ATOM      8  O   UNL     1      -2.195  -2.422   2.830  0.00  0.00    -0.262 OA
ENDROOT
BRANCH   1  14
ATOM      9  C   UNL     1       0.301   1.999   0.505  0.00  0.00    +0.044 C 
ATOM     10  C   UNL     1       0.203   0.499   0.391  0.00  0.00    -0.049 A 
ATOM     11  C   UNL     1       0.118  -0.095  -0.855  0.00  0.00    +0.004 A 
ATOM     12  C   UNL     1       0.028  -1.470  -0.964  0.00  0.00    +0.005 A 
ATOM     13  C   UNL     1       0.022  -2.255   0.173  0.00  0.00    -0.029 A 
ATOM     14  C   UNL     1       0.107  -1.662   1.425  0.00  0.00    +0.048 A 
ATOM     15  C   UNL     1       0.203  -0.281   1.531  0.00  0.00    +0.027 A 
ATOM     16  C   UNL     1      -0.077  -3.754   0.054  0.00  0.00    +0.045 C 
ENDBRANCH   1  14
BRANCH   5  17
ATOM     17  C   UNL     1       1.885  -4.930   6.294  0.00  0.00    +0.018 A 
ATOM     18  C   UNL     1       0.693  -4.635   6.969  0.00  0.00    +0.015 A 
ATOM     19  C   UNL     1       0.424  -5.232   8.178  0.00  0.00    +0.046 A 
ATOM     20  C   UNL     1       1.331  -6.128   8.736  0.00  0.00    +0.124 A 
ATOM     21  C   UNL     1       2.515  -6.427   8.077  0.00  0.00    +0.091 A 
ATOM     22  C   UNL     1       2.797  -5.839   6.857  0.00  0.00    +0.131 A 
BRANCH  22  23
ATOM     23  O   UNL     1       3.953  -6.135   6.209  0.00  0.00    -0.494 OA
ATOM     24  C   UNL     1       4.831  -7.068   6.842  0.00  0.00    +0.277 C 
ENDBRANCH  22  23
BRANCH  20  25
ATOM     25  O   UNL     1       1.056  -6.712   9.930  0.00  0.00    -0.495 OA
ATOM     26  C   UNL     1      -0.180  -6.361  10.555  0.00  0.00    +0.277 C 
ENDBRANCH  20  25
ENDBRANCH   5  17
TORSDOF 4
