REMARK  Name = ZINC44883126
REMARK  5 active torsions:
REMARK  status: ('A' for Active; 'I' for Inactive)
REMARK    1  A    between atoms: C_1  and  C_2
REMARK    2  A    between atoms: C_2  and  N_9
REMARK    3  A    between atoms: N_9  and  C_10
REMARK    4  A    between atoms: C_13  and  C_17
REMARK    5  A    between atoms: C_15  and  N_16
REMARK                            x       y       z     vdW  Elec       q    Type
REMARK                         _______ _______ _______ _____ _____    ______ ____
ROOT
ATOM      1  C   UNL     1       0.423  -0.210  -2.428  0.00  0.00    +0.049 A 
ATOM      2  C   UNL     1      -0.568   0.737  -2.660  0.00  0.00    +0.025 A 
ATOM      3  C   UNL     1      -0.909   1.079  -3.949  0.00  0.00    +0.017 A 
ATOM      4  C   UNL     1      -0.259   0.474  -5.030  0.00  0.00    +0.065 A 
ATOM      5  C   UNL     1       0.739  -0.480  -4.798  0.00  0.00    +0.039 A 
ATOM      6  C   UNL     1       1.082  -0.815  -3.503  0.00  0.00    +0.046 A 
ENDROOT
BRANCH   6   7
ATOM      7  N   UNL     1       2.083  -1.764  -3.266  0.00  0.00    -0.357 N 
ATOM      8  H   UNL     1       2.321  -2.003  -2.356  0.00  0.00    +0.142 HD
ATOM      9  H   UNL     1       2.540  -2.184  -4.012  0.00  0.00    +0.142 HD
ENDBRANCH   6   7
BRANCH   4  10
ATOM     10  C   UNL     1      -0.624   0.839  -6.408  0.00  0.00    +0.387 C 
ATOM     11  O   UNL     1      -1.497   1.672  -6.609  0.00  0.00    -0.241 OA
ATOM     12  O   UNL     1      -0.054   0.309  -7.352  0.00  0.00    -0.241 OA
ENDBRANCH   4  10
BRANCH   1  13
ATOM     13  N   UNL     1       0.764  -0.553  -1.122  0.00  0.00    -0.336 N 
ATOM     14  H   UNL     1       1.515  -1.144  -0.957  0.00  0.00    +0.147 HD
BRANCH  13  16
ATOM     15  C   UNL     1      -1.464  -0.479  -0.148  0.00  0.00    +0.033 C 
ATOM     16  C   UNL     1      -0.011  -0.021   0.001  0.00  0.00    +0.050 C 
ATOM     17  C   UNL     1       0.553  -0.598   1.298  0.00  0.00    +0.049 C 
ATOM     18  C   UNL     1       1.669   0.327   1.859  0.00  0.00    +0.168 C 
ATOM     19  S   UNL     1       0.917   1.973   1.492  0.00  0.00    -0.029 S 
ATOM     20  O   UNL     1       1.949   2.900   1.185  0.00  0.00    -0.174 OA
ATOM     21  O   UNL     1      -0.033   2.288   2.501  0.00  0.00    -0.174 OA
ATOM     22  C   UNL     1       0.030   1.518  -0.056  0.00  0.00    +0.191 C 
ENDBRANCH  13  16
ENDBRANCH   1  13
TORSDOF 4
