REMARK  Name = ZINC35595049
REMARK  10 active torsions:
REMARK  status: ('A' for Active; 'I' for Inactive)
REMARK    1  A    between atoms: C_1  and  C_2
REMARK    2  A    between atoms: C_5  and  O_31
REMARK    3  A    between atoms: C_6  and  N_8
REMARK    4  A    between atoms: N_11  and  C_12
REMARK    5  A    between atoms: C_12  and  C_13
REMARK    6  A    between atoms: C_13  and  N_14
REMARK    7  A    between atoms: C_15  and  C_17
REMARK    8  A    between atoms: C_20  and  N_23
REMARK    9  A    between atoms: C_24  and  C_26
REMARK   10  A    between atoms: O_31  and  C_32
REMARK                            x       y       z     vdW  Elec       q    Type
REMARK                         _______ _______ _______ _____ _____    ______ ____
ROOT
ATOM      1  N   UNL     1       0.624  -2.356   8.405  0.00  0.00    -0.310 N 
ATOM      2  C   UNL     1       0.731  -3.042   9.560  0.00  0.00    +0.244 C 
ATOM      3  O   UNL     1       0.744  -4.258   9.546  0.00  0.00    -0.270 OA
ATOM      4  H   UNL     1       0.614  -1.386   8.417  0.00  0.00    +0.149 HD
ENDROOT
BRANCH   2   5
ATOM      5  C   UNL     1       0.834  -2.318  10.842  0.00  0.00    +0.037 A 
ATOM      6  C   UNL     1       0.813  -0.921  10.861  0.00  0.00    +0.015 A 
ATOM      7  C   UNL     1       0.909  -0.248  12.058  0.00  0.00    +0.024 A 
ATOM      8  C   UNL     1       1.026  -0.958  13.249  0.00  0.00    +0.033 A 
ATOM      9  C   UNL     1       1.046  -2.349  13.234  0.00  0.00    +0.024 A 
ATOM     10  C   UNL     1       0.945  -3.028  12.041  0.00  0.00    +0.015 A 
BRANCH   8  11
ATOM     11  N   UNL     1       1.123  -0.274  14.460  0.00  0.00    -0.285 N 
ATOM     12  C   UNL     1       0.447   0.879  14.639  0.00  0.00    +0.220 C 
ATOM     13  O   UNL     1      -0.177   1.365  13.720  0.00  0.00    -0.275 OA
ATOM     14  H   UNL     1       1.677  -0.627  15.174  0.00  0.00    +0.155 HD
BRANCH  12  15
ATOM     15  C   UNL     1       0.467   1.563  15.982  0.00  0.00    +0.075 C 
ATOM     16  C   UNL     1      -0.183   0.655  17.047  0.00  0.00    +0.013 C 
ATOM     17  C   UNL     1      -0.950   1.638  17.967  0.00  0.00    +0.001 C 
ATOM     18  C   UNL     1      -1.505   2.680  16.965  0.00  0.00    +0.001 C 
ATOM     19  C   UNL     1      -0.374   2.850  15.930  0.00  0.00    +0.013 C 
ENDBRANCH  12  15
ENDBRANCH   8  11
ENDBRANCH   2   5
BRANCH   1  20
ATOM     20  C   UNL     1       0.522  -3.075   7.133  0.00  0.00    +0.123 C 
BRANCH  20  21
ATOM     21  C   UNL     1       0.411  -2.068   5.986  0.00  0.00    +0.124 C 
BRANCH  21  25
ATOM     22  N   UNL     1       0.109  -2.762   2.388  0.00  0.00    -0.266 N 
ATOM     23  C   UNL     1       0.202  -2.101   3.559  0.00  0.00    +0.304 C 
ATOM     24  O   UNL     1       0.189  -0.885   3.573  0.00  0.00    -0.253 OA
ATOM     25  N   UNL     1       0.310  -2.787   4.714  0.00  0.00    -0.298 N 
ATOM     26  H   UNL     1       0.036  -3.730   2.382  0.00  0.00    +0.156 HD
ATOM     27  H   UNL     1       0.320  -3.757   4.702  0.00  0.00    +0.150 HD
BRANCH  22  33
ATOM     28  C   UNL     1       1.354   1.261  -0.150  0.00  0.00    +0.044 C 
ATOM     29  C   UNL     1       0.713  -0.101  -0.080  0.00  0.00    -0.048 A 
ATOM     30  C   UNL     1       0.131  -0.648  -1.208  0.00  0.00    +0.007 A 
ATOM     31  C   UNL     1      -0.459  -1.897  -1.150  0.00  0.00    +0.048 A 
ATOM     32  C   UNL     1      -0.469  -2.604   0.042  0.00  0.00    +0.141 A 
ATOM     33  C   UNL     1       0.116  -2.053   1.179  0.00  0.00    +0.077 A 
ATOM     34  C   UNL     1       0.712  -0.802   1.111  0.00  0.00    +0.030 A 
BRANCH  32  35
ATOM     35  O   UNL     1      -1.050  -3.832   0.102  0.00  0.00    -0.493 OA
ATOM     36  C   UNL     1      -1.631  -4.334  -1.103  0.00  0.00    +0.277 C 
ENDBRANCH  32  35
ENDBRANCH  22  33
ENDBRANCH  21  25
ENDBRANCH  20  21
ENDBRANCH   1  20
TORSDOF 8
