REMARK  Name = ZINC06533263
REMARK  10 active torsions:
REMARK  status: ('A' for Active; 'I' for Inactive)
REMARK    1  A    between atoms: C_1  and  C_2
REMARK    2  A    between atoms: C_4  and  C_16
REMARK    3  A    between atoms: C_5  and  C_15
REMARK    4  A    between atoms: N_6  and  C_7
REMARK    5  A    between atoms: C_7  and  C_8
REMARK    6  A    between atoms: C_8  and  C_9
REMARK    7  A    between atoms: C_16  and  C_18
REMARK    8  A    between atoms: C_18  and  S_19
REMARK    9  A    between atoms: S_19  and  C_20
REMARK   10  A    between atoms: C_24  and  N_26
REMARK                            x       y       z     vdW  Elec       q    Type
REMARK                         _______ _______ _______ _____ _____    ______ ____
ROOT
ATOM      1  C   UNL     1       0.043  -3.379  -1.448  0.00  0.00    +0.175 C 
ATOM      2  O   UNL     1       0.060  -4.471  -0.920  0.00  0.00    -0.291 OA
ENDROOT
BRANCH   1   6
ATOM      3  C   UNL     1      -0.018   1.503   0.010  0.00  0.00    +0.063 C 
ATOM      4  C   UNL     1       0.002  -0.004   0.002  0.00  0.00    +0.017 A 
ATOM      5  C   UNL     1       0.008  -0.777  -1.097  0.00  0.00    +0.034 A 
ATOM      6  C   UNL     1       0.030  -2.167  -0.625  0.00  0.00    +0.039 A 
ATOM      7  C   UNL     1       0.035  -2.098   0.755  0.00  0.00    +0.026 A 
ATOM      8  N   UNL     1       0.023  -0.801   1.110  0.00  0.00    -0.347 N 
ATOM      9  C   UNL     1       0.056  -3.273   1.700  0.00  0.00    +0.064 C 
BRANCH   8  10
ATOM     10  C   UNL     1       0.029  -0.312   2.491  0.00  0.00    +0.126 C 
BRANCH  10  11
ATOM     11  C   UNL     1      -1.411  -0.163   2.985  0.00  0.00    +0.052 C 
BRANCH  11  12
ATOM     12  C   UNL     1      -1.405   0.340   4.406  0.00  0.00    -0.072 C 
ATOM     13  C   UNL     1      -1.527   1.614   4.599  0.00  0.00    -0.028 C 
ATOM     14  C   UNL     1      -1.528   2.263   5.952  0.00  0.00    +0.027 C 
ATOM     15  C   UNL     1      -1.794   1.218   7.038  0.00  0.00    +0.004 C 
ATOM     16  C   UNL     1      -0.852   0.029   6.808  0.00  0.00    +0.005 C 
ATOM     17  C   UNL     1      -1.265  -0.668   5.508  0.00  0.00    +0.030 C 
ENDBRANCH  11  12
ENDBRANCH  10  11
ENDBRANCH   8  10
ENDBRANCH   1   6
BRANCH   1  18
ATOM     18  C   UNL     1       0.035  -3.269  -2.951  0.00  0.00    +0.157 C 
BRANCH  18  19
ATOM     19  S   UNL     1       0.056  -4.930  -3.679  0.00  0.00    -0.078 S 
BRANCH  19  20
ATOM     20  C   UNL     1       0.044  -4.635  -5.416  0.00  0.00    +0.192 A 
ATOM     21  N   UNL     1       0.030  -3.385  -5.858  0.00  0.00    -0.207 NA
ATOM     22  C   UNL     1       0.022  -3.124  -7.163  0.00  0.00    +0.122 A 
ATOM     23  C   UNL     1       0.028  -4.184  -8.066  0.00  0.00    +0.086 A 
ATOM     24  C   UNL     1       0.042  -5.482  -7.564  0.00  0.00    +0.122 A 
ATOM     25  N   UNL     1       0.055  -5.667  -6.246  0.00  0.00    -0.207 NA
ATOM     26  N   UNL     1       0.007  -1.815  -7.617  0.00  0.00    -0.343 N 
ATOM     27  H   UNL     1       0.003  -1.081  -6.982  0.00  0.00    +0.144 HD
ATOM     28  H   UNL     1       0.001  -1.632  -8.570  0.00  0.00    +0.144 HD
BRANCH  24  29
ATOM     29  N   UNL     1       0.048  -6.568  -8.426  0.00  0.00    -0.343 N 
ATOM     30  H   UNL     1       0.042  -6.425  -9.386  0.00  0.00    +0.144 HD
ATOM     31  H   UNL     1       0.058  -7.470  -8.070  0.00  0.00    +0.144 HD
ENDBRANCH  24  29
ENDBRANCH  19  20
ENDBRANCH  18  19
ENDBRANCH   1  18
TORSDOF 8
