REMARK  Name = ZINC20564090
REMARK  4 active torsions:
REMARK  status: ('A' for Active; 'I' for Inactive)
REMARK    1  A    between atoms: C_3  and  N_8
REMARK    2  A    between atoms: N_8  and  S_9
REMARK    3  A    between atoms: S_9  and  C_12
REMARK    4  A    between atoms: N_18  and  N_19
REMARK                            x       y       z     vdW  Elec       q    Type
REMARK                         _______ _______ _______ _____ _____    ______ ____
ROOT
ATOM      1  S   UNL     1      -1.188   5.971  -0.948  0.00  0.00    +0.074 S 
ATOM      2  O   UNL     1      -1.022   7.371  -0.774  0.00  0.00    -0.150 OA
ATOM      3  O   UNL     1      -1.094   5.344  -2.220  0.00  0.00    -0.150 OA
ENDROOT
BRANCH   1   4
ATOM      4  C   UNL     1      -2.780   5.570  -0.307  0.00  0.00    +0.127 A 
ATOM      5  C   UNL     1      -3.425   6.439   0.563  0.00  0.00    +0.034 A 
ATOM      6  C   UNL     1      -4.673   6.086   1.044  0.00  0.00    +0.046 A 
ATOM      7  C   UNL     1      -5.236   4.879   0.642  0.00  0.00    +0.132 A 
ATOM      8  N   UNL     1      -4.589   4.077  -0.190  0.00  0.00    -0.237 NA
ATOM      9  C   UNL     1      -3.400   4.391  -0.668  0.00  0.00    +0.141 A 
ATOM     10  N   UNL     1      -6.490   4.512   1.117  0.00  0.00    -0.268 N 
ATOM     11  H   UNL     1      -7.032   5.175   1.808  0.00  0.00    +0.167 HD
BRANCH  10  12
ATOM     12  N   UNL     1      -7.049   3.329   0.727  0.00  0.00    -0.255 NA
ATOM     13  H   UNL     1      -8.034   3.213   1.203  0.00  0.00    +0.140 HD
ATOM     14  H   UNL     1      -7.167   3.322  -0.367  0.00  0.00    +0.140 HD
ENDBRANCH  10  12
ENDBRANCH   1   4
BRANCH   1  15
ATOM     15  N   UNL     1      -0.068   5.236   0.026  0.00  0.00    -0.216 N 
ATOM     16  H   UNL     1       0.612   4.480  -0.392  0.00  0.00    +0.174 HD
BRANCH  15  19
ATOM     17  C   UNL     1       0.180   4.923   3.679  0.00  0.00    +0.003 A 
ATOM     18  C   UNL     1       0.101   4.582   2.342  0.00  0.00    +0.024 A 
ATOM     19  C   UNL     1       0.012   5.578   1.378  0.00  0.00    +0.049 A 
ATOM     20  C   UNL     1       0.004   6.913   1.760  0.00  0.00    +0.039 A 
ATOM     21  C   UNL     1       0.078   7.247   3.099  0.00  0.00    +0.020 A 
ATOM     22  C   UNL     1       0.171   6.253   4.057  0.00  0.00    +0.015 A 
ATOM     23 BR   UNL     1       0.058   9.064   3.622  0.00  0.00    -0.050 Br
ENDBRANCH  15  19
ENDBRANCH   1  15
TORSDOF 4
