REMARK  Name = ZINC02060173
REMARK  7 active torsions:
REMARK  status: ('A' for Active; 'I' for Inactive)
REMARK    1  A    between atoms: C_3  and  C_6
REMARK    2  A    between atoms: N_8  and  C_9
REMARK    3  A    between atoms: C_9  and  C_18
REMARK    4  A    between atoms: C_10  and  C_11
REMARK    5  A    between atoms: N_20  and  C_21
REMARK    6  A    between atoms: C_24  and  S_27
REMARK    7  A    between atoms: S_27  and  N_30
REMARK                            x       y       z     vdW  Elec       q    Type
REMARK                         _______ _______ _______ _____ _____    ______ ____
ROOT
ATOM      1  C   UNL     1       5.738   1.956   0.130  0.00  0.00    +0.097 C 
ATOM      2  C   UNL     1       6.441   3.110   0.213  0.00  0.00    +0.036 C 
ENDROOT
BRANCH   2   3
ATOM      3  C   UNL     1       7.893   3.105  -0.022  0.00  0.00    -0.023 A 
ATOM      4  C   UNL     1       8.672   2.029   0.416  0.00  0.00    +0.009 A 
ATOM      5  C   UNL     1      10.032   2.029   0.186  0.00  0.00    +0.016 A 
ATOM      6  C   UNL     1      10.628   3.096  -0.465  0.00  0.00    +0.018 A 
ATOM      7  C   UNL     1       9.863   4.168  -0.897  0.00  0.00    +0.016 A 
ATOM      8  C   UNL     1       8.502   4.179  -0.680  0.00  0.00    +0.009 A 
ATOM      9 BR   UNL     1      12.494   3.091  -0.768  0.00  0.00    -0.050 Br
ENDBRANCH   2   3
BRANCH   1  12
ATOM     10  C   UNL     1       3.657   0.818   0.289  0.00  0.00    +0.255 C 
ATOM     11  O   UNL     1       4.152  -0.144  -0.270  0.00  0.00    -0.269 OA
ATOM     12  N   UNL     1       4.385   1.936   0.479  0.00  0.00    -0.277 N 
ATOM     13  H   UNL     1       3.969   2.727   0.857  0.00  0.00    +0.155 HD
BRANCH  10  16
ATOM     14  C   UNL     1       0.107  -0.068   1.183  0.00  0.00    +0.008 A 
ATOM     15  C   UNL     1       1.358  -0.282   0.661  0.00  0.00    +0.021 A 
ATOM     16  C   UNL     1       2.269   0.759   0.755  0.00  0.00    +0.074 A 
ATOM     17  S   UNL     1       1.310   2.009   1.593  0.00  0.00    -0.092 S 
ATOM     18  C   UNL     1      -0.173   1.127   1.765  0.00  0.00    +0.046 A 
ENDBRANCH  10  16
ENDBRANCH   1  12
BRANCH   1  19
ATOM     19  C   UNL     1       6.398   0.726  -0.328  0.00  0.00    +0.262 C 
ATOM     20  O   UNL     1       6.697  -0.139   0.474  0.00  0.00    -0.268 OA
ATOM     21  N   UNL     1       6.672   0.554  -1.637  0.00  0.00    -0.280 N 
ATOM     22  H   UNL     1       6.484   1.266  -2.268  0.00  0.00    +0.155 HD
BRANCH  21  23
ATOM     23  C   UNL     1       7.226  -0.649  -2.083  0.00  0.00    +0.034 A 
ATOM     24  C   UNL     1       6.881  -1.845  -1.468  0.00  0.00    +0.025 A 
ATOM     25  C   UNL     1       7.426  -3.033  -1.915  0.00  0.00    +0.030 A 
ATOM     26  C   UNL     1       8.324  -3.030  -2.967  0.00  0.00    +0.105 A 
ATOM     27  C   UNL     1       8.674  -1.840  -3.578  0.00  0.00    +0.030 A 
ATOM     28  C   UNL     1       8.128  -0.650  -3.140  0.00  0.00    +0.025 A 
BRANCH  26  29
ATOM     29  S   UNL     1       9.023  -4.547  -3.529  0.00  0.00    +0.056 S 
ATOM     30  O   UNL     1       8.119  -5.576  -3.150  0.00  0.00    -0.153 OA
ATOM     31  O   UNL     1       9.415  -4.337  -4.879  0.00  0.00    -0.153 OA
BRANCH  29  32
ATOM     32  N   UNL     1      10.413  -4.795  -2.665  0.00  0.00    -0.204 NA
ATOM     33  H   UNL     1      10.690  -4.150  -1.995  0.00  0.00    +0.144 HD
ATOM     34  H   UNL     1      10.951  -5.586  -2.828  0.00  0.00    +0.144 HD
ENDBRANCH  29  32
ENDBRANCH  26  29
ENDBRANCH  21  23
ENDBRANCH   1  19
TORSDOF 7
