REMARK  Name = ZINC02316593
REMARK  10 active torsions:
REMARK  status: ('A' for Active; 'I' for Inactive)
REMARK    1  A    between atoms: C_1  and  O_2
REMARK    2  A    between atoms: O_2  and  C_3
REMARK    3  A    between atoms: C_6  and  C_11
REMARK    4  A    between atoms: C_8  and  O_9
REMARK    5  A    between atoms: O_9  and  C_10
REMARK    6  A    between atoms: C_12  and  C_13
REMARK    7  A    between atoms: N_15  and  C_16
REMARK    8  A    between atoms: C_16  and  N_18
REMARK    9  A    between atoms: N_18  and  C_19
REMARK   10  A    between atoms: C_20  and  C_30
REMARK                            x       y       z     vdW  Elec       q    Type
REMARK                         _______ _______ _______ _____ _____    ______ ____
ROOT
ATOM      1  C   UNL     1       1.147   1.655   0.000  0.00  0.00    +0.141 C 
ATOM      2  S   UNL     1       1.124   3.367   0.009  0.00  0.00    -0.018 S 
ENDROOT
BRANCH   1   5
ATOM      3  C   UNL     1      -1.187   1.624   0.017  0.00  0.00    +0.242 C 
ATOM      4  O   UNL     1      -1.204   2.841   0.023  0.00  0.00    -0.270 OA
ATOM      5  N   UNL     1      -0.011   0.966   0.007  0.00  0.00    -0.264 N 
ATOM      6  H   UNL     1       0.002  -0.004   0.002  0.00  0.00    +0.157 HD
BRANCH   3   8
ATOM      7  C   UNL     1      -3.622   1.535   0.028  0.00  0.00    +0.013 C 
ATOM      8  C   UNL     1      -2.443   0.876   0.018  0.00  0.00    +0.068 C 
BRANCH   7  12
ATOM      9  C   UNL     1      -7.265  -0.642   0.033  0.00  0.00    +0.162 A 
ATOM     10  C   UNL     1      -6.053  -1.319   0.024  0.00  0.00    +0.050 A 
ATOM     11  C   UNL     1      -4.868  -0.616   0.022  0.00  0.00    +0.012 A 
ATOM     12  C   UNL     1      -4.884   0.783   0.029  0.00  0.00    -0.021 A 
ATOM     13  C   UNL     1      -6.107   1.464   0.045  0.00  0.00    +0.057 A 
ATOM     14  C   UNL     1      -7.290   0.752   0.041  0.00  0.00    +0.162 A 
BRANCH   9  16
ATOM     15  C   UNL     1      -8.332  -2.766   0.028  0.00  0.00    +0.277 C 
ATOM     16  O   UNL     1      -8.430  -1.340   0.036  0.00  0.00    -0.491 OA
ENDBRANCH   9  16
BRANCH  14  17
ATOM     17  O   UNL     1      -8.480   1.411   0.051  0.00  0.00    -0.491 OA
ATOM     18  C   UNL     1      -8.431   2.839   0.058  0.00  0.00    +0.277 C 
ENDBRANCH  14  17
ENDBRANCH   7  12
ENDBRANCH   3   8
ENDBRANCH   1   5
BRANCH   1  19
ATOM     19  N   UNL     1       2.323   0.998  -0.015  0.00  0.00    -0.291 N 
ATOM     20  H   UNL     1       2.336   0.028  -0.020  0.00  0.00    +0.154 HD
BRANCH  19  21
ATOM     21  C   UNL     1       3.513   1.707  -0.022  0.00  0.00    +0.084 A 
ATOM     22  C   UNL     1       4.806   1.218  -0.032  0.00  0.00    +0.068 A 
ATOM     23  C   UNL     1       5.914   2.182  -0.060  0.00  0.00    -0.023 A 
ATOM     24  C   UNL     1       5.521   3.466  -0.027  0.00  0.00    -0.004 A 
ATOM     25  S   UNL     1       3.747   3.421  -0.015  0.00  0.00    -0.077 S 
ATOM     26  C   UNL     1       6.367   4.705   0.051  0.00  0.00    +0.043 C 
ATOM     27  C   UNL     1       6.768   4.876   1.527  0.00  0.00    +0.005 C 
ATOM     28  C   UNL     1       7.415   3.569   2.002  0.00  0.00    +0.000 C 
ATOM     29  C   UNL     1       8.649   3.396   1.143  0.00  0.00    +0.000 C 
ATOM     30  C   UNL     1       8.376   2.768  -0.213  0.00  0.00    +0.005 C 
ATOM     31  C   UNL     1       7.345   1.649  -0.142  0.00  0.00    +0.037 C 
BRANCH  22  32
ATOM     32  C   UNL     1       5.065  -0.224  -0.017  0.00  0.00    +0.244 C 
ATOM     33  O   UNL     1       5.160  -0.836  -1.065  0.00  0.00    -0.270 OA
ATOM     34  N   UNL     1       5.197  -0.874   1.156  0.00  0.00    -0.325 N 
ATOM     35  H   UNL     1       5.121  -0.386   1.992  0.00  0.00    +0.145 HD
ATOM     36  H   UNL     1       5.368  -1.828   1.166  0.00  0.00    +0.145 HD
ENDBRANCH  22  32
ENDBRANCH  19  21
ENDBRANCH   1  19
TORSDOF 8
