REMARK  Name = ZINC48518011
REMARK  3 active torsions:
REMARK  status: ('A' for Active; 'I' for Inactive)
REMARK    1  A    between atoms: C_5  and  S_6
REMARK    2  A    between atoms: S_6  and  N_9
REMARK    3  A    between atoms: C_10  and  C_12
REMARK                            x       y       z     vdW  Elec       q    Type
REMARK                         _______ _______ _______ _____ _____    ______ ____
ROOT
ATOM      1  N   UNL     1      -1.743  -1.437  -1.571  0.00  0.00    -0.085 NA
ATOM      2  C   UNL     1      -2.720  -2.247  -1.854  0.00  0.00    +0.295 C 
ATOM      3  O   UNL     1      -3.416  -2.840  -0.858  0.00  0.00    -0.264 OA
ENDROOT
BRANCH   2   4
ATOM      4  C   UNL     1      -3.069  -2.519  -3.266  0.00  0.00    +0.046 A 
ATOM      5  C   UNL     1      -2.349  -1.913  -4.295  0.00  0.00    +0.051 A 
ATOM      6  C   UNL     1      -2.680  -2.171  -5.612  0.00  0.00    +0.125 A 
ATOM      7  C   UNL     1      -3.725  -3.031  -5.910  0.00  0.00    +0.053 A 
ATOM      8  C   UNL     1      -4.442  -3.635  -4.892  0.00  0.00    +0.021 A 
ATOM      9  C   UNL     1      -4.117  -3.388  -3.573  0.00  0.00    +0.028 A 
ATOM     10 BR   UNL     1      -5.867  -4.806  -5.308  0.00  0.00    -0.050 Br
ATOM     11  F   UNL     1      -1.983  -1.585  -6.610  0.00  0.00    -0.205 F 
ENDBRANCH   2   4
BRANCH   1  12
ATOM     12  S   UNL     1      -1.352  -1.132   0.009  0.00  0.00    +0.108 S 
ATOM     13  O   UNL     1      -0.861  -2.352   0.548  0.00  0.00    -0.146 OA
ATOM     14  O   UNL     1      -2.455  -0.438   0.574  0.00  0.00    -0.146 OA
BRANCH  12  19
ATOM     15  C   UNL     1      -0.016   1.351   0.009  0.00  0.00    +0.038 A 
ATOM     16  C   UNL     1       1.184   2.038   0.002  0.00  0.00    +0.030 A 
ATOM     17  C   UNL     1       2.343   1.335  -0.013  0.00  0.00    +0.080 A 
ATOM     18  S   UNL     1       1.753  -0.350  -0.017  0.00  0.00    -0.056 S 
ATOM     19  C   UNL     1       0.002  -0.004   0.002  0.00  0.00    +0.151 A 
ATOM     20 CL   UNL     1       3.977   1.921  -0.026  0.00  0.00    -0.076 Cl
ENDBRANCH  12  19
ENDBRANCH   1  12
TORSDOF 3
