REMARK  Name = ZINC56159630
REMARK  11 active torsions:
REMARK  status: ('A' for Active; 'I' for Inactive)
REMARK    1  A    between atoms: C_1  and  C_2
REMARK    2  A    between atoms: C_5  and  C_8
REMARK    3  A    between atoms: C_8  and  N_9
REMARK    4  A    between atoms: C_10  and  C_12
REMARK    5  A    between atoms: C_12  and  C_14
REMARK    6  A    between atoms: C_12  and  N_15
REMARK    7  A    between atoms: N_15  and  C_16
REMARK    8  A    between atoms: C_16  and  C_18
REMARK    9  A    between atoms: C_16  and  C_19
REMARK   10  A    between atoms: C_22  and  N_25
REMARK   11  A    between atoms: N_28  and  C_29
REMARK                            x       y       z     vdW  Elec       q    Type
REMARK                         _______ _______ _______ _____ _____    ______ ____
ROOT
ATOM      1  C   UNL     1       4.402  -8.545   0.534  0.00  0.00    +0.081 C 
ATOM      2  C   UNL     1       4.485  -8.587   2.062  0.00  0.00    +0.029 C 
ENDROOT
BRANCH   1   3
ATOM      3  C   UNL     1       4.679  -9.918  -0.022  0.00  0.00    -0.031 A 
ATOM      4  C   UNL     1       3.679 -10.872  -0.033  0.00  0.00    +0.007 A 
ATOM      5  C   UNL     1       3.930 -12.132  -0.542  0.00  0.00    +0.023 A 
ATOM      6  C   UNL     1       5.188 -12.438  -1.043  0.00  0.00    +0.035 A 
ATOM      7  C   UNL     1       6.190 -11.477  -1.031  0.00  0.00    +0.023 A 
ATOM      8  C   UNL     1       5.931 -10.218  -0.525  0.00  0.00    +0.007 A 
BRANCH   6   9
ATOM      9  N   UNL     1       5.446 -13.713  -1.559  0.00  0.00    -0.269 N 
ATOM     10  C   UNL     1       4.469 -14.395  -2.190  0.00  0.00    +0.304 C 
ATOM     11  O   UNL     1       3.394 -13.866  -2.397  0.00  0.00    -0.253 OA
ATOM     12  N   UNL     1       4.684 -15.663  -2.592  0.00  0.00    -0.296 N 
ATOM     13  H   UNL     1       6.327 -14.106  -1.463  0.00  0.00    +0.156 HD
ATOM     14  H   UNL     1       5.542 -16.085  -2.428  0.00  0.00    +0.151 HD
BRANCH  12  15
ATOM     15  C   UNL     1       3.623 -16.404  -3.278  0.00  0.00    +0.075 C 
ATOM     16  C   UNL     1       3.389 -17.856  -2.858  0.00  0.00    +0.024 C 
ATOM     17  C   UNL     1       4.043 -17.546  -4.205  0.00  0.00    +0.024 C 
ENDBRANCH  12  15
ENDBRANCH   6   9
ENDBRANCH   1   3
BRANCH   1  18
ATOM     18  N   UNL     1       3.057  -8.114   0.129  0.00  0.00    -0.299 NA
ATOM     19  H   UNL     1       2.352  -8.519   0.727  0.00  0.00    +0.123 HD
BRANCH  18  20
ATOM     20  C   UNL     1       2.956  -6.649   0.112  0.00  0.00    +0.138 C 
ATOM     21  C   UNL     1       3.459  -6.119  -1.232  0.00  0.00    +0.034 C 
BRANCH  20  23
ATOM     22  N   UNL     1       1.183  -4.937   0.325  0.00  0.00    -0.310 N 
ATOM     23  C   UNL     1       1.518  -6.242   0.305  0.00  0.00    +0.230 C 
ATOM     24  O   UNL     1       0.661  -7.090   0.444  0.00  0.00    -0.274 OA
ATOM     25  H   UNL     1       1.868  -4.259   0.214  0.00  0.00    +0.149 HD
BRANCH  22  26
ATOM     26  C   UNL     1      -0.215  -4.542   0.513  0.00  0.00    +0.139 C 
BRANCH  26  31
ATOM     27  C   UNL     1      -0.616   1.222   0.447  0.00  0.00    +0.044 C 
ATOM     28  C   UNL     1      -0.511  -0.281   0.464  0.00  0.00    -0.050 A 
ATOM     29  C   UNL     1      -0.629  -0.995  -0.714  0.00  0.00    +0.003 A 
ATOM     30  C   UNL     1      -0.533  -2.374  -0.698  0.00  0.00    +0.005 A 
ATOM     31  C   UNL     1      -0.319  -3.038   0.495  0.00  0.00    -0.030 A 
ATOM     32  C   UNL     1      -0.200  -2.324   1.673  0.00  0.00    +0.005 A 
ATOM     33  C   UNL     1      -0.292  -0.945   1.656  0.00  0.00    +0.003 A 
ENDBRANCH  26  31
ENDBRANCH  22  26
ENDBRANCH  20  23
ENDBRANCH  18  20
ENDBRANCH   1  18
TORSDOF 8
