REMARK  Name = ZINC13378641
REMARK  13 active torsions:
REMARK  status: ('A' for Active; 'I' for Inactive)
REMARK    1  A    between atoms: C_1  and  C_2
REMARK    2  A    between atoms: C_2  and  C_33
REMARK    3  A    between atoms: C_3  and  C_4
REMARK    4  A    between atoms: C_4  and  C_5
REMARK    5  A    between atoms: C_5  and  C_6
REMARK    6  A    between atoms: C_6  and  C_32
REMARK    7  A    between atoms: C_7  and  C_8
REMARK    8  A    between atoms: C_8  and  C_9
REMARK    9  A    between atoms: C_10  and  O_31
REMARK   10  A    between atoms: C_14  and  O_15
REMARK   11  A    between atoms: C_18  and  O_30
REMARK   12  A    between atoms: C_20  and  C_23
REMARK   13  A    between atoms: C_26  and  O_29
REMARK                            x       y       z     vdW  Elec       q    Type
REMARK                         _______ _______ _______ _____ _____    ______ ____
ROOT
ATOM      1  C   UNL     1      -0.673   6.022   1.759  0.00  0.00    +0.040 A 
ATOM      2  C   UNL     1       0.458   6.429   1.061  0.00  0.00    +0.127 A 
ATOM      3  C   UNL     1       0.967   5.657   0.025  0.00  0.00    +0.092 A 
ATOM      4  C   UNL     1       0.351   4.468  -0.325  0.00  0.00    +0.139 A 
ATOM      5  C   UNL     1      -0.789   4.049   0.384  0.00  0.00    +0.104 A 
ATOM      6  C   UNL     1      -1.303   4.835   1.427  0.00  0.00    +0.138 A 
ATOM      7  C   UNL     1      -1.429   2.780   0.019  0.00  0.00    +0.202 C 
ATOM      8  O   UNL     1      -2.272   2.264   0.724  0.00  0.00    -0.289 OA
ATOM      9  C   UNL     1      -0.984   2.145  -1.286  0.00  0.00    +0.230 C 
ATOM     10  C   UNL     1       0.538   2.330  -1.385  0.00  0.00    +0.240 C 
ATOM     11  O   UNL     1       0.848   3.723  -1.341  0.00  0.00    -0.480 OA
ENDROOT
BRANCH  10  12
ATOM     12  C   UNL     1       1.033   1.745  -2.682  0.00  0.00    -0.004 A 
ATOM     13  C   UNL     1       0.994   2.501  -3.839  0.00  0.00    +0.011 A 
ATOM     14  C   UNL     1       1.453   1.969  -5.029  0.00  0.00    +0.046 A 
ATOM     15  C   UNL     1       1.942   0.671  -5.064  0.00  0.00    +0.117 A 
ATOM     16  C   UNL     1       1.975  -0.087  -3.903  0.00  0.00    +0.046 A 
ATOM     17  C   UNL     1       1.520   0.452  -2.715  0.00  0.00    +0.011 A 
BRANCH  15  18
ATOM     18  O   UNL     1       2.389   0.144  -6.234  0.00  0.00    -0.507 OA
ATOM     19  H   UNL     1       1.706  -0.310  -6.747  0.00  0.00    +0.292 HD
ENDBRANCH  15  18
ENDBRANCH  10  12
BRANCH   6  20
ATOM     20  O   UNL     1      -2.407   4.436   2.104  0.00  0.00    -0.506 OA
ATOM     21  H   UNL     1      -2.217   3.888   2.878  0.00  0.00    +0.292 HD
ENDBRANCH   6  20
BRANCH   9  22
ATOM     22  O   UNL     1      -1.305   0.753  -1.285  0.00  0.00    -0.380 OA
ATOM     23  H   UNL     1      -2.253   0.568  -1.225  0.00  0.00    +0.211 HD
ENDBRANCH   9  22
BRANCH   2  24
ATOM     24  O   UNL     1       1.071   7.592   1.395  0.00  0.00    -0.506 OA
ATOM     25  H   UNL     1       1.760   7.494   2.067  0.00  0.00    +0.292 HD
ENDBRANCH   2  24
BRANCH   1  26
ATOM     26  C   UNL     1      -1.214   6.874   2.878  0.00  0.00    +0.069 C 
BRANCH  26  28
ATOM     27  C   UNL     1       0.022   7.357   4.927  0.00  0.00    -0.076 C 
ATOM     28  C   UNL     1      -0.573   6.462   4.178  0.00  0.00    -0.023 C 
ATOM     29  C   UNL     1       0.174   8.773   4.433  0.00  0.00    +0.039 C 
BRANCH  27  30
ATOM     30  C   UNL     1       0.554   6.971   6.283  0.00  0.00    +0.034 C 
BRANCH  30  31
ATOM     31  C   UNL     1       2.037   6.616   6.167  0.00  0.00    +0.031 C 
BRANCH  31  34
ATOM     32  C   UNL     1       3.065   4.025   6.599  0.00  0.00    +0.038 C 
ATOM     33  C   UNL     1       3.102   5.047   7.706  0.00  0.00    -0.080 C 
ATOM     34  C   UNL     1       2.569   6.230   7.523  0.00  0.00    -0.028 C 
ATOM     35  C   UNL     1       3.751   4.708   9.023  0.00  0.00    +0.038 C 
ENDBRANCH  31  34
ENDBRANCH  30  31
ENDBRANCH  27  30
ENDBRANCH  26  28
ENDBRANCH   1  26
TORSDOF 10
