REMARK  Name = ZINC16428566
REMARK  8 active torsions:
REMARK  status: ('A' for Active; 'I' for Inactive)
REMARK    1  A    between atoms: C_6  and  N_7
REMARK    2  A    between atoms: N_7  and  C_8
REMARK    3  A    between atoms: C_8  and  N_10
REMARK    4  A    between atoms: N_10  and  C_11
REMARK    5  A    between atoms: C_11  and  C_12
REMARK    6  A    between atoms: N_15  and  C_18
REMARK    7  A    between atoms: C_18  and  N_20
REMARK    8  A    between atoms: N_20  and  C_21
REMARK                            x       y       z     vdW  Elec       q    Type
REMARK                         _______ _______ _______ _____ _____    ______ ____
ROOT
ATOM      1  C   UNL     1       3.294   7.668   0.271  0.00  0.00    +0.009 C 
ATOM      2  C   UNL     1       2.658   8.184  -1.022  0.00  0.00    +0.024 C 
ATOM      3  C   UNL     1       2.284   9.660  -0.848  0.00  0.00    +0.107 C 
ATOM      4  N   UNL     1       3.478  10.403  -0.424  0.00  0.00    -0.312 N 
ATOM      5  C   UNL     1       4.219   9.937   0.756  0.00  0.00    +0.107 C 
ATOM      6  C   UNL     1       4.571   8.459   0.565  0.00  0.00    +0.024 C 
ENDROOT
BRANCH   4   7
ATOM      7  C   UNL     1       3.886  11.493  -1.105  0.00  0.00    +0.137 C 
ATOM      8  S   UNL     1       5.352  12.269  -0.679  0.00  0.00    -0.018 S 
BRANCH   7   9
ATOM      9  N   UNL     1       3.140  11.972  -2.120  0.00  0.00    -0.297 N 
ATOM     10  H   UNL     1       3.442  11.865  -3.036  0.00  0.00    +0.154 HD
BRANCH   9  11
ATOM     11  C   UNL     1       1.931  12.623  -1.853  0.00  0.00    +0.033 A 
ATOM     12  C   UNL     1       1.557  12.886  -0.542  0.00  0.00    +0.025 A 
ATOM     13  C   UNL     1       0.366  13.535  -0.281  0.00  0.00    +0.022 A 
ATOM     14  C   UNL     1      -0.461  13.912  -1.325  0.00  0.00    +0.041 A 
ATOM     15  C   UNL     1      -0.094  13.645  -2.632  0.00  0.00    +0.022 A 
ATOM     16  C   UNL     1       1.099  13.002  -2.899  0.00  0.00    +0.025 A 
ATOM     17 CL   UNL     1      -1.961  14.720  -0.994  0.00  0.00    -0.084 Cl
ENDBRANCH   9  11
ENDBRANCH   7   9
ENDBRANCH   4   7
BRANCH   1  18
ATOM     18  C   UNL     1       3.637   6.185   0.114  0.00  0.00    +0.106 C 
BRANCH  18  19
ATOM     19  N   UNL     1       2.403   5.413  -0.048  0.00  0.00    -0.326 N 
ATOM     20  H   UNL     1       1.544   5.864  -0.043  0.00  0.00    +0.148 HD
BRANCH  19  21
ATOM     21  C   UNL     1       2.461   4.075  -0.205  0.00  0.00    +0.135 C 
ATOM     22  S   UNL     1       3.976   3.279  -0.214  0.00  0.00    -0.019 S 
BRANCH  21  23
ATOM     23  N   UNL     1       1.325   3.365  -0.354  0.00  0.00    -0.297 N 
ATOM     24  H   UNL     1       0.473   3.822  -0.428  0.00  0.00    +0.154 HD
BRANCH  23  30
ATOM     25  C   UNL     1       2.209   1.272   0.466  0.00  0.00    +0.025 A 
ATOM     26  C   UNL     1       2.256  -0.108   0.418  0.00  0.00    +0.022 A 
ATOM     27  C   UNL     1       1.475  -0.797  -0.493  0.00  0.00    +0.041 A 
ATOM     28  C   UNL     1       0.644  -0.106  -1.358  0.00  0.00    +0.022 A 
ATOM     29  C   UNL     1       0.592   1.273  -1.314  0.00  0.00    +0.025 A 
ATOM     30  C   UNL     1       1.375   1.967  -0.401  0.00  0.00    +0.033 A 
ATOM     31 CL   UNL     1       1.538  -2.531  -0.552  0.00  0.00    -0.084 Cl
ENDBRANCH  23  30
ENDBRANCH  21  23
ENDBRANCH  19  21
ENDBRANCH  18  19
ENDBRANCH   1  18
TORSDOF 8
