REMARK  Name = ZINC58848738
REMARK  8 active torsions:
REMARK  status: ('A' for Active; 'I' for Inactive)
REMARK    1  A    between atoms: C_1  and  O_2
REMARK    2  A    between atoms: O_2  and  C_3
REMARK    3  A    between atoms: C_15  and  N_16
REMARK    4  A    between atoms: N_19  and  C_20
REMARK    5  A    between atoms: C_20  and  C_21
REMARK    6  A    between atoms: C_21  and  C_22
REMARK    7  A    between atoms: C_25  and  S_28
REMARK    8  A    between atoms: S_28  and  N_31
REMARK                            x       y       z     vdW  Elec       q    Type
REMARK                         _______ _______ _______ _____ _____    ______ ____
ROOT
ATOM      1  N   UNL     1       0.093  -2.773  -0.107  0.00  0.00    -0.266 N 
ATOM      2  C   UNL     1       0.054  -4.115  -0.220  0.00  0.00    +0.304 C 
ATOM      3  O   UNL     1       0.592  -4.662  -1.164  0.00  0.00    -0.253 OA
ATOM      4  N   UNL     1      -0.582  -4.852   0.712  0.00  0.00    -0.299 N 
ATOM      5  H   UNL     1      -0.279  -2.341   0.677  0.00  0.00    +0.156 HD
ATOM      6  H   UNL     1      -1.011  -4.416   1.465  0.00  0.00    +0.150 HD
ENDROOT
BRANCH   1  19
ATOM      7  C   UNL     1       0.136  -0.750  -1.433  0.00  0.00    +0.142 A 
ATOM      8  C   UNL     1       0.706   0.017  -2.431  0.00  0.00    +0.059 A 
ATOM      9  C   UNL     1       1.810  -0.466  -3.128  0.00  0.00    +0.031 A 
ATOM     10  C   UNL     1       2.644   0.071  -4.220  0.00  0.00    +0.028 A 
ATOM     11  C   UNL     1       2.634   1.254  -4.952  0.00  0.00    +0.012 A 
ATOM     12  C   UNL     1       3.579   1.458  -5.936  0.00  0.00    +0.001 A 
ATOM     13  C   UNL     1       4.535   0.488  -6.193  0.00  0.00    +0.004 A 
ATOM     14  C   UNL     1       4.554  -0.688  -5.474  0.00  0.00    +0.047 A 
ATOM     15  C   UNL     1       3.610  -0.912  -4.478  0.00  0.00    +0.136 A 
ATOM     16  O   UNL     1       3.402  -1.950  -3.639  0.00  0.00    -0.455 OA
ATOM     17  C   UNL     1       2.346  -1.725  -2.824  0.00  0.00    +0.138 A 
ATOM     18  C   UNL     1       1.765  -2.487  -1.819  0.00  0.00    +0.074 A 
ATOM     19  C   UNL     1       0.670  -2.001  -1.124  0.00  0.00    +0.080 A 
BRANCH   7  21
ATOM     20  C   UNL     1      -1.437   1.007  -1.118  0.00  0.00    +0.277 C 
ATOM     21  O   UNL     1      -0.943  -0.282  -0.748  0.00  0.00    -0.493 OA
ENDBRANCH   7  21
ENDBRANCH   1  19
BRANCH   4  22
ATOM     22  C   UNL     1      -0.624  -6.311   0.590  0.00  0.00    +0.110 C 
BRANCH  22  23
ATOM     23  C   UNL     1      -1.401  -6.900   1.770  0.00  0.00    +0.054 C 
BRANCH  23  24
ATOM     24  C   UNL     1      -1.444  -8.401   1.643  0.00  0.00    -0.046 A 
ATOM     25  C   UNL     1      -2.478  -9.007   0.953  0.00  0.00    +0.005 A 
ATOM     26  C   UNL     1      -2.518 -10.383   0.837  0.00  0.00    +0.029 A 
ATOM     27  C   UNL     1      -1.524 -11.155   1.411  0.00  0.00    +0.105 A 
ATOM     28  C   UNL     1      -0.491 -10.549   2.101  0.00  0.00    +0.029 A 
ATOM     29  C   UNL     1      -0.448  -9.172   2.213  0.00  0.00    +0.005 A 
BRANCH  27  30
ATOM     30  S   UNL     1      -1.576 -12.910   1.265  0.00  0.00    +0.056 S 
ATOM     31  O   UNL     1      -0.826 -13.431   2.354  0.00  0.00    -0.153 OA
ATOM     32  O   UNL     1      -2.935 -13.259   1.040  0.00  0.00    -0.153 OA
BRANCH  30  33
ATOM     33  N   UNL     1      -0.750 -13.311  -0.113  0.00  0.00    -0.204 NA
ATOM     34  H   UNL     1      -0.287 -14.161  -0.171  0.00  0.00    +0.144 HD
ATOM     35  H   UNL     1      -0.729 -12.695  -0.862  0.00  0.00    +0.144 HD
ENDBRANCH  30  33
ENDBRANCH  27  30
ENDBRANCH  23  24
ENDBRANCH  22  23
ENDBRANCH   4  22
TORSDOF 7
