REMARK  Name = ZINC20533736
REMARK  6 active torsions:
REMARK  status: ('A' for Active; 'I' for Inactive)
REMARK    1  A    between atoms: C_8  and  N_11
REMARK    2  A    between atoms: C_12  and  C_14
REMARK    3  A    between atoms: C_14  and  S_15
REMARK    4  A    between atoms: S_15  and  C_16
REMARK    5  A    between atoms: N_21  and  N_22
REMARK    6  A    between atoms: C_23  and  C_24
REMARK                            x       y       z     vdW  Elec       q    Type
REMARK                         _______ _______ _______ _____ _____    ______ ____
ROOT
ATOM      1  C   UNL     1       2.522   7.322  -3.897  0.00  0.00    +0.211 A 
ATOM      2  N   UNL     1       2.416   8.639  -4.244  0.00  0.00    -0.186 NA
ATOM      3  C   UNL     1       2.958   8.793  -5.490  0.00  0.00    +0.232 A 
ATOM      4  N   UNL     1       3.382   7.620  -5.895  0.00  0.00    -0.245 N 
ATOM      5  N   UNL     1       3.111   6.689  -4.884  0.00  0.00    -0.144 NA
ATOM      6  N   UNL     1       3.046   9.982  -6.200  0.00  0.00    -0.205 N 
ATOM      7  H   UNL     1       2.657  10.913  -5.763  0.00  0.00    +0.177 HD
ATOM      8  H   UNL     1       3.853   7.517  -6.884  0.00  0.00    +0.192 HD
ENDROOT
BRANCH   6   9
ATOM      9  N   UNL     1       3.629   9.996  -7.474  0.00  0.00    -0.188 NA
ATOM     10  C   UNL     1       3.711  11.108  -8.138  0.00  0.00    +0.138 C 
BRANCH  10  11
ATOM     11  C   UNL     1       4.325  11.123  -9.479  0.00  0.00    -0.004 A 
ATOM     12  C   UNL     1       4.414  12.318 -10.197  0.00  0.00    +0.009 A 
ATOM     13  C   UNL     1       4.990  12.325 -11.450  0.00  0.00    +0.002 A 
ATOM     14  C   UNL     1       5.479  11.152 -11.997  0.00  0.00    +0.015 A 
ATOM     15  C   UNL     1       5.394   9.963 -11.292  0.00  0.00    +0.018 A 
ATOM     16  C   UNL     1       4.825   9.943 -10.034  0.00  0.00    +0.024 A 
ATOM     17 BR   UNL     1       6.065   8.366 -12.050  0.00  0.00    -0.050 Br
ENDBRANCH  10  11
ENDBRANCH   6   9
BRANCH   1  18
ATOM     18  S   UNL     1       1.973   6.601  -2.386  0.00  0.00    -0.075 S 
BRANCH  18  19
ATOM     19  C   UNL     1       2.404   4.848  -2.554  0.00  0.00    +0.173 C 
BRANCH  19  21
ATOM     20  N   UNL     1       2.203   2.780  -1.211  0.00  0.00    -0.288 N 
ATOM     21  C   UNL     1       1.982   4.106  -1.312  0.00  0.00    +0.225 C 
ATOM     22  O   UNL     1       1.444   4.701  -0.403  0.00  0.00    -0.275 OA
ATOM     23  H   UNL     1       2.692   2.239  -2.036  0.00  0.00    +0.151 HD
BRANCH  20  31
ATOM     24  C   UNL     1       0.646  -2.668  -0.018  0.00  0.00    +0.002 A 
ATOM     25  C   UNL     1      -0.685  -2.293  -0.003  0.00  0.00    +0.001 A 
ATOM     26  C   UNL     1      -1.003  -0.945   0.007  0.00  0.00    +0.016 A 
ATOM     27  C   UNL     1       0.002  -0.004   0.002  0.00  0.00    +0.032 A 
ATOM     28  C   UNL     1       1.357  -0.351  -0.013  0.00  0.00    +0.043 A 
ATOM     29  C   UNL     1       1.649  -1.727  -0.023  0.00  0.00    +0.024 A 
ATOM     30  N   UNL     1       2.297   0.678  -0.016  0.00  0.00    -0.316 N 
ATOM     31  C   UNL     1       1.793   2.058  -0.004  0.00  0.00    +0.224 C 
ATOM     32  S   UNL     1      -0.022   1.774   0.012  0.00  0.00    -0.082 S 
ATOM     33  H   UNL     1       3.380   0.488  -0.026  0.00  0.00    +0.149 HD
ENDBRANCH  20  31
ENDBRANCH  19  21
ENDBRANCH  18  19
ENDBRANCH   1  18
TORSDOF 6
