REMARK  Name = ZINC20518236
REMARK  7 active torsions:
REMARK  status: ('A' for Active; 'I' for Inactive)
REMARK    1  A    between atoms: C_1  and  C_2
REMARK    2  A    between atoms: C_2  and  C_3
REMARK    3  A    between atoms: C_3  and  C_4
REMARK    4  A    between atoms: C_4  and  C_5
REMARK    5  A    between atoms: C_8  and  N_11
REMARK    6  A    between atoms: C_16  and  C_34
REMARK    7  A    between atoms: C_34  and  C_35
REMARK                            x       y       z     vdW  Elec       q    Type
REMARK                         _______ _______ _______ _____ _____    ______ ____
ROOT
ATOM      1  N   UNL     1       3.508  -3.921   5.831  0.00  0.00    -0.210 N 
ATOM      2  C   UNL     1       4.810  -4.227   5.822  0.00  0.00    +0.232 C 
ATOM      3  O   UNL     1       5.541  -4.148   4.858  0.00  0.00    -0.274 OA
ATOM      4  C   UNL     1       5.228  -4.688   7.199  0.00  0.00    +0.108 C 
ATOM      5  C   UNL     1       5.591  -6.187   7.148  0.00  0.00    +0.076 C 
ATOM      6  N   UNL     1       4.303  -6.900   7.355  0.00  0.00    -0.295 NA
ATOM      7  C   UNL     1       3.598  -6.086   8.362  0.00  0.00    +0.136 C 
ATOM      8  C   UNL     1       3.911  -4.608   8.020  0.00  0.00    +0.123 C 
ATOM      9  C   UNL     1       2.907  -4.089   7.015  0.00  0.00    +0.233 C 
ATOM     10  O   UNL     1       1.738  -3.863   7.245  0.00  0.00    -0.274 OA
ATOM     11  C   UNL     1       2.120  -6.356   8.351  0.00  0.00    +0.006 A 
ATOM     12  C   UNL     1       1.143  -6.241   7.387  0.00  0.00    +0.046 A 
ATOM     13  C   UNL     1      -0.168  -6.576   7.685  0.00  0.00    +0.124 A 
ATOM     14  C   UNL     1      -0.491  -7.025   8.955  0.00  0.00    +0.040 A 
ATOM     15  C   UNL     1       0.485  -7.140   9.922  0.00  0.00    +0.026 A 
ATOM     16  C   UNL     1       1.805  -6.805   9.630  0.00  0.00    +0.039 A 
ATOM     17  N   UNL     1       2.952  -6.834  10.427  0.00  0.00    -0.283 N 
ATOM     18  C   UNL     1       4.047  -6.427   9.757  0.00  0.00    +0.243 C 
ATOM     19  O   UNL     1       5.177  -6.350  10.193  0.00  0.00    -0.273 OA
ATOM     20  F   UNL     1      -1.127  -6.465   6.740  0.00  0.00    -0.205 F 
ATOM     21  H   UNL     1       3.775  -6.949   6.496  0.00  0.00    +0.124 HD
ATOM     22  H   UNL     1       2.959  -7.115  11.356  0.00  0.00    +0.155 HD
ENDROOT
BRANCH   1  26
ATOM     23  C   UNL     1       1.491  -2.539   2.455  0.00  0.00    -0.047 A 
ATOM     24  C   UNL     1       1.965  -3.837   2.492  0.00  0.00    +0.005 A 
ATOM     25  C   UNL     1       2.634  -4.298   3.610  0.00  0.00    +0.024 A 
ATOM     26  C   UNL     1       2.830  -3.456   4.696  0.00  0.00    +0.044 A 
ATOM     27  C   UNL     1       2.353  -2.153   4.655  0.00  0.00    +0.024 A 
ATOM     28  C   UNL     1       1.689  -1.696   3.533  0.00  0.00    +0.005 A 
BRANCH  23  29
ATOM     29  C   UNL     1       0.761  -2.040   1.234  0.00  0.00    +0.035 C 
BRANCH  29  30
ATOM     30  C   UNL     1       1.766  -1.436   0.251  0.00  0.00    +0.004 C 
BRANCH  30  32
ATOM     31  C   UNL     1       2.031  -0.326  -1.971  0.00  0.00    +0.004 C 
ATOM     32  C   UNL     1       1.026  -0.929  -0.988  0.00  0.00    -0.003 C 
ENDBRANCH  30  32
ENDBRANCH  29  30
ENDBRANCH  23  29
ENDBRANCH   1  26
BRANCH   5  33
ATOM     33  C   UNL     1       6.187  -6.544   5.785  0.00  0.00    +0.115 C 
BRANCH  33  34
ATOM     34  C   UNL     1       6.647  -7.979   5.798  0.00  0.00    +0.212 C 
ATOM     35  O   UNL     1       6.512  -8.650   6.799  0.00  0.00    -0.276 OA
ATOM     36  N   UNL     1       7.208  -8.517   4.697  0.00  0.00    -0.329 N 
ATOM     37  H   UNL     1       7.317  -7.980   3.896  0.00  0.00    +0.145 HD
ATOM     38  H   UNL     1       7.505  -9.441   4.705  0.00  0.00    +0.145 HD
ENDBRANCH  33  34
ENDBRANCH   5  33
TORSDOF 6
