REMARK  Name = ZINC34971001
REMARK  7 active torsions:
REMARK  status: ('A' for Active; 'I' for Inactive)
REMARK    1  A    between atoms: C_1  and  C_2
REMARK    2  A    between atoms: C_2  and  C_4
REMARK    3  A    between atoms: C_2  and  N_18
REMARK    4  A    between atoms: C_8  and  C_17
REMARK    5  A    between atoms: C_13  and  C_15
REMARK    6  A    between atoms: C_13  and  C_16
REMARK    7  A    between atoms: N_21  and  C_22
REMARK                            x       y       z     vdW  Elec       q    Type
REMARK                         _______ _______ _______ _____ _____    ______ ____
ROOT
ATOM      1  C   UNL     1      -0.727   1.462   0.188  0.00  0.00    +0.038 C 
ATOM      2  C   UNL     1      -0.032   0.154  -0.195  0.00  0.00    +0.157 C 
ENDROOT
BRANCH   2   3
ATOM      3  C   UNL     1       0.984  -0.202   0.860  0.00  0.00    +0.236 C 
ATOM      4  O   UNL     1       0.682  -0.949   1.766  0.00  0.00    -0.274 OA
ATOM      5  N   UNL     1       2.229   0.311   0.795  0.00  0.00    -0.296 N 
ATOM      6  C   UNL     1       2.698   1.315  -0.172  0.00  0.00    +0.114 C 
ATOM      7  C   UNL     1       4.199   1.538   0.124  0.00  0.00    -0.014 C 
ATOM      8  C   UNL     1       4.287   1.210   1.638  0.00  0.00    +0.030 C 
ATOM      9  C   UNL     1       3.354  -0.026   1.690  0.00  0.00    +0.077 C 
ATOM     10  C   UNL     1       4.129  -1.202   1.102  0.00  0.00    +0.029 C 
ATOM     11  C   UNL     1       4.663  -0.951  -0.296  0.00  0.00    -0.033 C 
ATOM     12  C   UNL     1       5.016   0.487  -0.624  0.00  0.00    +0.014 C 
ATOM     13  C   UNL     1       5.958  -1.787  -0.447  0.00  0.00    +0.011 C 
ATOM     14  C   UNL     1       3.672  -1.497  -1.334  0.00  0.00    +0.011 C 
ATOM     15  C   UNL     1       4.648   2.974  -0.191  0.00  0.00    +0.013 C 
ENDBRANCH   2   3
BRANCH   2  16
ATOM     16  N   UNL     1      -1.028  -0.917  -0.294  0.00  0.00    -0.288 N 
ATOM     17  C   UNL     1      -1.712  -1.096  -1.441  0.00  0.00    +0.304 C 
ATOM     18  O   UNL     1      -1.504  -0.369  -2.393  0.00  0.00    -0.252 OA
ATOM     19  N   UNL     1      -2.628  -2.081  -1.532  0.00  0.00    -0.269 N 
ATOM     20  H   UNL     1      -1.194  -1.497   0.466  0.00  0.00    +0.151 HD
ATOM     21  H   UNL     1      -2.740  -2.708  -0.801  0.00  0.00    +0.156 HD
BRANCH  19  22
ATOM     22  C   UNL     1      -3.416  -2.199  -2.682  0.00  0.00    +0.036 A 
ATOM     23  C   UNL     1      -4.741  -2.603  -2.579  0.00  0.00    +0.023 A 
ATOM     24  C   UNL     1      -5.518  -2.717  -3.716  0.00  0.00    +0.003 A 
ATOM     25  C   UNL     1      -4.977  -2.431  -4.956  0.00  0.00    +0.015 A 
ATOM     26  C   UNL     1      -3.658  -2.029  -5.062  0.00  0.00    +0.020 A 
ATOM     27  C   UNL     1      -2.877  -1.907  -3.928  0.00  0.00    +0.038 A 
ATOM     28 BR   UNL     1      -2.923  -1.640  -6.761  0.00  0.00    -0.050 Br
ENDBRANCH  19  22
ENDBRANCH   2  16
TORSDOF 3
