REMARK  Name = ZINC05505125
REMARK  7 active torsions:
REMARK  status: ('A' for Active; 'I' for Inactive)
REMARK    1  A    between atoms: C_1  and  C_2
REMARK    2  A    between atoms: C_3  and  C_20
REMARK    3  A    between atoms: C_4  and  C_10
REMARK    4  A    between atoms: C_13  and  C_16
REMARK    5  A    between atoms: N_22  and  C_23
REMARK    6  A    between atoms: C_26  and  O_29
REMARK    7  A    between atoms: O_29  and  C_30
REMARK                            x       y       z     vdW  Elec       q    Type
REMARK                         _______ _______ _______ _____ _____    ______ ____
ROOT
ATOM      1  C   UNL     1       0.159   4.475  -0.763  0.00  0.00    +0.061 C 
ATOM      2  C   UNL     1      -0.068   3.135  -0.111  0.00  0.00    +0.019 C 
ATOM      3  C   UNL     1      -1.310   2.794   0.290  0.00  0.00    +0.056 C 
ATOM      4  C   UNL     1      -1.495   1.435   0.935  0.00  0.00    +0.142 C 
ATOM      5  N   UNL     1      -0.292   0.598   1.083  0.00  0.00    -0.288 N 
ATOM      6  C   UNL     1       0.883   1.078   0.632  0.00  0.00    +0.304 C 
ATOM      7  O   UNL     1       1.881   0.392   0.745  0.00  0.00    -0.252 OA
ATOM      8  N   UNL     1       0.989   2.286   0.064  0.00  0.00    -0.273 N 
ATOM      9  H   UNL     1      -0.346  -0.281   1.491  0.00  0.00    +0.151 HD
ATOM     10  H   UNL     1       1.863   2.574  -0.240  0.00  0.00    +0.156 HD
ENDROOT
BRANCH   4  11
ATOM     11  C   UNL     1      -2.080   1.653   2.306  0.00  0.00    -0.023 A 
ATOM     12  C   UNL     1      -1.271   2.072   3.345  0.00  0.00    +0.006 A 
ATOM     13  C   UNL     1      -1.809   2.277   4.602  0.00  0.00    +0.013 A 
ATOM     14  C   UNL     1      -3.155   2.051   4.822  0.00  0.00    +0.055 A 
ATOM     15  C   UNL     1      -3.964   1.627   3.784  0.00  0.00    +0.013 A 
ATOM     16  C   UNL     1      -3.426   1.428   2.526  0.00  0.00    +0.006 A 
BRANCH  14  17
ATOM     17  C   UNL     1      -3.741   2.268   6.194  0.00  0.00    +0.417 C 
ATOM     18  F   UNL     1      -3.662   1.080   6.928  0.00  0.00    -0.166 F 
ATOM     19  F   UNL     1      -3.025   3.273   6.853  0.00  0.00    -0.166 F 
ATOM     20  F   UNL     1      -5.081   2.654   6.073  0.00  0.00    -0.166 F 
ENDBRANCH  14  17
ENDBRANCH   4  11
BRANCH   3  21
ATOM     21  C   UNL     1      -2.405   3.674   0.110  0.00  0.00    +0.248 C 
ATOM     22  O   UNL     1      -3.212   3.468  -0.778  0.00  0.00    -0.270 OA
ATOM     23  N   UNL     1      -2.555   4.739   0.922  0.00  0.00    -0.282 N 
ATOM     24  H   UNL     1      -1.873   4.946   1.581  0.00  0.00    +0.155 HD
BRANCH  23  25
ATOM     25  C   UNL     1      -3.694   5.546   0.816  0.00  0.00    +0.034 A 
ATOM     26  C   UNL     1      -4.264   5.784  -0.428  0.00  0.00    +0.027 A 
ATOM     27  C   UNL     1      -5.390   6.575  -0.532  0.00  0.00    +0.047 A 
ATOM     28  C   UNL     1      -5.946   7.143   0.605  0.00  0.00    +0.120 A 
ATOM     29  C   UNL     1      -5.375   6.912   1.847  0.00  0.00    +0.047 A 
ATOM     30  C   UNL     1      -4.252   6.115   1.953  0.00  0.00    +0.027 A 
BRANCH  28  31
ATOM     31  O   UNL     1      -7.052   7.927   0.501  0.00  0.00    -0.495 OA
ATOM     32  C   UNL     1      -7.588   8.123  -0.809  0.00  0.00    +0.277 C 
ENDBRANCH  28  31
ENDBRANCH  23  25
ENDBRANCH   3  21
TORSDOF 5
