REMARK  Name = ZINC58990169
REMARK  9 active torsions:
REMARK  status: ('A' for Active; 'I' for Inactive)
REMARK    1  A    between atoms: C_3  and  C_10
REMARK    2  A    between atoms: C_5  and  N_7
REMARK    3  A    between atoms: C_13  and  S_16
REMARK    4  A    between atoms: N_14  and  N_15
REMARK    5  A    between atoms: S_16  and  C_17
REMARK    6  A    between atoms: C_17  and  C_18
REMARK    7  A    between atoms: N_20  and  N_21
REMARK    8  A    between atoms: C_22  and  C_23
REMARK    9  A    between atoms: C_28  and  O_29
REMARK                            x       y       z     vdW  Elec       q    Type
REMARK                         _______ _______ _______ _____ _____    ______ ____
ROOT
ATOM      1  C   UNL     1       3.657   2.160  -0.022  0.00  0.00    +0.182 A 
ATOM      2  N   UNL     1       4.844   1.683  -0.315  0.00  0.00    -0.127 NA
ATOM      3  N   UNL     1       5.726   2.614  -0.223  0.00  0.00    -0.121 NA
ATOM      4  C   UNL     1       5.155   3.742   0.135  0.00  0.00    +0.209 A 
ATOM      5  N   UNL     1       3.819   3.495   0.270  0.00  0.00    -0.224 N 
ENDROOT
BRANCH   1   8
ATOM      6  C   UNL     1      -0.017   1.379   0.010  0.00  0.00    +0.003 A 
ATOM      7  C   UNL     1       1.167   2.088   0.002  0.00  0.00    +0.012 A 
ATOM      8  C   UNL     1       2.385   1.407  -0.013  0.00  0.00    +0.023 A 
ATOM      9  C   UNL     1       2.397   0.011  -0.021  0.00  0.00    +0.044 A 
ATOM     10  C   UNL     1       1.206  -0.686  -0.013  0.00  0.00    +0.127 A 
ATOM     11  C   UNL     1       0.002  -0.004   0.002  0.00  0.00    +0.033 A 
BRANCH  10  12
ATOM     12  N   UNL     1       1.217  -2.166  -0.021  0.00  0.00    +0.056 N 
ATOM     13  O   UNL     1       2.268  -2.763  -0.035  0.00  0.00    -0.126 OA
ATOM     14  O   UNL     1       0.174  -2.778  -0.015  0.00  0.00    -0.126 OA
ENDBRANCH  10  12
ENDBRANCH   1   8
BRANCH   5  15
ATOM     15  N   UNL     1       2.846   4.386   0.623  0.00  0.00    -0.295 N 
ATOM     16  H   UNL     1       2.722   4.408   1.625  0.00  0.00    +0.163 HD
ATOM     17  H   UNL     1       3.051   5.307   0.265  0.00  0.00    +0.163 HD
ENDBRANCH   5  15
BRANCH   4  18
ATOM     18  S   UNL     1       5.963   5.288   0.387  0.00  0.00    -0.075 S 
BRANCH  18  19
ATOM     19  C   UNL     1       7.707   4.933   0.040  0.00  0.00    +0.174 C 
BRANCH  19  20
ATOM     20  C   UNL     1       8.521   6.189   0.221  0.00  0.00    +0.242 C 
ATOM     21  O   UNL     1       7.977   7.221   0.552  0.00  0.00    -0.273 OA
ATOM     22  N   UNL     1       9.853   6.164   0.015  0.00  0.00    -0.206 N 
ATOM     23  H   UNL     1      10.288   5.338  -0.249  0.00  0.00    +0.177 HD
BRANCH  22  24
ATOM     24  N   UNL     1      10.609   7.331   0.184  0.00  0.00    -0.188 NA
ATOM     25  C   UNL     1      11.892   7.308  -0.014  0.00  0.00    +0.142 C 
BRANCH  25  26
ATOM     26  C   UNL     1      12.687   8.536   0.163  0.00  0.00    +0.037 A 
ATOM     27  C   UNL     1      14.067   8.516  -0.054  0.00  0.00    +0.028 A 
ATOM     28  C   UNL     1      14.806   9.669   0.113  0.00  0.00    +0.019 A 
ATOM     29  C   UNL     1      14.185  10.847   0.496  0.00  0.00    +0.019 A 
ATOM     30  C   UNL     1      12.820  10.878   0.714  0.00  0.00    +0.047 A 
ATOM     31  C   UNL     1      12.063   9.731   0.545  0.00  0.00    +0.126 A 
ATOM     32 BR   UNL     1      16.673   9.642  -0.182  0.00  0.00    -0.050 Br
BRANCH  31  33
ATOM     33  O   UNL     1      10.721   9.763   0.754  0.00  0.00    -0.506 OA
ATOM     34  H   UNL     1      10.460   9.567   1.664  0.00  0.00    +0.292 HD
ENDBRANCH  31  33
ENDBRANCH  25  26
ENDBRANCH  22  24
ENDBRANCH  19  20
ENDBRANCH  18  19
ENDBRANCH   4  18
TORSDOF 9
