REMARK  Name = ZINC67388608
REMARK  11 active torsions:
REMARK  status: ('A' for Active; 'I' for Inactive)
REMARK    1  A    between atoms: C_1  and  C_2
REMARK    2  A    between atoms: C_2  and  C_3
REMARK    3  A    between atoms: C_3  and  C_4
REMARK    4  A    between atoms: C_3  and  C_6
REMARK    5  A    between atoms: C_4  and  C_5
REMARK    6  A    between atoms: C_6  and  C_8
REMARK    7  A    between atoms: C_6  and  N_22
REMARK    8  A    between atoms: C_8  and  N_9
REMARK    9  A    between atoms: N_12  and  N_13
REMARK   10  A    between atoms: C_14  and  C_16
REMARK   11  A    between atoms: C_17  and  C_21
REMARK                            x       y       z     vdW  Elec       q    Type
REMARK                         _______ _______ _______ _____ _____    ______ ____
ROOT
ATOM      1  N   UNL     1       2.537  -3.810  -0.541  0.00  0.00    -0.300 N 
ATOM      2  C   UNL     1       3.350  -4.250  -1.522  0.00  0.00    +0.316 C 
ATOM      3  O   UNL     1       3.871  -3.457  -2.281  0.00  0.00    -0.251 OA
ATOM      4  N   UNL     1       3.587  -5.570  -1.659  0.00  0.00    -0.218 N 
ATOM      5  H   UNL     1       2.121  -4.443   0.065  0.00  0.00    +0.150 HD
ATOM      6  H   UNL     1       4.173  -5.886  -2.365  0.00  0.00    +0.174 HD
ENDROOT
BRANCH   4   7
ATOM      7  N   UNL     1       2.987  -6.484  -0.784  0.00  0.00    -0.229 N 
ATOM      8  C   UNL     1       3.224  -7.804  -0.921  0.00  0.00    +0.267 C 
ATOM      9  O   UNL     1       3.958  -8.201  -1.807  0.00  0.00    -0.268 OA
ATOM     10  H   UNL     1       2.401  -6.167  -0.078  0.00  0.00    +0.173 HD
BRANCH   8  11
ATOM     11  C   UNL     1       2.596  -8.761  -0.005  0.00  0.00    +0.078 A 
ATOM     12  C   UNL     1       2.710 -10.142   0.029  0.00  0.00    -0.031 A 
ATOM     13  C   UNL     1       1.994 -10.776   1.016  0.00  0.00    +0.011 A 
ATOM     14  C   UNL     1       1.245 -10.033   1.867  0.00  0.00    +0.046 A 
ATOM     15  S   UNL     1       1.492  -8.451   1.360  0.00  0.00    -0.092 S 
ATOM     16  C   UNL     1       3.565 -10.900  -0.954  0.00  0.00    +0.045 C 
ENDBRANCH   8  11
ENDBRANCH   4   7
BRANCH   1  17
ATOM     17  C   UNL     1       2.280  -2.376  -0.392  0.00  0.00    +0.091 C 
BRANCH  17  18
ATOM     18  C   UNL     1       1.194  -2.160   0.664  0.00  0.00    -0.048 C 
BRANCH  18  19
ATOM     19  N   UNL     1      -0.096  -2.633   0.145  0.00  0.00    +0.383 N 
ATOM     20  C   UNL     1       0.006  -4.060  -0.257  0.00  0.00    -0.078 C 
ATOM     21  C   UNL     1      -1.465  -4.543  -0.227  0.00  0.00    -0.020 C 
ATOM     22  C   UNL     1      -2.049  -3.798   0.996  0.00  0.00    -0.020 C 
ATOM     23  C   UNL     1      -1.123  -2.586   1.208  0.00  0.00    -0.078 C 
ATOM     24  H   UNL     1      -0.383  -2.070  -0.641  0.00  0.00    -0.081 HD
ENDBRANCH  18  19
BRANCH  18  25
ATOM     25  C   UNL     1       1.094  -0.669   0.996  0.00  0.00    -0.024 C 
BRANCH  25  27
ATOM     26  C   UNL     1       0.515   1.584   0.085  0.00  0.00    +0.004 C 
ATOM     27  C   UNL     1       0.506   0.081  -0.201  0.00  0.00    -0.002 C 
ENDBRANCH  25  27
BRANCH  25  28
ATOM     28  C   UNL     1       0.187  -0.477   2.213  0.00  0.00    -0.002 C 
ATOM     29  C   UNL     1       0.786  -1.209   3.416  0.00  0.00    +0.004 C 
ENDBRANCH  25  28
ENDBRANCH  18  25
ENDBRANCH  17  18
ENDBRANCH   1  17
TORSDOF 8
