REMARK  Name = ZINC32947440
REMARK  6 active torsions:
REMARK  status: ('A' for Active; 'I' for Inactive)
REMARK    1  A    between atoms: C_1  and  C_2
REMARK    2  A    between atoms: C_2  and  C_3
REMARK    3  A    between atoms: C_2  and  C_4
REMARK    4  A    between atoms: C_4  and  C_6
REMARK    5  A    between atoms: C_7  and  N_19
REMARK    6  A    between atoms: N_11  and  C_12
REMARK                            x       y       z     vdW  Elec       q    Type
REMARK                         _______ _______ _______ _____ _____    ______ ____
ROOT
ATOM      1  C   UNL     1      -0.016   1.393   0.007  0.00  0.00    +0.097 A 
ATOM      2  C   UNL     1       1.052   2.306  -0.019  0.00  0.00    +0.136 A 
ATOM      3  N   UNL     1       0.751   3.582  -0.009  0.00  0.00    -0.210 NA
ATOM      4  C   UNL     1      -0.505   4.000   0.024  0.00  0.00    +0.165 A 
ATOM      5  S   UNL     1      -1.406   2.516   0.037  0.00  0.00    -0.047 S 
ATOM      6  N   UNL     1      -0.980   5.292   0.038  0.00  0.00    -0.294 N 
ATOM      7  H   UNL     1      -2.061   5.482  -0.031  0.00  0.00    +0.154 HD
ENDROOT
BRANCH   6   8
ATOM      8  C   UNL     1      -0.087   6.363   0.142  0.00  0.00    +0.033 A 
ATOM      9  C   UNL     1       1.153   6.181   0.741  0.00  0.00    +0.024 A 
ATOM     10  C   UNL     1       2.035   7.239   0.836  0.00  0.00    +0.017 A 
ATOM     11  C   UNL     1       1.680   8.484   0.346  0.00  0.00    +0.018 A 
ATOM     12  C   UNL     1       0.443   8.670  -0.246  0.00  0.00    +0.017 A 
ATOM     13  C   UNL     1      -0.441   7.613  -0.350  0.00  0.00    +0.024 A 
ATOM     14 BR   UNL     1       2.887   9.932   0.485  0.00  0.00    -0.050 Br
ENDBRANCH   6   8
BRANCH   2  15
ATOM     15  N   UNL     1       2.367   1.876  -0.053  0.00  0.00    -0.342 N 
ATOM     16  H   UNL     1       3.186   2.610  -0.073  0.00  0.00    +0.144 HD
ATOM     17  H   UNL     1       2.594   0.799  -0.060  0.00  0.00    +0.144 HD
ENDBRANCH   2  15
BRANCH   1  18
ATOM     18  C   UNL     1       0.003  -0.004   0.004  0.00  0.00    +0.176 C 
ATOM     19  O   UNL     1       1.065  -0.597  -0.025  0.00  0.00    -0.291 OA
BRANCH  18  21
ATOM     20  C   UNL     1      -1.766  -1.034  -1.395  0.00  0.00    +0.015 C 
ATOM     21  C   UNL     1      -1.291  -0.775   0.036  0.00  0.00    +0.055 C 
ATOM     22  C   UNL     1      -1.071  -2.111   0.749  0.00  0.00    +0.015 C 
ENDBRANCH  18  21
ENDBRANCH   1  18
TORSDOF 4
