REMARK  Name = ZINC03371819
REMARK  5 active torsions:
REMARK  status: ('A' for Active; 'I' for Inactive)
REMARK    1  A    between atoms: C_1  and  C_2
REMARK    2  A    between atoms: C_2  and  C_4
REMARK    3  A    between atoms: C_2  and  N_16
REMARK    4  A    between atoms: N_9  and  C_10
REMARK    5  A    between atoms: N_16  and  C_17
REMARK                            x       y       z     vdW  Elec       q    Type
REMARK                         _______ _______ _______ _____ _____    ______ ____
ROOT
ATOM      1  C   UNL     1       4.565   0.725   1.301  0.00  0.00    +0.240 C 
ATOM      2  O   UNL     1       4.300  -0.295   1.901  0.00  0.00    -0.273 OA
ATOM      3  N   UNL     1       3.596   1.392   0.645  0.00  0.00    -0.239 N 
ATOM      4  C   UNL     1       2.331   0.926   0.654  0.00  0.00    +0.306 C 
ATOM      5  O   UNL     1       2.065  -0.097   1.255  0.00  0.00    -0.252 OA
ATOM      6  N   UNL     1       1.362   1.593  -0.002  0.00  0.00    -0.296 N 
ATOM      7  H   UNL     1       3.808   2.208   0.165  0.00  0.00    +0.159 HD
ATOM      8  H   UNL     1       1.574   2.409  -0.482  0.00  0.00    +0.151 HD
ENDROOT
BRANCH   6   9
ATOM      9  C   UNL     1      -0.013   1.086   0.008  0.00  0.00    +0.074 C 
ATOM     10  C   UNL     1      -0.729   1.579   1.267  0.00  0.00    +0.022 C 
ATOM     11  C   UNL     1      -2.164   1.050   1.278  0.00  0.00    +0.002 C 
ATOM     12  C   UNL     1      -2.904   1.556   0.038  0.00  0.00    +0.000 C 
ATOM     13  C   UNL     1      -2.188   1.063  -1.221  0.00  0.00    +0.002 C 
ATOM     14  C   UNL     1      -0.753   1.593  -1.232  0.00  0.00    +0.022 C 
ENDBRANCH   6   9
BRANCH   1  16
ATOM     15  C   UNL     1       6.487   1.313  -0.151  0.00  0.00    +0.038 C 
ATOM     16  C   UNL     1       5.979   1.246   1.291  0.00  0.00    +0.154 C 
BRANCH  16  17
ATOM     17  N   UNL     1       6.836   0.350   2.070  0.00  0.00    -0.333 N 
ATOM     18  H   UNL     1       6.588  -0.581   2.184  0.00  0.00    +0.147 HD
BRANCH  17  19
ATOM     19  C   UNL     1       8.012   0.835   2.648  0.00  0.00    +0.028 A 
ATOM     20  C   UNL     1       8.372   2.166   2.481  0.00  0.00    +0.024 A 
ATOM     21  C   UNL     1       9.531   2.644   3.059  0.00  0.00    +0.016 A 
ATOM     22  C   UNL     1      10.340   1.796   3.794  0.00  0.00    +0.013 A 
ATOM     23  C   UNL     1       9.987   0.469   3.958  0.00  0.00    +0.016 A 
ATOM     24  C   UNL     1       8.825  -0.014   3.388  0.00  0.00    +0.024 A 
ATOM     25  I   UNL     1      12.102   2.524   4.662  0.00  0.00    -0.044 I 
ENDBRANCH  17  19
ENDBRANCH  16  17
ENDBRANCH   1  16
TORSDOF 4
