REMARK  Name = ZINC45599505
REMARK  7 active torsions:
REMARK  status: ('A' for Active; 'I' for Inactive)
REMARK    1  A    between atoms: C_1  and  C_2
REMARK    2  A    between atoms: C_11  and  N_27
REMARK    3  A    between atoms: C_13  and  C_15
REMARK    4  A    between atoms: C_15  and  S_16
REMARK    5  A    between atoms: S_16  and  C_17
REMARK    6  A    between atoms: C_20  and  N_23
REMARK    7  A    between atoms: C_24  and  C_26
REMARK                            x       y       z     vdW  Elec       q    Type
REMARK                         _______ _______ _______ _____ _____    ______ ____
ROOT
ATOM      1  C   UNL     1      -2.507   0.173  -0.446  0.00  0.00    +0.008 C 
ATOM      2  C   UNL     1      -1.974  -1.260  -0.390  0.00  0.00    -0.009 C 
ATOM      3  C   UNL     1      -1.026  -1.502  -1.568  0.00  0.00    +0.008 C 
ATOM      4  C   UNL     1      -0.686  -2.989  -1.663  0.00  0.00    +0.037 C 
ATOM      5  C   UNL     1      -0.178  -3.468  -0.305  0.00  0.00    -0.025 A 
ATOM      6  C   UNL     1      -0.432  -2.754   0.814  0.00  0.00    -0.004 A 
ATOM      7  S   UNL     1       0.333  -3.664   2.133  0.00  0.00    -0.073 S 
ATOM      8  C   UNL     1       0.993  -4.997   1.186  0.00  0.00    +0.114 A 
ATOM      9  C   UNL     1       0.593  -4.689  -0.139  0.00  0.00    +0.051 A 
ATOM     10  C   UNL     1       0.987  -5.603  -1.158  0.00  0.00    +0.128 A 
ATOM     11  N   UNL     1       1.694  -6.656  -0.751  0.00  0.00    -0.216 NA
ATOM     12  C   UNL     1       2.030  -6.877   0.503  0.00  0.00    +0.142 A 
ATOM     13  N   UNL     1       1.696  -6.066   1.501  0.00  0.00    -0.224 NA
ATOM     14  C   UNL     1      -1.200  -1.471   0.919  0.00  0.00    +0.046 C 
ENDROOT
BRANCH  10  15
ATOM     15  N   UNL     1       0.655  -5.410  -2.487  0.00  0.00    -0.343 N 
ATOM     16  H   UNL     1       1.123  -5.901  -3.180  0.00  0.00    +0.144 HD
ATOM     17  H   UNL     1      -0.045  -4.782  -2.726  0.00  0.00    +0.144 HD
ENDBRANCH  10  15
BRANCH  12  18
ATOM     18  C   UNL     1       2.834  -8.111   0.823  0.00  0.00    +0.150 C 
BRANCH  18  19
ATOM     19  S   UNL     1       4.603  -7.725   0.719  0.00  0.00    -0.117 S 
BRANCH  19  20
ATOM     20  C   UNL     1       5.396  -9.248   1.113  0.00  0.00    +0.008 A 
ATOM     21  C   UNL     1       4.634 -10.374   1.401  0.00  0.00    +0.016 A 
ATOM     22  C   UNL     1       5.256 -11.567   1.710  0.00  0.00    +0.024 A 
ATOM     23  C   UNL     1       6.642 -11.642   1.733  0.00  0.00    +0.033 A 
ATOM     24  C   UNL     1       7.404 -10.517   1.445  0.00  0.00    +0.024 A 
ATOM     25  C   UNL     1       6.783  -9.325   1.131  0.00  0.00    +0.016 A 
BRANCH  23  26
ATOM     26  N   UNL     1       7.273 -12.854   2.048  0.00  0.00    -0.286 N 
ATOM     27  C   UNL     1       6.705 -14.022   1.688  0.00  0.00    +0.214 C 
ATOM     28  O   UNL     1       5.699 -14.024   1.011  0.00  0.00    -0.276 OA
ATOM     29  C   UNL     1       7.321 -15.325   2.128  0.00  0.00    +0.109 C 
ATOM     30  H   UNL     1       8.118 -12.851   2.524  0.00  0.00    +0.155 HD
ENDBRANCH  23  26
ENDBRANCH  19  20
ENDBRANCH  18  19
ENDBRANCH  12  18
TORSDOF 5
