REMARK  Name = ZINC50441401
REMARK  6 active torsions:
REMARK  status: ('A' for Active; 'I' for Inactive)
REMARK    1  A    between atoms: C_2  and  N_16
REMARK    2  A    between atoms: C_5  and  O_8
REMARK    3  A    between atoms: O_8  and  C_9
REMARK    4  A    between atoms: C_9  and  C_10
REMARK    5  A    between atoms: C_10  and  C_11
REMARK    6  A    between atoms: C_11  and  C_12
REMARK                            x       y       z     vdW  Elec       q    Type
REMARK                         _______ _______ _______ _____ _____    ______ ____
ROOT
ATOM      1  C   UNL     1      -0.017   1.378   0.010  0.00  0.00    +0.051 A 
ATOM      2  C   UNL     1       1.170   2.087   0.002  0.00  0.00    +0.129 A 
ATOM      3  C   UNL     1       2.379   1.416  -0.013  0.00  0.00    +0.051 A 
ATOM      4  C   UNL     1       2.404   0.034  -0.021  0.00  0.00    +0.063 A 
ATOM      5  C   UNL     1       1.214  -0.680  -0.013  0.00  0.00    +0.148 A 
ATOM      6  C   UNL     1       0.002  -0.004   0.002  0.00  0.00    +0.063 A 
ATOM      7 BR   UNL     1      -1.622  -0.973   0.013  0.00  0.00    -0.046 Br
ATOM      8 BR   UNL     1       4.058  -0.883  -0.044  0.00  0.00    -0.046 Br
ENDROOT
BRANCH   2   9
ATOM      9  N   UNL     1       1.147   3.567   0.010  0.00  0.00    +0.056 N 
ATOM     10  O   UNL     1       0.091   4.155   0.023  0.00  0.00    -0.126 OA
ATOM     11  O   UNL     1       2.184   4.188   0.004  0.00  0.00    -0.126 OA
ENDBRANCH   2   9
BRANCH   5  12
ATOM     12  O   UNL     1       1.235  -2.039  -0.022  0.00  0.00    -0.490 OA
BRANCH  12  13
ATOM     13  C   UNL     1       1.259  -2.696   1.247  0.00  0.00    +0.229 C 
BRANCH  13  14
ATOM     14  C   UNL     1       1.280  -4.211   1.038  0.00  0.00    +0.048 C 
BRANCH  14  15
ATOM     15  C   UNL     1       1.305  -4.914   2.396  0.00  0.00    +0.072 C 
BRANCH  15  16
ATOM     16  C   UNL     1       1.327  -6.406   2.190  0.00  0.00    +0.063 C 
ATOM     17  N   UNL     1       0.192  -7.079   2.111  0.00  0.00    -0.391 N 
ATOM     18  N   UNL     1       2.481  -7.043   2.087  0.00  0.00    -0.348 N 
ATOM     19  H   UNL     1      -0.655  -6.612   2.186  0.00  0.00    +0.157 HD
ATOM     20  H   UNL     1       3.314  -6.549   2.145  0.00  0.00    +0.143 HD
ATOM     21  H   UNL     1       2.494  -8.004   1.954  0.00  0.00    +0.143 HD
ATOM     22  H   UNL     1       0.205  -8.040   1.978  0.00  0.00    +0.157 HD
ENDBRANCH  15  16
ENDBRANCH  14  15
ENDBRANCH  13  14
ENDBRANCH  12  13
ENDBRANCH   5  12
TORSDOF 6
