REMARK  Name = ZINC16720771
REMARK  6 active torsions:
REMARK  status: ('A' for Active; 'I' for Inactive)
REMARK    1  A    between atoms: C_8  and  N_9
REMARK    2  A    between atoms: N_9  and  C_10
REMARK    3  A    between atoms: C_12  and  S_17
REMARK    4  A    between atoms: C_15  and  O_16
REMARK    5  A    between atoms: S_17  and  N_20
REMARK    6  A    between atoms: N_20  and  C_21
REMARK                            x       y       z     vdW  Elec       q    Type
REMARK                         _______ _______ _______ _____ _____    ______ ____
ROOT
ATOM      1  C   UNL     1      -2.227  -2.993   0.559  0.00  0.00    +0.075 A 
ATOM      2  C   UNL     1      -2.151  -4.373   0.431  0.00  0.00    +0.055 A 
ATOM      3  C   UNL     1      -3.296  -5.140   0.533  0.00  0.00    +0.110 A 
ATOM      4  C   UNL     1      -4.519  -4.536   0.762  0.00  0.00    +0.032 A 
ATOM      5  C   UNL     1      -4.602  -3.162   0.890  0.00  0.00    +0.049 A 
ATOM      6  C   UNL     1      -3.458  -2.386   0.795  0.00  0.00    +0.138 A 
ENDROOT
BRANCH   3   7
ATOM      7  S   UNL     1      -3.198  -6.891   0.371  0.00  0.00    +0.072 S 
ATOM      8  O   UNL     1      -4.448  -7.322  -0.151  0.00  0.00    -0.150 OA
ATOM      9  O   UNL     1      -1.965  -7.171  -0.277  0.00  0.00    -0.150 OA
BRANCH   7  10
ATOM     10  N   UNL     1      -3.083  -7.519   1.899  0.00  0.00    -0.216 N 
ATOM     11  H   UNL     1      -3.797  -8.073   2.251  0.00  0.00    +0.174 HD
BRANCH  10  12
ATOM     12  C   UNL     1      -1.957  -7.250   2.681  0.00  0.00    +0.049 A 
ATOM     13  C   UNL     1      -0.685  -7.365   2.134  0.00  0.00    +0.024 A 
ATOM     14  C   UNL     1       0.426  -7.098   2.909  0.00  0.00    +0.003 A 
ATOM     15  C   UNL     1       0.274  -6.717   4.229  0.00  0.00    +0.020 A 
ATOM     16  C   UNL     1      -0.991  -6.602   4.779  0.00  0.00    +0.043 A 
ATOM     17  C   UNL     1      -2.107  -6.862   4.006  0.00  0.00    +0.044 A 
ATOM     18 CL   UNL     1      -1.176  -6.123   6.437  0.00  0.00    -0.083 Cl
ENDBRANCH  10  12
ENDBRANCH   7  10
ENDBRANCH   3   7
BRANCH   1  19
ATOM     19  N   UNL     1      -1.069  -2.215   0.456  0.00  0.00    -0.317 N 
ATOM     20  H   UNL     1      -1.123  -1.251   0.549  0.00  0.00    +0.152 HD
BRANCH  19  28
ATOM     21  C   UNL     1       0.444   0.723   2.654  0.00  0.00    +0.001 A 
ATOM     22  C   UNL     1       1.637   1.431   2.662  0.00  0.00    +0.001 A 
ATOM     23  C   UNL     1       2.709   1.014   1.904  0.00  0.00    +0.013 A 
ATOM     24  C   UNL     1       2.594  -0.135   1.119  0.00  0.00    +0.045 A 
ATOM     25  C   UNL     1       1.380  -0.853   1.114  0.00  0.00    +0.000 A 
ATOM     26  C   UNL     1       0.310  -0.415   1.886  0.00  0.00    +0.009 A 
ATOM     27  C   UNL     1       1.290  -2.064   0.273  0.00  0.00    +0.059 C 
ATOM     28  C   UNL     1       0.131  -2.809   0.225  0.00  0.00    +0.085 C 
ATOM     29  C   UNL     1       2.469  -2.450  -0.509  0.00  0.00    +0.252 C 
ATOM     30  O   UNL     1       2.428  -3.443  -1.212  0.00  0.00    -0.270 OA
ATOM     31  N   UNL     1       3.595  -1.719  -0.457  0.00  0.00    -0.248 N 
ATOM     32  C   UNL     1       3.712  -0.614   0.296  0.00  0.00    +0.251 C 
ATOM     33  O   UNL     1       4.761   0.001   0.296  0.00  0.00    -0.270 OA
ATOM     34  H   UNL     1       4.356  -2.003  -0.987  0.00  0.00    +0.158 HD
ENDBRANCH  19  28
ENDBRANCH   1  19
BRANCH   6  35
ATOM     35  O   UNL     1      -3.538  -1.035   0.927  0.00  0.00    -0.505 OA
ATOM     36  H   UNL     1      -3.691  -0.567   0.094  0.00  0.00    +0.292 HD
ENDBRANCH   6  35
TORSDOF 6
