REMARK  Name = ZINC44857628
REMARK  5 active torsions:
REMARK  status: ('A' for Active; 'I' for Inactive)
REMARK    1  A    between atoms: C_1  and  C_2
REMARK    2  A    between atoms: C_8  and  C_9
REMARK    3  A    between atoms: C_12  and  N_15
REMARK    4  A    between atoms: N_15  and  C_16
REMARK    5  A    between atoms: N_15  and  C_17
REMARK                            x       y       z     vdW  Elec       q    Type
REMARK                         _______ _______ _______ _____ _____    ______ ____
ROOT
ATOM      1  C   UNL     1       0.544   1.429   0.004  0.00  0.00    +0.068 C 
ATOM      2  C   UNL     1       0.129  -0.020   0.003  0.00  0.00    +0.069 C 
ATOM      3  N   UNL     1      -0.095  -0.753  -1.044  0.00  0.00    -0.175 NA
ATOM      4  N   UNL     1      -0.462  -2.051  -0.688  0.00  0.00    -0.132 N 
ATOM      5  C   UNL     1      -0.481  -2.176   0.655  0.00  0.00    +0.274 C 
ATOM      6  O   UNL     1      -0.758  -3.175   1.294  0.00  0.00    -0.268 OA
ATOM      7  C   UNL     1      -0.090  -0.861   1.190  0.00  0.00    +0.062 C 
ATOM      8  C   UNL     1       0.039  -0.496   2.519  0.00  0.00    +0.023 C 
ATOM      9  C   UNL     1      -0.765  -3.065  -1.585  0.00  0.00    +0.189 A 
ATOM     10  N   UNL     1      -1.123  -4.303  -1.337  0.00  0.00    -0.223 NA
ATOM     11  C   UNL     1      -1.390  -5.192  -2.318  0.00  0.00    +0.080 A 
ATOM     12  C   UNL     1      -1.782  -6.545  -2.188  0.00  0.00    +0.029 A 
ATOM     13  C   UNL     1      -2.015  -7.316  -3.297  0.00  0.00    +0.002 A 
ATOM     14  C   UNL     1      -1.877  -6.803  -4.579  0.00  0.00    +0.001 A 
ATOM     15  C   UNL     1      -1.495  -5.484  -4.743  0.00  0.00    +0.017 A 
ATOM     16  C   UNL     1      -1.260  -4.704  -3.639  0.00  0.00    +0.041 A 
ATOM     17  S   UNL     1      -0.774  -3.016  -3.372  0.00  0.00    -0.050 S 
ENDROOT
BRANCH   8  18
ATOM     18  C   UNL     1      -0.049  -1.510   3.567  0.00  0.00    -0.024 A 
ATOM     19  C   UNL     1      -0.745  -1.236   4.756  0.00  0.00    +0.010 A 
ATOM     20  C   UNL     1      -0.825  -2.186   5.731  0.00  0.00    +0.023 A 
ATOM     21  C   UNL     1      -0.215  -3.427   5.551  0.00  0.00    +0.029 A 
ATOM     22  C   UNL     1       0.478  -3.704   4.373  0.00  0.00    +0.023 A 
ATOM     23  C   UNL     1       0.557  -2.763   3.388  0.00  0.00    +0.010 A 
BRANCH  21  24
ATOM     24  N   UNL     1      -0.299  -4.390   6.547  0.00  0.00    -0.336 N 
ATOM     25  C   UNL     1      -1.123  -4.147   7.734  0.00  0.00    +0.129 C 
ATOM     26  C   UNL     1       0.437  -5.650   6.412  0.00  0.00    +0.129 C 
ENDBRANCH  21  24
ENDBRANCH   8  18
TORSDOF 2
