REMARK  Name = ZINC29695907
REMARK  6 active torsions:
REMARK  status: ('A' for Active; 'I' for Inactive)
REMARK    1  A    between atoms: C_1  and  C_2
REMARK    2  A    between atoms: C_2  and  C_4
REMARK    3  A    between atoms: C_2  and  N_14
REMARK    4  A    between atoms: C_15  and  C_17
REMARK    5  A    between atoms: C_17  and  O_18
REMARK    6  A    between atoms: O_18  and  C_19
REMARK                            x       y       z     vdW  Elec       q    Type
REMARK                         _______ _______ _______ _____ _____    ______ ____
ROOT
ATOM      1  N   UNL     1       3.163  10.396  -0.554  0.00  0.00    -0.306 N 
ATOM      2  C   UNL     1       2.155   9.568  -0.214  0.00  0.00    +0.251 C 
ATOM      3  O   UNL     1       1.098  10.023   0.168  0.00  0.00    -0.272 OA
ATOM      4  H   UNL     1       4.122   9.983  -0.900  0.00  0.00    +0.149 HD
ENDROOT
BRANCH   1   6
ATOM      5  C   UNL     1       2.321  12.359  -1.745  0.00  0.00    +0.033 C 
ATOM      6  C   UNL     1       2.980  11.847  -0.463  0.00  0.00    +0.100 C 
BRANCH   6   7
ATOM      7  C   UNL     1       4.321  12.512  -0.287  0.00  0.00    -0.027 A 
ATOM      8  C   UNL     1       5.419  12.055  -0.992  0.00  0.00    +0.006 A 
ATOM      9  C   UNL     1       6.644  12.667  -0.824  0.00  0.00    +0.004 A 
ATOM     10  C   UNL     1       6.783  13.739   0.049  0.00  0.00    -0.044 A 
ATOM     11  C   UNL     1       5.689  14.197   0.747  0.00  0.00    -0.044 A 
ATOM     12  C   UNL     1       4.456  13.581   0.573  0.00  0.00    +0.009 A 
ATOM     13  C   UNL     1       5.764  15.360   1.701  0.00  0.00    +0.035 C 
ATOM     14  C   UNL     1       7.212  15.633   2.102  0.00  0.00    +0.005 C 
ATOM     15  C   UNL     1       8.055  15.739   0.825  0.00  0.00    +0.005 C 
ATOM     16  C   UNL     1       8.152  14.351   0.194  0.00  0.00    +0.035 C 
ENDBRANCH   6   7
ENDBRANCH   1   6
BRANCH   2  17
ATOM     17  C   UNL     1       2.343   8.075  -0.308  0.00  0.00    +0.324 C 
BRANCH  17  18
ATOM     18  O   UNL     1       1.143   7.417   0.104  0.00  0.00    -0.483 OA
BRANCH  18  19
ATOM     19  C   UNL     1       1.144   6.058   0.078  0.00  0.00    +0.122 A 
ATOM     20  C   UNL     1       2.278   5.373  -0.335  0.00  0.00    +0.047 A 
ATOM     21  C   UNL     1       2.280   3.993  -0.361  0.00  0.00    +0.027 A 
ATOM     22  C   UNL     1       1.147   3.290   0.026  0.00  0.00    +0.037 A 
ATOM     23  C   UNL     1       0.013   3.976   0.439  0.00  0.00    -0.022 A 
ATOM     24  C   UNL     1       0.012   5.356   0.465  0.00  0.00    +0.051 A 
ATOM     25  C   UNL     1      -1.215   3.210   0.859  0.00  0.00    +0.046 C 
ATOM     26  C   UNL     1      -1.333   1.935   0.019  0.00  0.00    +0.101 C 
ATOM     27  C   UNL     1      -0.014   1.209   0.009  0.00  0.00    +0.218 C 
ATOM     28  O   UNL     1       0.002  -0.004   0.002  0.00  0.00    -0.275 OA
ATOM     29  N   UNL     1       1.146   1.890   0.001  0.00  0.00    -0.285 N 
ATOM     30  H   UNL     1       2.098   1.339  -0.025  0.00  0.00    +0.155 HD
ENDBRANCH  18  19
ENDBRANCH  17  18
ENDBRANCH   2  17
TORSDOF 5
