REMARK  Name = ZINC18199481
REMARK  4 active torsions:
REMARK  status: ('A' for Active; 'I' for Inactive)
REMARK    1  A    between atoms: C_1  and  C_2
REMARK    2  A    between atoms: C_2  and  C_3
REMARK    3  A    between atoms: C_2  and  C_4
REMARK    4  A    between atoms: C_7  and  C_10
REMARK                            x       y       z     vdW  Elec       q    Type
REMARK                         _______ _______ _______ _____ _____    ______ ____
ROOT
ATOM      1  C   UNL     1       5.409   3.086  -0.035  0.00  0.00    +0.092 C 
ATOM      2  C   UNL     1       5.625   3.892  -1.282  0.00  0.00    +0.067 A 
ATOM      3  C   UNL     1       5.627   5.254  -1.243  0.00  0.00    +0.113 A 
ATOM      4  N   UNL     1       5.821   5.965  -2.403  0.00  0.00    -0.295 N 
ATOM      5  H   UNL     1       5.821   6.965  -2.379  0.00  0.00    +0.172 HD
ATOM      6  C   UNL     1       6.009   5.322  -3.571  0.00  0.00    +0.328 A 
ATOM      7  O   UNL     1       6.177   5.966  -4.588  0.00  0.00    -0.247 OA
ATOM      8  N   UNL     1       6.014   3.978  -3.628  0.00  0.00    -0.275 N 
ATOM      9  H   UNL     1       6.157   3.520  -4.505  0.00  0.00    +0.173 HD
ATOM     10  C   UNL     1       5.827   3.244  -2.514  0.00  0.00    +0.260 A 
ATOM     11  O   UNL     1       5.835   2.026  -2.573  0.00  0.00    -0.267 OA
ATOM     12  N   UNL     1       5.437   5.910  -0.053  0.00  0.00    -0.303 N 
ATOM     13  C   UNL     1       5.635   5.267   1.139  0.00  0.00    +0.017 C 
ATOM     14  C   UNL     1       5.638   3.919   1.201  0.00  0.00    +0.024 C 
ATOM     15  C   UNL     1       5.856   3.250   2.418  0.00  0.00    +0.162 C 
ATOM     16  O   UNL     1       5.846   2.035   2.441  0.00  0.00    -0.292 OA
ATOM     17  C   UNL     1       6.101   4.009   3.693  0.00  0.00    +0.080 C 
ATOM     18  C   UNL     1       6.753   5.354   3.355  0.00  0.00    +0.014 C 
ATOM     19  C   UNL     1       5.844   6.102   2.378  0.00  0.00    +0.051 C 
ATOM     20  H   UNL     1       5.160   6.839  -0.057  0.00  0.00    +0.153 HD
ENDROOT
BRANCH   1  24
ATOM     21  C   UNL     1       1.401   1.607  -0.003  0.00  0.00    -0.045 A 
ATOM     22  C   UNL     1       1.635   2.970  -0.003  0.00  0.00    +0.004 A 
ATOM     23  C   UNL     1       2.932   3.448  -0.008  0.00  0.00    +0.005 A 
ATOM     24  C   UNL     1       3.995   2.564  -0.023  0.00  0.00    -0.035 A 
ATOM     25  C   UNL     1       3.761   1.202  -0.028  0.00  0.00    +0.005 A 
ATOM     26  C   UNL     1       2.464   0.724  -0.018  0.00  0.00    +0.004 A 
BRANCH  21  28
ATOM     27  C   UNL     1      -0.753   1.593  -1.232  0.00  0.00    +0.012 C 
ATOM     28  C   UNL     1      -0.013   1.086   0.008  0.00  0.00    +0.013 C 
ATOM     29  C   UNL     1      -0.729   1.579   1.267  0.00  0.00    +0.012 C 
ENDBRANCH  21  28
ENDBRANCH   1  24
TORSDOF 2
