REMARK  Name = ZINC15800158
REMARK  9 active torsions:
REMARK  status: ('A' for Active; 'I' for Inactive)
REMARK    1  A    between atoms: C_4  and  C_7
REMARK    2  A    between atoms: C_7  and  C_8
REMARK    3  A    between atoms: C_7  and  C_16
REMARK    4  A    between atoms: C_7  and  C_19
REMARK    5  A    between atoms: C_13  and  C_14
REMARK    6  A    between atoms: C_19  and  C_20
REMARK    7  A    between atoms: C_19  and  C_26
REMARK    8  A    between atoms: C_19  and  C_34
REMARK    9  A    between atoms: C_31  and  C_32
REMARK                            x       y       z     vdW  Elec       q    Type
REMARK                         _______ _______ _______ _____ _____    ______ ____
ROOT
ATOM      1  C   UNL     1      -2.267   3.668  -0.109  0.00  0.00    +0.119 C 
ENDROOT
BRANCH   1   5
ATOM      2  C   UNL     1       0.056   7.050  -1.299  0.00  0.00    +0.000 A 
ATOM      3  C   UNL     1      -1.215   6.870  -1.811  0.00  0.00    +0.000 A 
ATOM      4  C   UNL     1      -1.968   5.778  -1.423  0.00  0.00    +0.005 A 
ATOM      5  C   UNL     1      -1.447   4.861  -0.529  0.00  0.00    -0.026 A 
ATOM      6  C   UNL     1      -0.176   5.041  -0.017  0.00  0.00    +0.005 A 
ATOM      7  C   UNL     1       0.576   6.136  -0.402  0.00  0.00    +0.000 A 
ENDBRANCH   1   5
BRANCH   1   8
ATOM      8  C   UNL     1      -1.653   2.413  -0.674  0.00  0.00    -0.009 A 
ATOM      9  C   UNL     1      -2.044   1.178  -0.200  0.00  0.00    +0.006 A 
ATOM     10  C   UNL     1      -1.482   0.025  -0.718  0.00  0.00    +0.000 A 
ATOM     11  C   UNL     1      -0.525   0.102  -1.714  0.00  0.00    +0.001 A 
ATOM     12  C   UNL     1      -0.124   1.330  -2.197  0.00  0.00    +0.019 A 
ATOM     13  C   UNL     1      -0.692   2.498  -1.683  0.00  0.00    +0.056 A 
BRANCH  13  14
ATOM     14  C   UNL     1      -0.285   3.776  -2.184  0.00  0.00    +0.099 C 
ATOM     15  N   UNL     1       0.037   4.790  -2.582  0.00  0.00    -0.191 NA
ENDBRANCH  13  14
ENDBRANCH   1   8
BRANCH   1  16
ATOM     16  C   UNL     1      -2.293   3.581   1.395  0.00  0.00    +0.227 C 
ATOM     17  O   UNL     1      -1.728   2.668   1.960  0.00  0.00    -0.275 OA
ATOM     18  N   UNL     1      -2.943   4.518   2.113  0.00  0.00    -0.328 N 
ATOM     19  H   UNL     1      -3.589   5.099   1.681  0.00  0.00    +0.145 HD
ATOM     20  H   UNL     1      -2.767   4.611   3.062  0.00  0.00    +0.145 HD
ENDBRANCH   1  16
BRANCH   1  21
ATOM     21  C   UNL     1      -3.695   3.820  -0.636  0.00  0.00    +0.119 C 
BRANCH  21  22
ATOM     22  C   UNL     1      -3.712   3.567  -2.122  0.00  0.00    -0.026 A 
ATOM     23  C   UNL     1      -4.084   4.576  -2.990  0.00  0.00    +0.005 A 
ATOM     24  C   UNL     1      -4.094   4.346  -4.353  0.00  0.00    +0.000 A 
ATOM     25  C   UNL     1      -3.744   3.103  -4.847  0.00  0.00    +0.000 A 
ATOM     26  C   UNL     1      -3.377   2.092  -3.978  0.00  0.00    +0.000 A 
ATOM     27  C   UNL     1      -3.361   2.324  -2.615  0.00  0.00    +0.005 A 
ENDBRANCH  21  22
BRANCH  21  28
ATOM     28  C   UNL     1      -4.187   5.217  -0.358  0.00  0.00    -0.009 A 
ATOM     29  C   UNL     1      -3.366   6.126   0.276  0.00  0.00    +0.006 A 
ATOM     30  C   UNL     1      -3.816   7.409   0.531  0.00  0.00    +0.000 A 
ATOM     31  C   UNL     1      -5.092   7.790   0.153  0.00  0.00    +0.001 A 
ATOM     32  C   UNL     1      -5.924   6.891  -0.481  0.00  0.00    +0.019 A 
ATOM     33  C   UNL     1      -5.473   5.596  -0.748  0.00  0.00    +0.056 A 
BRANCH  33  34
ATOM     34  C   UNL     1      -6.329   4.659  -1.411  0.00  0.00    +0.099 C 
ATOM     35  N   UNL     1      -7.008   3.916  -1.938  0.00  0.00    -0.191 NA
ENDBRANCH  33  34
ENDBRANCH  21  28
BRANCH  21  36
ATOM     36  C   UNL     1      -4.593   2.825   0.053  0.00  0.00    +0.227 C 
ATOM     37  O   UNL     1      -4.976   1.840  -0.542  0.00  0.00    -0.275 OA
ATOM     38  N   UNL     1      -4.970   3.029   1.331  0.00  0.00    -0.328 N 
ATOM     39  H   UNL     1      -4.747   3.862   1.775  0.00  0.00    +0.145 HD
ATOM     40  H   UNL     1      -5.465   2.344   1.806  0.00  0.00    +0.145 HD
ENDBRANCH  21  36
ENDBRANCH   1  21
TORSDOF 9
