REMARK  Name = ZINC21325563
REMARK  11 active torsions:
REMARK  status: ('A' for Active; 'I' for Inactive)
REMARK    1  A    between atoms: C_5  and  C_7
REMARK    2  A    between atoms: C_7  and  O_8
REMARK    3  A    between atoms: O_8  and  C_9
REMARK    4  A    between atoms: C_14  and  C_15
REMARK    5  A    between atoms: N_16  and  N_17
REMARK    6  A    between atoms: C_21  and  S_24
REMARK    7  A    between atoms: N_22  and  N_23
REMARK    8  A    between atoms: S_24  and  C_25
REMARK    9  A    between atoms: C_25  and  C_26
REMARK   10  A    between atoms: N_28  and  C_29
REMARK   11  A    between atoms: C_29  and  C_30
REMARK                            x       y       z     vdW  Elec       q    Type
REMARK                         _______ _______ _______ _____ _____    ______ ____
ROOT
ATOM      1  N   UNL     1       2.615   2.246   0.619  0.00  0.00    -0.204 N 
ATOM      2  C   UNL     1       2.622   3.603   0.907  0.00  0.00    +0.254 A 
ATOM      3  N   UNL     1       1.566   4.366   1.049  0.00  0.00    -0.109 NA
ATOM      4  N   UNL     1       2.006   5.665   1.335  0.00  0.00    -0.119 NA
ATOM      5  C   UNL     1       3.317   5.655   1.351  0.00  0.00    +0.210 A 
ATOM      6  N   UNL     1       3.732   4.380   1.086  0.00  0.00    -0.211 N 
ATOM      7  H   UNL     1       3.539   1.657   0.719  0.00  0.00    +0.177 HD
ENDROOT
BRANCH   6   8
ATOM      8  N   UNL     1       5.029   3.957   1.014  0.00  0.00    -0.294 N 
ATOM      9  H   UNL     1       5.851   4.671   1.176  0.00  0.00    +0.163 HD
ATOM     10  H   UNL     1       5.252   2.902   0.794  0.00  0.00    +0.163 HD
ENDBRANCH   6   8
BRANCH   1  12
ATOM     11  C   UNL     1       1.398   0.338   0.028  0.00  0.00    +0.142 C 
ATOM     12  N   UNL     1       1.431   1.625   0.201  0.00  0.00    -0.187 NA
BRANCH  11  18
ATOM     13  C   UNL     1      -0.995   0.446  -0.661  0.00  0.00    +0.130 A 
ATOM     14  C   UNL     1      -2.172  -0.183  -1.030  0.00  0.00    +0.046 A 
ATOM     15  C   UNL     1      -2.227  -1.563  -1.104  0.00  0.00    +0.004 A 
ATOM     16  C   UNL     1      -1.109  -2.325  -0.812  0.00  0.00    +0.001 A 
ATOM     17  C   UNL     1       0.073  -1.714  -0.448  0.00  0.00    +0.013 A 
ATOM     18  C   UNL     1       0.140  -0.321  -0.364  0.00  0.00    +0.036 A 
BRANCH  13  19
ATOM     19  O   UNL     1      -0.940   1.802  -0.588  0.00  0.00    -0.487 OA
BRANCH  19  20
ATOM     20  C   UNL     1      -2.165   2.512  -0.781  0.00  0.00    +0.266 C 
BRANCH  20  25
ATOM     21  C   UNL     1      -0.333   5.813  -0.780  0.00  0.00    +0.000 A 
ATOM     22  C   UNL     1      -1.382   6.712  -0.838  0.00  0.00    +0.001 A 
ATOM     23  C   UNL     1      -2.685   6.252  -0.877  0.00  0.00    +0.020 A 
ATOM     24  C   UNL     1      -2.939   4.892  -0.859  0.00  0.00    +0.047 A 
ATOM     25  C   UNL     1      -1.889   3.993  -0.802  0.00  0.00    +0.008 A 
ATOM     26  C   UNL     1      -0.587   4.454  -0.758  0.00  0.00    +0.008 A 
ATOM     27 CL   UNL     1      -4.575   4.314  -0.907  0.00  0.00    -0.083 Cl
ENDBRANCH  20  25
ENDBRANCH  19  20
ENDBRANCH  13  19
ENDBRANCH  11  18
ENDBRANCH   1  12
BRANCH   5  28
ATOM     28  S   UNL     1       4.361   7.041   1.657  0.00  0.00    -0.075 S 
BRANCH  28  29
ATOM     29  C   UNL     1       3.202   8.410   1.932  0.00  0.00    +0.173 C 
BRANCH  29  30
ATOM     30  C   UNL     1       3.975   9.674   2.210  0.00  0.00    +0.224 C 
ATOM     31  O   UNL     1       5.187   9.653   2.221  0.00  0.00    -0.275 OA
ATOM     32  N   UNL     1       3.318  10.827   2.446  0.00  0.00    -0.308 N 
ATOM     33  H   UNL     1       2.218  10.845   2.435  0.00  0.00    +0.149 HD
BRANCH  32  34
ATOM     34  C   UNL     1       4.069  12.055   2.715  0.00  0.00    +0.178 C 
BRANCH  34  35
ATOM     35  C   UNL     1       3.107  13.192   2.943  0.00  0.00    +0.122 A 
ATOM     36  C   UNL     1       2.591  13.560   4.130  0.00  0.00    +0.046 A 
ATOM     37  C   UNL     1       1.742  14.664   3.884  0.00  0.00    +0.041 A 
ATOM     38  C   UNL     1       1.791  14.905   2.561  0.00  0.00    +0.195 A 
ATOM     39  O   UNL     1       2.623  14.014   1.998  0.00  0.00    -0.466 OA
ENDBRANCH  34  35
ENDBRANCH  32  34
ENDBRANCH  29  30
ENDBRANCH  28  29
ENDBRANCH   5  28
TORSDOF 11
