REMARK  Name = ZINC48255976
REMARK  11 active torsions:
REMARK  status: ('A' for Active; 'I' for Inactive)
REMARK    1  A    between atoms: C_1  and  C_2
REMARK    2  A    between atoms: C_5  and  N_22
REMARK    3  A    between atoms: C_7  and  N_8
REMARK    4  A    between atoms: N_11  and  C_12
REMARK    5  A    between atoms: C_12  and  C_14
REMARK    6  A    between atoms: C_12  and  C_19
REMARK    7  A    between atoms: C_19  and  C_20
REMARK    8  A    between atoms: C_19  and  C_21
REMARK    9  A    between atoms: C_23  and  C_25
REMARK   10  A    between atoms: C_25  and  C_26
REMARK   11  A    between atoms: C_25  and  C_27
REMARK                            x       y       z     vdW  Elec       q    Type
REMARK                         _______ _______ _______ _____ _____    ______ ____
ROOT
ATOM      1  N   UNL     1       0.302  -0.395   2.437  0.00  0.00    -0.269 N 
ATOM      2  C   UNL     1       0.059  -1.127   3.542  0.00  0.00    +0.304 C 
ATOM      3  O   UNL     1      -0.213  -2.307   3.442  0.00  0.00    -0.252 OA
ATOM      4  N   UNL     1       0.118  -0.549   4.759  0.00  0.00    -0.292 N 
ATOM      5  H   UNL     1       0.580   0.531   2.519  0.00  0.00    +0.156 HD
ATOM      6  H   UNL     1       0.336   0.393   4.839  0.00  0.00    +0.151 HD
ENDROOT
BRANCH   1  13
ATOM      7  C   UNL     1      -0.382   1.306   0.263  0.00  0.00    +0.045 C 
ATOM      8  C   UNL     1      -0.181  -0.176   0.081  0.00  0.00    -0.029 A 
ATOM      9  C   UNL     1      -0.322  -0.743  -1.172  0.00  0.00    +0.007 A 
ATOM     10  C   UNL     1      -0.139  -2.101  -1.343  0.00  0.00    +0.024 A 
ATOM     11  C   UNL     1       0.189  -2.902  -0.256  0.00  0.00    +0.035 A 
ATOM     12  C   UNL     1       0.332  -2.336   1.002  0.00  0.00    +0.047 A 
ATOM     13  C   UNL     1       0.153  -0.971   1.170  0.00  0.00    +0.039 A 
BRANCH  11  14
ATOM     14  N   UNL     1       0.373  -4.278  -0.430  0.00  0.00    -0.285 N 
ATOM     15  C   UNL     1       0.942  -4.744  -1.560  0.00  0.00    +0.220 C 
ATOM     16  O   UNL     1       1.219  -3.979  -2.460  0.00  0.00    -0.275 OA
ATOM     17  H   UNL     1       0.093  -4.897   0.262  0.00  0.00    +0.155 HD
BRANCH  15  18
ATOM     18  C   UNL     1       1.234  -6.215  -1.705  0.00  0.00    +0.069 C 
ATOM     19  C   UNL     1      -0.070  -7.008  -1.594  0.00  0.00    +0.017 C 
ATOM     20  C   UNL     1       1.874  -6.476  -3.071  0.00  0.00    +0.017 C 
ENDBRANCH  15  18
ENDBRANCH  11  14
ENDBRANCH   1  13
BRANCH   4  21
ATOM     21  C   UNL     1      -0.146  -1.345   5.961  0.00  0.00    +0.114 C 
BRANCH  21  22
ATOM     22  C   UNL     1      -0.620  -0.439   7.068  0.00  0.00    +0.010 A 
ATOM     23  C   UNL     1      -1.590  -0.655   7.990  0.00  0.00    +0.013 A 
ATOM     24  C   UNL     1      -1.858   0.329   8.924  0.00  0.00    +0.008 A 
ATOM     25  C   UNL     1      -1.143   1.480   8.889  0.00  0.00    +0.045 A 
ATOM     26  S   UNL     1      -0.046   1.192   7.510  0.00  0.00    -0.100 S 
ENDBRANCH  21  22
BRANCH  21  27
ATOM     27  C   UNL     1       1.139  -2.052   6.396  0.00  0.00    +0.008 C 
ATOM     28  C   UNL     1       1.621  -2.972   5.272  0.00  0.00    +0.009 C 
ATOM     29  C   UNL     1       2.217  -1.011   6.701  0.00  0.00    +0.009 C 
ENDBRANCH  21  27
ENDBRANCH   4  21
TORSDOF 6
