REMARK  Name = ZINC41640933
REMARK  6 active torsions:
REMARK  status: ('A' for Active; 'I' for Inactive)
REMARK    1  A    between atoms: C_1  and  C_2
REMARK    2  A    between atoms: C_2  and  C_4
REMARK    3  A    between atoms: C_2  and  N_12
REMARK    4  A    between atoms: N_12  and  C_13
REMARK    5  A    between atoms: C_17  and  S_19
REMARK    6  A    between atoms: S_19  and  N_22
REMARK                            x       y       z     vdW  Elec       q    Type
REMARK                         _______ _______ _______ _____ _____    ______ ____
ROOT
ATOM      1  N   UNL     1      -1.373  -0.493  -0.129  0.00  0.00    -0.337 N 
ATOM      2  H   UNL     1      -1.896  -0.688   0.665  0.00  0.00    +0.147 HD
ENDROOT
BRANCH   1   3
ATOM      3  C   UNL     1      -1.931  -0.677  -1.395  0.00  0.00    +0.029 A 
ATOM      4  C   UNL     1      -1.182  -0.403  -2.533  0.00  0.00    +0.023 A 
ATOM      5  C   UNL     1      -1.737  -0.587  -3.784  0.00  0.00    +0.004 A 
ATOM      6  C   UNL     1      -3.037  -1.043  -3.905  0.00  0.00    +0.028 A 
ATOM      7  C   UNL     1      -3.785  -1.316  -2.775  0.00  0.00    +0.107 A 
ATOM      8  C   UNL     1      -3.235  -1.140  -1.521  0.00  0.00    +0.051 A 
BRANCH   7   9
ATOM      9  S   UNL     1      -5.442  -1.895  -2.936  0.00  0.00    +0.056 S 
ATOM     10  O   UNL     1      -6.109  -1.557  -1.728  0.00  0.00    -0.153 OA
ATOM     11  O   UNL     1      -5.902  -1.462  -4.208  0.00  0.00    -0.153 OA
BRANCH   9  12
ATOM     12  N   UNL     1      -5.378  -3.549  -2.994  0.00  0.00    -0.204 NA
ATOM     13  H   UNL     1      -6.119  -4.075  -2.655  0.00  0.00    +0.144 HD
ATOM     14  H   UNL     1      -4.601  -3.992  -3.368  0.00  0.00    +0.144 HD
ENDBRANCH   9  12
ENDBRANCH   7   9
ENDBRANCH   1   3
BRANCH   1  16
ATOM     15  C   UNL     1       0.007   1.525  -0.050  0.00  0.00    +0.033 C 
ATOM     16  C   UNL     1       0.002  -0.004   0.002  0.00  0.00    +0.099 C 
BRANCH  16  17
ATOM     17  C   UNL     1       0.576  -0.464   1.318  0.00  0.00    -0.014 A 
ATOM     18  C   UNL     1      -0.263  -0.710   2.389  0.00  0.00    +0.007 A 
ATOM     19  C   UNL     1       0.263  -1.131   3.595  0.00  0.00    +0.015 A 
ATOM     20  C   UNL     1       1.628  -1.308   3.732  0.00  0.00    +0.019 A 
ATOM     21  C   UNL     1       2.467  -1.062   2.660  0.00  0.00    +0.031 A 
ATOM     22  C   UNL     1       1.940  -0.645   1.451  0.00  0.00    +0.024 A 
ATOM     23 BR   UNL     1       3.086  -0.317  -0.017  0.00  0.00    -0.050 Br
ATOM     24 BR   UNL     1       2.347  -1.885   5.383  0.00  0.00    -0.050 Br
ENDBRANCH  16  17
ENDBRANCH   1  16
TORSDOF 5
