REMARK  Name = ZINC02695641
REMARK  7 active torsions:
REMARK  status: ('A' for Active; 'I' for Inactive)
REMARK    1  A    between atoms: C_1  and  S_2
REMARK    2  A    between atoms: S_2  and  C_3
REMARK    3  A    between atoms: C_6  and  C_9
REMARK    4  A    between atoms: C_11  and  C_23
REMARK    5  A    between atoms: C_13  and  C_18
REMARK    6  A    between atoms: C_13  and  O_22
REMARK    7  A    between atoms: C_23  and  C_25
REMARK                            x       y       z     vdW  Elec       q    Type
REMARK                         _______ _______ _______ _____ _____    ______ ____
ROOT
ATOM      1  C   UNL     1      -1.240   8.055  -0.664  0.00  0.00    +0.120 C 
ATOM      2  C   UNL     1      -1.394   6.708   0.052  0.00  0.00    +0.144 C 
ATOM      3  C   UNL     1      -1.818   6.972   1.501  0.00  0.00    +0.243 C 
ATOM      4  N   UNL     1      -3.035   7.785   1.504  0.00  0.00    -0.264 N 
ATOM      5  C   UNL     1      -3.302   8.646   0.512  0.00  0.00    +0.302 C 
ATOM      6  O   UNL     1      -4.322   9.306   0.569  0.00  0.00    -0.253 OA
ATOM      7  N   UNL     1      -2.488   8.809  -0.542  0.00  0.00    -0.292 N 
ATOM      8  H   UNL     1      -3.662   7.699   2.240  0.00  0.00    +0.153 HD
ATOM      9  H   UNL     1      -2.732   9.439  -1.238  0.00  0.00    +0.151 HD
ENDROOT
BRANCH   1  13
ATOM     10  C   UNL     1      -0.371   7.385  -4.795  0.00  0.00    +0.008 A 
ATOM     11  C   UNL     1       0.654   7.697  -3.909  0.00  0.00    +0.015 A 
ATOM     12  C   UNL     1       0.369   7.913  -2.575  0.00  0.00    +0.006 A 
ATOM     13  C   UNL     1      -0.933   7.819  -2.120  0.00  0.00    -0.026 A 
ATOM     14  C   UNL     1      -1.955   7.503  -2.998  0.00  0.00    +0.006 A 
ATOM     15  C   UNL     1      -1.679   7.291  -4.334  0.00  0.00    +0.015 A 
BRANCH  10  17
ATOM     16  C   UNL     1      -1.630   6.743  -7.233  0.00  0.00    +0.090 C 
ATOM     17  S   UNL     1      -0.013   7.109  -6.498  0.00  0.00    -0.129 S 
ENDBRANCH  10  17
ENDBRANCH   1  13
BRANCH   3  18
ATOM     18  C   UNL     1      -2.091   5.640   2.204  0.00  0.00    +0.436 C 
ATOM     19  F   UNL     1      -0.929   4.861   2.193  0.00  0.00    -0.166 F 
ATOM     20  F   UNL     1      -2.478   5.882   3.526  0.00  0.00    -0.166 F 
ATOM     21  F   UNL     1      -3.114   4.960   1.535  0.00  0.00    -0.166 F 
ENDBRANCH   3  18
BRANCH   3  22
ATOM     22  O   UNL     1      -0.775   7.670   2.184  0.00  0.00    -0.364 OA
ATOM     23  H   UNL     1      -0.976   7.870   3.109  0.00  0.00    +0.212 HD
ENDBRANCH   3  22
BRANCH   2  24
ATOM     24  C   UNL     1      -0.079   5.973   0.035  0.00  0.00    +0.173 C 
ATOM     25  O   UNL     1       0.963   6.593   0.029  0.00  0.00    -0.292 OA
BRANCH  24  26
ATOM     26  C   UNL     1      -0.059   4.502   0.027  0.00  0.00    +0.018 A 
ATOM     27  C   UNL     1       1.160   3.816   0.011  0.00  0.00    +0.013 A 
ATOM     28  C   UNL     1       1.171   2.438   0.004  0.00  0.00    +0.020 A 
ATOM     29  C   UNL     1      -0.021   1.732   0.012  0.00  0.00    +0.041 A 
ATOM     30  C   UNL     1      -1.233   2.405   0.021  0.00  0.00    +0.020 A 
ATOM     31  C   UNL     1      -1.259   3.783   0.034  0.00  0.00    +0.013 A 
ATOM     32 CL   UNL     1       0.002  -0.004   0.002  0.00  0.00    -0.084 Cl
ENDBRANCH  24  26
ENDBRANCH   2  24
TORSDOF 6
