REMARK  Name = ZINC20694749
REMARK  8 active torsions:
REMARK  status: ('A' for Active; 'I' for Inactive)
REMARK    1  A    between atoms: C_1  and  C_2
REMARK    2  A    between atoms: C_2  and  C_3
REMARK    3  A    between atoms: C_3  and  N_4
REMARK    4  A    between atoms: C_5  and  C_7
REMARK    5  A    between atoms: C_20  and  C_23
REMARK    6  A    between atoms: C_27  and  O_30
REMARK    7  A    between atoms: C_28  and  O_29
REMARK    8  A    between atoms: O_30  and  C_31
REMARK                            x       y       z     vdW  Elec       q    Type
REMARK                         _______ _______ _______ _____ _____    ______ ____
ROOT
ATOM      1  C   UNL     1       2.453  -0.029  -0.335  0.00  0.00    +0.037 A 
ATOM      2  C   UNL     1       1.056  -0.076  -0.345  0.00  0.00    +0.015 A 
ATOM      3  C   UNL     1       0.417  -1.292  -0.276  0.00  0.00    +0.024 A 
ATOM      4  C   UNL     1       1.156  -2.469  -0.187  0.00  0.00    +0.031 A 
ATOM      5  C   UNL     1       2.546  -2.434  -0.173  0.00  0.00    -0.019 A 
ATOM      6  C   UNL     1       3.189  -1.211  -0.246  0.00  0.00    +0.019 A 
ATOM      7  C   UNL     1       3.376  -3.675  -0.085  0.00  0.00    +0.049 C 
ATOM      8  C   UNL     1       3.973  -3.843   1.293  0.00  0.00    -0.023 C 
ATOM      9  C   UNL     1       4.002  -5.111   1.623  0.00  0.00    -0.030 C 
ATOM     10  C   UNL     1       3.432  -5.964   0.507  0.00  0.00    +0.033 C 
ATOM     11  C   UNL     1       2.557  -4.962  -0.302  0.00  0.00    +0.029 C 
ATOM     12  C   UNL     1       1.210  -4.850   0.417  0.00  0.00    +0.109 C 
ATOM     13  N   UNL     1       0.486  -3.687  -0.108  0.00  0.00    -0.336 N 
ATOM     14  H   UNL     1      -0.561  -3.790  -0.429  0.00  0.00    +0.147 HD
ENDROOT
BRANCH  12  15
ATOM     15  C   UNL     1       1.440  -4.675   1.896  0.00  0.00    +0.018 A 
ATOM     16  C   UNL     1       1.684  -3.416   2.413  0.00  0.00    +0.009 A 
ATOM     17  C   UNL     1       1.890  -3.251   3.770  0.00  0.00    +0.004 A 
ATOM     18  C   UNL     1       1.864  -4.346   4.614  0.00  0.00    +0.049 A 
ATOM     19  C   UNL     1       1.626  -5.610   4.102  0.00  0.00    +0.162 A 
ATOM     20  C   UNL     1       1.413  -5.776   2.736  0.00  0.00    +0.163 A 
BRANCH  20  21
ATOM     21  O   UNL     1       1.179  -7.015   2.228  0.00  0.00    -0.503 OA
ATOM     22  H   UNL     1       1.157  -7.888   2.896  0.00  0.00    +0.292 HD
ENDBRANCH  20  21
BRANCH  19  23
ATOM     23  O   UNL     1       1.601  -6.688   4.931  0.00  0.00    -0.491 OA
ATOM     24  C   UNL     1       1.828  -6.443   6.320  0.00  0.00    +0.277 C 
ENDBRANCH  19  23
ENDBRANCH  12  15
BRANCH   1  26
ATOM     25  N   UNL     1       2.438   2.410  -0.504  0.00  0.00    -0.311 N 
ATOM     26  C   UNL     1       3.149   1.269  -0.412  0.00  0.00    +0.244 C 
ATOM     27  O   UNL     1       4.364   1.309  -0.398  0.00  0.00    -0.270 OA
ATOM     28  H   UNL     1       1.339   2.373  -0.522  0.00  0.00    +0.149 HD
BRANCH  25  29
ATOM     29  C   UNL     1       3.129   3.700  -0.581  0.00  0.00    +0.104 C 
BRANCH  29  31
ATOM     30  C   UNL     1       2.820   6.173  -0.758  0.00  0.00    +0.005 C 
ATOM     31  C   UNL     1       2.098   4.826  -0.678  0.00  0.00    +0.015 C 
ENDBRANCH  29  31
ENDBRANCH  25  29
ENDBRANCH   1  26
TORSDOF 6
