REMARK  Name = ZINC23944658
REMARK  9 active torsions:
REMARK  status: ('A' for Active; 'I' for Inactive)
REMARK    1  A    between atoms: C_3  and  N_16
REMARK    2  A    between atoms: C_5  and  S_7
REMARK    3  A    between atoms: S_7  and  N_10
REMARK    4  A    between atoms: C_17  and  C_19
REMARK    5  A    between atoms: C_19  and  O_20
REMARK    6  A    between atoms: O_20  and  C_21
REMARK    7  A    between atoms: C_21  and  C_23
REMARK    8  A    between atoms: C_26  and  O_30
REMARK    9  A    between atoms: C_28  and  O_29
REMARK                            x       y       z     vdW  Elec       q    Type
REMARK                         _______ _______ _______ _____ _____    ______ ____
ROOT
ATOM      1  N   UNL     1       3.584   2.123  -0.021  0.00  0.00    -0.283 N 
ATOM      2  C   UNL     1       3.628   3.375   0.478  0.00  0.00    +0.255 C 
ATOM      3  O   UNL     1       2.649   3.848   1.016  0.00  0.00    -0.272 OA
ATOM      4  H   UNL     1       4.387   1.717  -0.382  0.00  0.00    +0.155 HD
ENDROOT
BRANCH   1   7
ATOM      5  C   UNL     1      -0.013   1.375  -0.179  0.00  0.00    +0.004 A 
ATOM      6  C   UNL     1       1.175   2.081  -0.182  0.00  0.00    +0.023 A 
ATOM      7  C   UNL     1       2.380   1.411  -0.018  0.00  0.00    +0.035 A 
ATOM      8  C   UNL     1       2.387   0.032   0.148  0.00  0.00    +0.052 A 
ATOM      9  C   UNL     1       1.197  -0.668   0.150  0.00  0.00    +0.114 A 
ATOM     10  C   UNL     1      -0.002   0.002  -0.014  0.00  0.00    +0.029 A 
BRANCH   9  11
ATOM     11  S   UNL     1       1.206  -2.417   0.360  0.00  0.00    +0.100 S 
ATOM     12  O   UNL     1       0.003  -2.902  -0.221  0.00  0.00    -0.146 OA
ATOM     13  O   UNL     1       2.487  -2.870  -0.054  0.00  0.00    -0.146 OA
BRANCH  11  14
ATOM     14  N   UNL     1       1.100  -2.716   1.985  0.00  0.00    -0.118 NA
ATOM     15  C   UNL     1       1.087  -3.934   2.420  0.00  0.00    +0.117 C 
ATOM     16  C   UNL     1       1.167  -5.169   1.550  0.00  0.00    +0.074 C 
ATOM     17  C   UNL     1       1.538  -6.304   2.531  0.00  0.00    +0.026 C 
ATOM     18  C   UNL     1       0.999  -5.761   3.872  0.00  0.00    +0.103 C 
ATOM     19  N   UNL     1       1.003  -4.300   3.735  0.00  0.00    -0.331 N 
ATOM     20  H   UNL     1       0.952  -3.677   4.477  0.00  0.00    +0.147 HD
ENDBRANCH  11  14
ENDBRANCH   9  11
ENDBRANCH   1   7
BRANCH   2  21
ATOM     21  C   UNL     1       4.893   4.186   0.368  0.00  0.00    +0.328 C 
BRANCH  21  22
ATOM     22  O   UNL     1       4.691   5.468   0.966  0.00  0.00    -0.452 OA
BRANCH  22  23
ATOM     23  C   UNL     1       5.734   6.321   0.951  0.00  0.00    +0.343 C 
ATOM     24  O   UNL     1       6.786   5.986   0.444  0.00  0.00    -0.245 OA
BRANCH  23  25
ATOM     25  C   UNL     1       5.598   7.659   1.549  0.00  0.00    +0.100 A 
ATOM     26  C   UNL     1       4.390   8.046   2.139  0.00  0.00    +0.022 A 
ATOM     27  C   UNL     1       4.265   9.287   2.693  0.00  0.00    +0.046 A 
ATOM     28  C   UNL     1       5.336  10.177   2.676  0.00  0.00    +0.120 A 
ATOM     29  C   UNL     1       6.541   9.809   2.095  0.00  0.00    +0.091 A 
ATOM     30  C   UNL     1       6.683   8.551   1.535  0.00  0.00    +0.134 A 
BRANCH  30  31
ATOM     31  O   UNL     1       7.860   8.183   0.971  0.00  0.00    -0.506 OA
ATOM     32  H   UNL     1       7.929   8.397   0.030  0.00  0.00    +0.292 HD
ENDBRANCH  30  31
BRANCH  28  33
ATOM     33  O   UNL     1       5.200  11.408   3.229  0.00  0.00    -0.507 OA
ATOM     34  H   UNL     1       5.438  11.447   4.165  0.00  0.00    +0.292 HD
ENDBRANCH  28  33
ENDBRANCH  23  25
ENDBRANCH  22  23
ENDBRANCH  21  22
ENDBRANCH   2  21
TORSDOF 9
