REMARK  Name = ZINC39707782
REMARK  9 active torsions:
REMARK  status: ('A' for Active; 'I' for Inactive)
REMARK    1  A    between atoms: C_1  and  C_2
REMARK    2  A    between atoms: C_5  and  N_8
REMARK    3  A    between atoms: C_10  and  C_15
REMARK    4  A    between atoms: N_17  and  C_18
REMARK    5  A    between atoms: C_21  and  C_25
REMARK    6  A    between atoms: C_25  and  C_26
REMARK    7  A    between atoms: N_28  and  C_29
REMARK    8  A    between atoms: C_29  and  C_30
REMARK    9  A    between atoms: C_30  and  C_31
REMARK                            x       y       z     vdW  Elec       q    Type
REMARK                         _______ _______ _______ _____ _____    ______ ____
ROOT
ATOM      1  C   UNL     1      -3.771  -7.971   0.960  0.00  0.00    +0.202 C 
ATOM      2  N   UNL     1      -4.146  -9.404   0.828  0.00  0.00    -0.286 NA
ATOM      3  C   UNL     1      -5.522  -9.571   0.325  0.00  0.00    +0.075 C 
ATOM      4  C   UNL     1      -5.707  -8.663  -0.928  0.00  0.00    +0.091 C 
ATOM      5  S   UNL     1      -4.782  -7.167  -0.352  0.00  0.00    -0.121 S 
ATOM      6  H   UNL     1      -3.486  -9.898   0.245  0.00  0.00    +0.125 HD
ENDROOT
BRANCH   1   9
ATOM      7  C   UNL     1      -1.751  -6.610   1.014  0.00  0.00    +0.220 C 
ATOM      8  O   UNL     1      -2.404  -5.713   1.503  0.00  0.00    -0.275 OA
ATOM      9  N   UNL     1      -2.341  -7.782   0.705  0.00  0.00    -0.291 N 
ATOM     10  H   UNL     1      -1.819  -8.499   0.313  0.00  0.00    +0.151 HD
BRANCH   7  13
ATOM     11  N   UNL     1       0.059  -4.170  -0.021  0.00  0.00    -0.271 N 
ATOM     12  C   UNL     1       0.176  -5.003   1.182  0.00  0.00    +0.127 C 
ATOM     13  C   UNL     1      -0.280  -6.415   0.751  0.00  0.00    +0.101 C 
ATOM     14  C   UNL     1       0.013  -6.391  -0.767  0.00  0.00    +0.110 C 
ATOM     15  C   UNL     1      -0.034  -4.923  -1.130  0.00  0.00    +0.221 C 
ATOM     16  O   UNL     1      -0.139  -4.490  -2.258  0.00  0.00    -0.275 OA
BRANCH  11  21
ATOM     17  C   UNL     1      -0.018   1.503   0.010  0.00  0.00    +0.044 C 
ATOM     18  C   UNL     1       0.002  -0.004   0.002  0.00  0.00    -0.050 A 
ATOM     19  C   UNL     1       0.020  -0.687  -1.200  0.00  0.00    +0.005 A 
ATOM     20  C   UNL     1       0.039  -2.068  -1.211  0.00  0.00    +0.024 A 
ATOM     21  C   UNL     1       0.040  -2.771  -0.013  0.00  0.00    +0.036 A 
ATOM     22  C   UNL     1       0.022  -2.082   1.192  0.00  0.00    +0.024 A 
ATOM     23  C   UNL     1       0.009  -0.701   1.197  0.00  0.00    +0.005 A 
ENDBRANCH  11  21
ENDBRANCH   7  13
ENDBRANCH   1   9
BRANCH   3  24
ATOM     24  C   UNL     1      -5.755 -11.032  -0.062  0.00  0.00    +0.115 C 
BRANCH  24  25
ATOM     25  C   UNL     1      -5.711 -11.893   1.175  0.00  0.00    +0.215 C 
ATOM     26  O   UNL     1      -5.512 -11.386   2.259  0.00  0.00    -0.276 OA
ATOM     27  N   UNL     1      -5.892 -13.225   1.076  0.00  0.00    -0.315 N 
ATOM     28  H   UNL     1      -6.051 -13.629   0.209  0.00  0.00    +0.149 HD
BRANCH  27  29
ATOM     29  C   UNL     1      -5.849 -14.061   2.278  0.00  0.00    +0.109 C 
BRANCH  29  30
ATOM     30  C   UNL     1      -6.082 -15.523   1.891  0.00  0.00    +0.056 C 
BRANCH  30  31
ATOM     31  C   UNL     1      -6.037 -16.383   3.128  0.00  0.00    -0.021 A 
ATOM     32  C   UNL     1      -7.149 -16.651   4.043  0.00  0.00    +0.003 A 
ATOM     33  C   UNL     1      -8.486 -16.251   4.090  0.00  0.00    +0.010 A 
ATOM     34  C   UNL     1      -9.290 -16.687   5.105  0.00  0.00    +0.001 A 
ATOM     35  C   UNL     1      -8.787 -17.524   6.092  0.00  0.00    +0.002 A 
ATOM     36  C   UNL     1      -7.471 -17.930   6.066  0.00  0.00    +0.026 A 
ATOM     37  C   UNL     1      -6.635 -17.499   5.041  0.00  0.00    +0.047 A 
ATOM     38  N   UNL     1      -5.310 -17.722   4.742  0.00  0.00    -0.360 N 
ATOM     39  C   UNL     1      -4.973 -17.054   3.596  0.00  0.00    +0.087 A 
ATOM     40  H   UNL     1      -4.706 -18.273   5.263  0.00  0.00    +0.165 HD
ENDBRANCH  30  31
ENDBRANCH  29  30
ENDBRANCH  27  29
ENDBRANCH  24  25
ENDBRANCH   3  24
TORSDOF 8
