REMARK  Name = ZINC21327990
REMARK  11 active torsions:
REMARK  status: ('A' for Active; 'I' for Inactive)
REMARK    1  A    between atoms: C_4  and  O_27
REMARK    2  A    between atoms: C_5  and  C_7
REMARK    3  A    between atoms: N_8  and  N_9
REMARK    4  A    between atoms: C_13  and  S_16
REMARK    5  A    between atoms: N_14  and  N_15
REMARK    6  A    between atoms: S_16  and  C_17
REMARK    7  A    between atoms: C_17  and  C_18
REMARK    8  A    between atoms: N_20  and  C_21
REMARK    9  A    between atoms: C_21  and  C_22
REMARK   10  A    between atoms: O_27  and  C_28
REMARK   11  A    between atoms: C_28  and  C_29
REMARK                            x       y       z     vdW  Elec       q    Type
REMARK                         _______ _______ _______ _____ _____    ______ ____
ROOT
ATOM      1  N   UNL     1      -4.838   0.937   0.031  0.00  0.00    -0.204 N 
ATOM      2  C   UNL     1      -6.045   1.619   0.041  0.00  0.00    +0.254 A 
ATOM      3  N   UNL     1      -6.195   2.922   0.053  0.00  0.00    -0.109 NA
ATOM      4  N   UNL     1      -7.568   3.200   0.057  0.00  0.00    -0.119 NA
ATOM      5  C   UNL     1      -8.213   2.058   0.054  0.00  0.00    +0.210 A 
ATOM      6  N   UNL     1      -7.289   1.052   0.044  0.00  0.00    -0.211 N 
ATOM      7  H   UNL     1      -4.827  -0.163   0.025  0.00  0.00    +0.177 HD
ENDROOT
BRANCH   6   8
ATOM      8  N   UNL     1      -7.561  -0.287   0.037  0.00  0.00    -0.294 N 
ATOM      9  H   UNL     1      -8.604  -0.637   0.041  0.00  0.00    +0.163 HD
ATOM     10  H   UNL     1      -6.736  -1.016   0.028  0.00  0.00    +0.163 HD
ENDBRANCH   6   8
BRANCH   1  12
ATOM     11  C   UNL     1      -2.500   1.010   0.020  0.00  0.00    +0.142 C 
ATOM     12  N   UNL     1      -3.631   1.649   0.029  0.00  0.00    -0.187 NA
BRANCH  11  17
ATOM     13  C   UNL     1       1.172   1.783   0.000  0.00  0.00    +0.001 A 
ATOM     14  C   UNL     1       1.158   3.167   0.007  0.00  0.00    +0.004 A 
ATOM     15  C   UNL     1      -0.041   3.854   0.022  0.00  0.00    +0.046 A 
ATOM     16  C   UNL     1      -1.240   3.160   0.030  0.00  0.00    +0.130 A 
ATOM     17  C   UNL     1      -1.231   1.759   0.017  0.00  0.00    +0.036 A 
ATOM     18  C   UNL     1      -0.013   1.076   0.008  0.00  0.00    +0.013 A 
BRANCH  16  19
ATOM     19  O   UNL     1      -2.418   3.835   0.045  0.00  0.00    -0.487 OA
BRANCH  19  20
ATOM     20  C   UNL     1      -2.349   5.262   0.051  0.00  0.00    +0.264 C 
BRANCH  20  21
ATOM     21  C   UNL     1      -3.744   5.833   0.067  0.00  0.00    -0.010 A 
ATOM     22  C   UNL     1      -4.392   6.106  -1.123  0.00  0.00    +0.008 A 
ATOM     23  C   UNL     1      -5.673   6.624  -1.109  0.00  0.00    +0.020 A 
ATOM     24  C   UNL     1      -6.303   6.880   0.096  0.00  0.00    +0.041 A 
ATOM     25  C   UNL     1      -5.651   6.613   1.286  0.00  0.00    +0.020 A 
ATOM     26  C   UNL     1      -4.372   6.089   1.271  0.00  0.00    +0.008 A 
ATOM     27 CL   UNL     1      -7.909   7.537   0.114  0.00  0.00    -0.084 Cl
ENDBRANCH  20  21
ENDBRANCH  19  20
ENDBRANCH  16  19
ENDBRANCH  11  17
ENDBRANCH   1  12
BRANCH   5  28
ATOM     28  S   UNL     1      -9.963   1.857   0.062  0.00  0.00    -0.075 S 
BRANCH  28  29
ATOM     29  C   UNL     1     -10.600   3.556   0.074  0.00  0.00    +0.173 C 
BRANCH  29  30
ATOM     30  C   UNL     1     -12.107   3.527   0.082  0.00  0.00    +0.224 C 
ATOM     31  O   UNL     1     -12.693   2.466   0.080  0.00  0.00    -0.275 OA
ATOM     32  N   UNL     1     -12.802   4.682   0.092  0.00  0.00    -0.308 N 
ATOM     33  H   UNL     1     -12.270   5.645   0.094  0.00  0.00    +0.149 HD
BRANCH  32  34
ATOM     34  C   UNL     1     -14.267   4.654   0.100  0.00  0.00    +0.178 C 
BRANCH  34  35
ATOM     35  C   UNL     1     -14.796   6.066   0.110  0.00  0.00    +0.122 A 
ATOM     36  C   UNL     1     -15.078   6.808  -0.976  0.00  0.00    +0.046 A 
ATOM     37  C   UNL     1     -15.544   8.058  -0.508  0.00  0.00    +0.041 A 
ATOM     38  C   UNL     1     -15.520   8.004   0.836  0.00  0.00    +0.195 A 
ATOM     39  O   UNL     1     -15.071   6.793   1.204  0.00  0.00    -0.466 OA
ENDBRANCH  34  35
ENDBRANCH  32  34
ENDBRANCH  29  30
ENDBRANCH  28  29
ENDBRANCH   5  28
TORSDOF 11
