REMARK  Name = ZINC15959195
REMARK  4 active torsions:
REMARK  status: ('A' for Active; 'I' for Inactive)
REMARK    1  A    between atoms: C_1  and  C_2
REMARK    2  A    between atoms: C_5  and  C_8
REMARK    3  A    between atoms: C_8  and  C_10
REMARK    4  A    between atoms: C_33  and  C_38
REMARK                            x       y       z     vdW  Elec       q    Type
REMARK                         _______ _______ _______ _____ _____    ______ ____
ROOT
ATOM      1  C   UNL     1       0.074  -5.000   1.270  0.00  0.00    +0.099 C 
ATOM      2  C   UNL     1       1.477  -5.350   1.793  0.00  0.00    +0.070 C 
ATOM      3  C   UNL     1       2.587  -4.498   1.175  0.00  0.00    +0.021 C 
ATOM      4  C   UNL     1       3.146  -5.319  -0.004  0.00  0.00    +0.017 C 
ATOM      5  C   UNL     1       2.268  -6.590  -0.053  0.00  0.00    +0.086 C 
ATOM      6  N   UNL     1       1.735  -6.743   1.313  0.00  0.00    -0.281 NA
ATOM      7  C   UNL     1       0.436  -7.422   1.351  0.00  0.00    +0.145 C 
ATOM      8  C   UNL     1      -0.645  -6.358   1.182  0.00  0.00    +0.116 C 
ATOM      9  C   UNL     1      -1.448  -6.537  -0.071  0.00  0.00    -0.008 A 
ATOM     10  C   UNL     1      -1.160  -6.540  -1.419  0.00  0.00    +0.006 A 
ATOM     11  C   UNL     1      -2.151  -6.761  -2.357  0.00  0.00    +0.000 A 
ATOM     12  C   UNL     1      -3.453  -6.981  -1.948  0.00  0.00    +0.002 A 
ATOM     13  C   UNL     1      -3.758  -6.978  -0.604  0.00  0.00    +0.023 A 
ATOM     14  C   UNL     1      -2.762  -6.758   0.344  0.00  0.00    +0.038 A 
ATOM     15  N   UNL     1      -2.847  -6.708   1.736  0.00  0.00    -0.284 N 
ATOM     16  C   UNL     1      -1.659  -6.439   2.303  0.00  0.00    +0.231 C 
ATOM     17  O   UNL     1      -1.447  -6.267   3.484  0.00  0.00    -0.274 OA
ATOM     18  C   UNL     1       0.323  -8.540   0.356  0.00  0.00    +0.004 A 
ATOM     19  C   UNL     1       0.543  -8.656  -0.999  0.00  0.00    +0.008 A 
ATOM     20  C   UNL     1       0.315  -9.854  -1.654  0.00  0.00    +0.001 A 
ATOM     21  C   UNL     1      -0.127 -10.954  -0.945  0.00  0.00    +0.005 A 
ATOM     22  C   UNL     1      -0.324 -10.860   0.416  0.00  0.00    -0.029 A 
ATOM     23  C   UNL     1      -0.084  -9.660   1.081  0.00  0.00    +0.042 A 
ATOM     24  N   UNL     1      -0.135  -9.359   2.444  0.00  0.00    -0.283 N 
ATOM     25  C   UNL     1       0.277  -8.106   2.696  0.00  0.00    +0.244 C 
ATOM     26  O   UNL     1       0.503  -7.620   3.782  0.00  0.00    -0.273 OA
ATOM     27  C   UNL     1      -0.803 -12.066   1.184  0.00  0.00    +0.045 C 
ATOM     28  H   UNL     1      -3.668  -6.851   2.233  0.00  0.00    +0.155 HD
ATOM     29  H   UNL     1      -0.432  -9.978   3.129  0.00  0.00    +0.155 HD
ENDROOT
BRANCH   1  30
ATOM     30  C   UNL     1       0.058  -4.245  -0.021  0.00  0.00    +0.169 C 
ATOM     31  O   UNL     1       0.927  -4.435  -0.846  0.00  0.00    -0.292 OA
BRANCH  30  36
ATOM     32  C   UNL     1      -4.125  -0.446  -1.077  0.00  0.00    +0.044 C 
ATOM     33  C   UNL     1      -3.028  -1.442  -0.800  0.00  0.00    -0.050 A 
ATOM     34  C   UNL     1      -2.038  -1.655  -1.743  0.00  0.00    +0.004 A 
ATOM     35  C   UNL     1      -1.031  -2.564  -1.497  0.00  0.00    +0.011 A 
ATOM     36  C   UNL     1      -1.012  -3.272  -0.291  0.00  0.00    +0.018 A 
ATOM     37  C   UNL     1      -2.016  -3.051   0.657  0.00  0.00    +0.011 A 
ATOM     38  C   UNL     1      -3.013  -2.134   0.398  0.00  0.00    +0.004 A 
ENDBRANCH  30  36
ENDBRANCH   1  30
TORSDOF 2
