REMARK  Name = ZINC02201915
REMARK  6 active torsions:
REMARK  status: ('A' for Active; 'I' for Inactive)
REMARK    1  A    between atoms: C_8  and  N_27
REMARK    2  A    between atoms: C_9  and  C_12
REMARK    3  A    between atoms: C_13  and  C_14
REMARK    4  A    between atoms: C_13  and  C_16
REMARK    5  A    between atoms: N_18  and  C_19
REMARK    6  A    between atoms: C_30  and  C_33
REMARK                            x       y       z     vdW  Elec       q    Type
REMARK                         _______ _______ _______ _____ _____    ______ ____
ROOT
ATOM      1  C   UNL     1      -5.022   4.866  -0.445  0.00  0.00    +0.005 A 
ATOM      2  C   UNL     1      -3.857   5.644  -0.402  0.00  0.00    +0.018 A 
ATOM      3  C   UNL     1      -2.653   5.054  -0.231  0.00  0.00    +0.096 A 
ATOM      4  N   UNL     1      -2.552   3.701  -0.096  0.00  0.00    -0.268 N 
ATOM      5  C   UNL     1      -3.670   2.916  -0.134  0.00  0.00    +0.142 A 
ATOM      6  C   UNL     1      -4.931   3.512  -0.312  0.00  0.00    +0.047 A 
ATOM      7  N   UNL     1      -3.592   1.590  -0.005  0.00  0.00    -0.214 NA
ATOM      8  C   UNL     1      -2.433   0.973   0.161  0.00  0.00    +0.136 A 
ATOM      9  C   UNL     1      -1.238   1.736   0.213  0.00  0.00    +0.081 A 
ATOM     10  C   UNL     1      -1.333   3.145   0.074  0.00  0.00    +0.267 A 
ATOM     11  O   UNL     1      -0.334   3.840   0.108  0.00  0.00    -0.267 OA
ENDROOT
BRANCH   8  12
ATOM     12  N   UNL     1      -2.388  -0.396   0.286  0.00  0.00    -0.314 N 
ATOM     13  C   UNL     1      -1.672  -1.004  -0.843  0.00  0.00    +0.107 C 
ATOM     14  C   UNL     1      -1.514  -2.507  -0.599  0.00  0.00    +0.031 C 
ATOM     15  C   UNL     1      -2.899  -3.142  -0.447  0.00  0.00    +0.078 C 
ATOM     16  C   UNL     1      -3.642  -2.458   0.704  0.00  0.00    +0.031 C 
ATOM     17  C   UNL     1      -3.738  -0.957   0.422  0.00  0.00    +0.107 C 
BRANCH  15  18
ATOM     18  C   UNL     1      -2.749  -4.611  -0.147  0.00  0.00    +0.214 C 
ATOM     19  O   UNL     1      -3.192  -5.068   0.886  0.00  0.00    -0.276 OA
ATOM     20  N   UNL     1      -2.122  -5.418  -1.026  0.00  0.00    -0.329 N 
ATOM     21  H   UNL     1      -1.768  -5.053  -1.851  0.00  0.00    +0.145 HD
ATOM     22  H   UNL     1      -2.026  -6.364  -0.832  0.00  0.00    +0.145 HD
ENDBRANCH  15  18
ENDBRANCH   8  12
BRANCH   9  23
ATOM     23  C   UNL     1       0.009   1.111   0.392  0.00  0.00    +0.040 C 
ATOM     24  C   UNL     1       0.231   0.309   1.503  0.00  0.00    +0.114 C 
BRANCH  24  25
ATOM     25  C   UNL     1       1.494  -0.422   1.639  0.00  0.00    +0.255 C 
ATOM     26  O   UNL     1       2.349  -0.326   0.778  0.00  0.00    -0.269 OA
ATOM     27  N   UNL     1       1.710  -1.202   2.717  0.00  0.00    -0.306 N 
ATOM     28  H   UNL     1       1.028  -1.278   3.404  0.00  0.00    +0.149 HD
BRANCH  27  29
ATOM     29  C   UNL     1       2.972  -1.932   2.853  0.00  0.00    +0.096 C 
ATOM     30  C   UNL     1       2.873  -3.281   2.122  0.00  0.00    +0.046 C 
ATOM     31  C   UNL     1       4.062  -4.187   2.522  0.00  0.00    +0.168 C 
ATOM     32  S   UNL     1       4.468  -3.596   4.216  0.00  0.00    -0.029 S 
ATOM     33  O   UNL     1       5.784  -3.057   4.215  0.00  0.00    -0.174 OA
ATOM     34  O   UNL     1       4.128  -4.607   5.154  0.00  0.00    -0.174 OA
ATOM     35  C   UNL     1       3.256  -2.215   4.356  0.00  0.00    +0.188 C 
ENDBRANCH  27  29
ENDBRANCH  24  25
BRANCH  24  36
ATOM     36  C   UNL     1      -0.775   0.195   2.516  0.00  0.00    +0.104 C 
ATOM     37  N   UNL     1      -1.573   0.105   3.320  0.00  0.00    -0.191 NA
ENDBRANCH  24  36
ENDBRANCH   9  23
TORSDOF 6
