REMARK  Name = ZINC51988791
REMARK  7 active torsions:
REMARK  status: ('A' for Active; 'I' for Inactive)
REMARK    1  A    between atoms: C_1  and  C_2
REMARK    2  A    between atoms: C_2  and  C_3
REMARK    3  A    between atoms: C_2  and  N_4
REMARK    4  A    between atoms: C_6  and  N_21
REMARK    5  A    between atoms: C_8  and  C_9
REMARK    6  A    between atoms: N_11  and  C_12
REMARK    7  A    between atoms: C_18  and  O_20
REMARK                            x       y       z     vdW  Elec       q    Type
REMARK                         _______ _______ _______ _____ _____    ______ ____
ROOT
ATOM      1  C   UNL     1      -1.119  -1.995   2.099  0.00  0.00    +0.261 C 
ATOM      2  O   UNL     1      -1.501  -2.647   3.053  0.00  0.00    -0.269 OA
ATOM      3  N   UNL     1      -1.916  -1.843   1.023  0.00  0.00    -0.305 N 
ATOM      4  H   UNL     1      -1.585  -1.387   0.234  0.00  0.00    +0.149 HD
ENDROOT
BRANCH   3   5
ATOM      5  C   UNL     1      -3.284  -2.369   1.045  0.00  0.00    +0.102 C 
ATOM      6  C   UNL     1      -3.269  -3.845   0.644  0.00  0.00    +0.025 C 
ATOM      7  C   UNL     1      -2.692  -3.985  -0.766  0.00  0.00    +0.002 C 
ATOM      8  C   UNL     1      -3.557  -3.197  -1.752  0.00  0.00    +0.003 C 
ATOM      9  C   UNL     1      -3.572  -1.721  -1.351  0.00  0.00    +0.033 C 
ATOM     10  C   UNL     1      -4.149  -1.581   0.059  0.00  0.00    +0.135 C 
BRANCH  10  11
ATOM     11  O   UNL     1      -4.162  -0.202   0.434  0.00  0.00    -0.390 OA
ATOM     12  H   UNL     1      -4.693   0.359  -0.148  0.00  0.00    +0.210 HD
ENDBRANCH  10  11
ENDBRANCH   3   5
BRANCH   1  17
ATOM     13  N   UNL     1       1.162  -1.526   3.101  0.00  0.00    -0.339 N 
ATOM     14  C   UNL     1       2.259  -0.799   2.760  0.00  0.00    +0.109 A 
ATOM     15  C   UNL     1       2.021  -0.177   1.575  0.00  0.00    +0.043 A 
ATOM     16  C   UNL     1       0.728  -0.528   1.161  0.00  0.00    +0.055 A 
ATOM     17  C   UNL     1       0.209  -1.373   2.120  0.00  0.00    +0.106 A 
BRANCH  13  19
ATOM     18  C   UNL     1       2.021  -3.497   4.266  0.00  0.00    +0.030 C 
ATOM     19  C   UNL     1       1.020  -2.341   4.310  0.00  0.00    +0.081 C 
ATOM     20  C   UNL     1       1.292  -1.477   5.543  0.00  0.00    +0.030 C 
ENDBRANCH  13  19
BRANCH  15  21
ATOM     21  N   UNL     1       2.912   0.668   0.888  0.00  0.00    -0.357 N 
ATOM     22  H   UNL     1       3.789   0.851   1.258  0.00  0.00    +0.142 HD
ATOM     23  H   UNL     1       2.648   1.067   0.044  0.00  0.00    +0.142 HD
ENDBRANCH  15  21
ENDBRANCH   1  17
TORSDOF 5
