REMARK  Name = ZINC33960350
REMARK  9 active torsions:
REMARK  status: ('A' for Active; 'I' for Inactive)
REMARK    1  A    between atoms: C_1  and  C_2
REMARK    2  A    between atoms: C_5  and  O_23
REMARK    3  A    between atoms: C_6  and  N_8
REMARK    4  A    between atoms: C_9  and  C_11
REMARK    5  A    between atoms: C_14  and  C_22
REMARK    6  A    between atoms: C_15  and  C_16
REMARK    7  A    between atoms: C_15  and  C_17
REMARK    8  A    between atoms: N_19  and  O_20
REMARK    9  A    between atoms: O_23  and  C_24
REMARK                            x       y       z     vdW  Elec       q    Type
REMARK                         _______ _______ _______ _____ _____    ______ ____
ROOT
ATOM      1  N   UNL     1       0.050  -2.795   2.399  0.00  0.00    -0.282 N 
ATOM      2  C   UNL     1       0.149  -2.130   3.568  0.00  0.00    +0.224 C 
ATOM      3  O   UNL     1       0.134  -0.917   3.579  0.00  0.00    -0.275 OA
ATOM      4  H   UNL     1      -0.018  -3.762   2.396  0.00  0.00    +0.155 HD
ENDROOT
BRANCH   2   5
ATOM      5  C   UNL     1       0.279  -2.894   4.860  0.00  0.00    +0.058 C 
ATOM      6  C   UNL     1      -0.915  -3.828   5.228  0.00  0.00    +0.018 C 
ATOM      7  C   UNL     1      -0.761  -4.073   6.746  0.00  0.00    +0.014 C 
ATOM      8  C   UNL     1       0.505  -3.257   7.149  0.00  0.00    +0.015 C 
ATOM      9  C   UNL     1       0.388  -2.036   6.171  0.00  0.00    -0.010 C 
ATOM     10  C   UNL     1      -0.884  -1.228   6.437  0.00  0.00    +0.013 C 
ATOM     11  C   UNL     1       1.635  -1.150   6.176  0.00  0.00    +0.013 C 
ATOM     12  C   UNL     1       1.675  -4.023   6.516  0.00  0.00    +0.065 C 
ATOM     13  N   UNL     1       2.575  -4.704   7.120  0.00  0.00    -0.096 NA
ATOM     14  C   UNL     1       1.550  -3.785   5.006  0.00  0.00    +0.071 C 
ATOM     15  C   UNL     1       0.636  -2.920   8.636  0.00  0.00    +0.018 C 
BRANCH  13  16
ATOM     16  O   UNL     1       3.591  -5.352   6.377  0.00  0.00    -0.409 OA
ATOM     17  H   UNL     1       4.223  -5.842   6.920  0.00  0.00    +0.328 HD
ENDBRANCH  13  16
ENDBRANCH   2   5
BRANCH   1  23
ATOM     18  C   UNL     1       1.263   1.227  -0.157  0.00  0.00    +0.044 C 
ATOM     19  C   UNL     1       0.627  -0.137  -0.079  0.00  0.00    -0.048 A 
ATOM     20  C   UNL     1       0.040  -0.689  -1.202  0.00  0.00    +0.007 A 
ATOM     21  C   UNL     1      -0.546  -1.940  -1.136  0.00  0.00    +0.048 A 
ATOM     22  C   UNL     1      -0.545  -2.643   0.058  0.00  0.00    +0.141 A 
ATOM     23  C   UNL     1       0.047  -2.088   1.189  0.00  0.00    +0.076 A 
ATOM     24  C   UNL     1       0.637  -0.835   1.114  0.00  0.00    +0.030 A 
BRANCH  22  25
ATOM     25  O   UNL     1      -1.121  -3.873   0.124  0.00  0.00    -0.493 OA
ATOM     26  C   UNL     1      -1.709  -4.380  -1.076  0.00  0.00    +0.277 C 
ENDBRANCH  22  25
ENDBRANCH   1  23
TORSDOF 4
