REMARK  Name = ZINC67246759
REMARK  4 active torsions:
REMARK  status: ('A' for Active; 'I' for Inactive)
REMARK    1  A    between atoms: C_1  and  C_2
REMARK    2  A    between atoms: C_5  and  N_9
REMARK    3  A    between atoms: N_9  and  N_10
REMARK    4  A    between atoms: C_11  and  C_13
REMARK                            x       y       z     vdW  Elec       q    Type
REMARK                         _______ _______ _______ _____ _____    ______ ____
ROOT
ATOM      1  N   UNL     1       0.074  -4.876   1.187  0.00  0.00    -0.236 N 
ATOM      2  C   UNL     1       0.092  -6.224   1.179  0.00  0.00    +0.232 C 
ATOM      3  O   UNL     1       0.095  -6.824   0.124  0.00  0.00    -0.274 OA
ATOM      4  H   UNL     1       0.072  -4.396   2.030  0.00  0.00    +0.173 HD
ENDROOT
BRANCH   2   5
ATOM      5  C   UNL     1       0.109  -6.985   2.479  0.00  0.00    +0.077 C 
ATOM      6  C   UNL     1       1.357  -6.603   3.277  0.00  0.00    +0.015 C 
ATOM      7  C   UNL     1       1.367  -7.368   4.603  0.00  0.00    +0.036 C 
ATOM      8  C   UNL     1       1.358  -8.868   4.329  0.00  0.00    +0.112 C 
ATOM      9  C   UNL     1       0.132  -9.260   3.511  0.00  0.00    +0.036 C 
ATOM     10  C   UNL     1       0.127  -8.488   2.190  0.00  0.00    +0.015 C 
ATOM     11  C   UNL     1       2.624  -9.281   3.613  0.00  0.00    +0.244 C 
ATOM     12  O   UNL     1       3.009  -8.905   2.527  0.00  0.00    -0.273 OA
ATOM     13  N   UNL     1       3.235 -10.156   4.439  0.00  0.00    -0.238 N 
ATOM     14  C   UNL     1       2.533 -10.346   5.562  0.00  0.00    +0.307 C 
ATOM     15  O   UNL     1       2.880 -11.090   6.459  0.00  0.00    -0.252 OA
ATOM     16  N   UNL     1       1.398  -9.621   5.589  0.00  0.00    -0.285 N 
ATOM     17  H   UNL     1       4.078 -10.593   4.242  0.00  0.00    +0.159 HD
ATOM     18  H   UNL     1       0.739  -9.600   6.299  0.00  0.00    +0.151 HD
ENDBRANCH   2   5
BRANCH   1  19
ATOM     19  N   UNL     1       0.059  -4.168  -0.022  0.00  0.00    -0.264 N 
ATOM     20  H   UNL     1       0.060  -4.648  -0.865  0.00  0.00    +0.170 HD
BRANCH  19  25
ATOM     21  C   UNL     1      -0.018   1.503   0.010  0.00  0.00    +0.045 C 
ATOM     22  C   UNL     1       0.002  -0.004   0.002  0.00  0.00    -0.032 A 
ATOM     23  C   UNL     1       0.006  -0.688  -1.200  0.00  0.00    +0.006 A 
ATOM     24  C   UNL     1       0.025  -2.068  -1.212  0.00  0.00    +0.025 A 
ATOM     25  C   UNL     1       0.040  -2.772  -0.013  0.00  0.00    +0.046 A 
ATOM     26  C   UNL     1       0.037  -2.083   1.193  0.00  0.00    +0.044 A 
ATOM     27  C   UNL     1       0.023  -0.701   1.197  0.00  0.00    +0.046 A 
ATOM     28 CL   UNL     1       0.025   0.161   2.704  0.00  0.00    -0.083 Cl
ENDBRANCH  19  25
ENDBRANCH   1  19
TORSDOF 3
