REMARK  Name = ZINC02880060
REMARK  6 active torsions:
REMARK  status: ('A' for Active; 'I' for Inactive)
REMARK    1  A    between atoms: C_1  and  O_2
REMARK    2  A    between atoms: O_2  and  C_3
REMARK    3  A    between atoms: C_4  and  C_14
REMARK    4  A    between atoms: N_16  and  C_17
REMARK    5  A    between atoms: C_17  and  N_19
REMARK    6  A    between atoms: N_19  and  C_20
REMARK                            x       y       z     vdW  Elec       q    Type
REMARK                         _______ _______ _______ _____ _____    ______ ____
ROOT
ATOM      1  C   UNL     1      -1.153   7.361  -0.486  0.00  0.00    +0.253 C 
ATOM      2  O   UNL     1      -2.202   7.935  -0.706  0.00  0.00    -0.270 OA
ATOM      3  N   UNL     1      -0.037   8.072  -0.229  0.00  0.00    -0.263 N 
ATOM      4  H   UNL     1       0.800   7.614  -0.054  0.00  0.00    +0.157 HD
ENDROOT
BRANCH   1   6
ATOM      5  C   UNL     1      -2.272   5.147  -0.772  0.00  0.00    +0.147 A 
ATOM      6  C   UNL     1      -1.101   5.887  -0.502  0.00  0.00    +0.080 A 
ATOM      7  C   UNL     1       0.097   5.237  -0.251  0.00  0.00    +0.025 A 
ATOM      8  C   UNL     1       0.140   3.836  -0.268  0.00  0.00    -0.016 A 
ATOM      9  C   UNL     1       1.339   3.144  -0.018  0.00  0.00    +0.008 A 
ATOM     10  C   UNL     1       1.350   1.783  -0.041  0.00  0.00    +0.001 A 
ATOM     11  C   UNL     1       0.188   1.062  -0.309  0.00  0.00    +0.001 A 
ATOM     12  C   UNL     1      -0.990   1.696  -0.561  0.00  0.00    +0.010 A 
ATOM     13  C   UNL     1      -1.042   3.101  -0.540  0.00  0.00    -0.000 A 
ATOM     14  C   UNL     1      -2.245   3.783  -0.792  0.00  0.00    +0.068 A 
ATOM     15 BR   UNL     1      -3.826   2.811  -1.155  0.00  0.00    -0.046 Br
BRANCH   5  17
ATOM     16  C   UNL     1      -3.721   6.134  -2.376  0.00  0.00    +0.277 C 
ATOM     17  O   UNL     1      -3.437   5.800  -1.016  0.00  0.00    -0.493 OA
ENDBRANCH   5  17
ENDBRANCH   1   6
BRANCH   3  18
ATOM     18  C   UNL     1      -0.084   9.418  -0.215  0.00  0.00    +0.141 C 
ATOM     19  S   UNL     1      -1.561  10.227  -0.524  0.00  0.00    -0.018 S 
BRANCH  18  20
ATOM     20  N   UNL     1       1.032  10.129   0.042  0.00  0.00    -0.297 N 
ATOM     21  H   UNL     1       1.850   9.673   0.296  0.00  0.00    +0.154 HD
BRANCH  20  22
ATOM     22  C   UNL     1       1.011  11.526  -0.057  0.00  0.00    +0.035 A 
ATOM     23  C   UNL     1       0.350  12.136  -1.117  0.00  0.00    +0.025 A 
ATOM     24  C   UNL     1       0.321  13.513  -1.217  0.00  0.00    +0.029 A 
ATOM     25  C   UNL     1       0.963  14.290  -0.264  0.00  0.00    +0.067 A 
ATOM     26  C   UNL     1       1.633  13.680   0.798  0.00  0.00    +0.069 A 
ATOM     27  C   UNL     1       1.655  12.297   0.899  0.00  0.00    +0.051 A 
ATOM     28  N   UNL     1       2.169  14.702   1.577  0.00  0.00    -0.306 N 
ATOM     29  H   UNL     1       2.690  14.585   2.387  0.00  0.00    +0.170 HD
ATOM     30  C   UNL     1       1.841  15.881   1.015  0.00  0.00    +0.325 A 
ATOM     31  O   UNL     1       2.155  16.974   1.447  0.00  0.00    -0.247 OA
ATOM     32  N   UNL     1       1.113  15.666  -0.097  0.00  0.00    -0.306 N 
ATOM     33  H   UNL     1       0.756  16.352  -0.683  0.00  0.00    +0.170 HD
ENDBRANCH  20  22
ENDBRANCH  18  20
ENDBRANCH   3  18
TORSDOF 5
