REMARK  Name = ZINC40682306
REMARK  11 active torsions:
REMARK  status: ('A' for Active; 'I' for Inactive)
REMARK    1  A    between atoms: C_1  and  O_2
REMARK    2  A    between atoms: O_2  and  C_3
REMARK    3  A    between atoms: C_6  and  C_11
REMARK    4  A    between atoms: C_8  and  O_9
REMARK    5  A    between atoms: O_9  and  C_10
REMARK    6  A    between atoms: C_11  and  C_12
REMARK    7  A    between atoms: C_12  and  N_13
REMARK    8  A    between atoms: C_15  and  N_32
REMARK    9  A    between atoms: C_16  and  N_20
REMARK   10  A    between atoms: N_20  and  C_21
REMARK   11  A    between atoms: C_23  and  C_28
REMARK                            x       y       z     vdW  Elec       q    Type
REMARK                         _______ _______ _______ _____ _____    ______ ____
ROOT
ATOM      1  N   UNL     1      -6.774  -3.492  -1.394  0.00  0.00    -0.327 N 
ATOM      2  C   UNL     1      -7.389  -3.831  -2.593  0.00  0.00    +0.145 A 
ATOM      3  C   UNL     1      -8.625  -4.479  -2.598  0.00  0.00    +0.105 A 
ATOM      4  C   UNL     1      -9.198  -4.796  -3.831  0.00  0.00    +0.149 A 
ATOM      5  N   UNL     1      -8.549  -4.471  -4.947  0.00  0.00    -0.219 NA
ATOM      6  C   UNL     1      -7.383  -3.859  -4.898  0.00  0.00    +0.225 A 
ATOM      7  N   UNL     1      -6.810  -3.537  -3.755  0.00  0.00    -0.219 NA
ATOM      8  H   UNL     1      -7.203  -3.709  -0.551  0.00  0.00    +0.148 HD
ENDROOT
BRANCH   3   9
ATOM      9  N   UNL     1      -9.274  -4.804  -1.396  0.00  0.00    -0.353 N 
ATOM     10  H   UNL     1      -8.864  -4.578  -0.547  0.00  0.00    +0.143 HD
ATOM     11  H   UNL     1     -10.133  -5.255  -1.415  0.00  0.00    +0.143 HD
ENDBRANCH   3   9
BRANCH   4  12
ATOM     12  N   UNL     1     -10.428  -5.443  -3.893  0.00  0.00    -0.297 N 
ATOM     13  H   UNL     1     -10.853  -5.755  -3.079  0.00  0.00    +0.154 HD
BRANCH  12  14
ATOM     14  C   UNL     1     -11.051  -5.644  -5.128  0.00  0.00    +0.052 A 
ATOM     15  C   UNL     1     -10.760  -4.807  -6.198  0.00  0.00    +0.037 A 
ATOM     16  C   UNL     1     -11.377  -5.008  -7.418  0.00  0.00    +0.057 A 
ATOM     17  C   UNL     1     -12.283  -6.041  -7.574  0.00  0.00    +0.014 A 
ATOM     18  C   UNL     1     -12.576  -6.876  -6.511  0.00  0.00    +0.022 A 
ATOM     19  C   UNL     1     -11.958  -6.684  -5.290  0.00  0.00    +0.062 A 
ATOM     20 CL   UNL     1     -12.320  -7.737  -3.958  0.00  0.00    -0.082 Cl
BRANCH  16  21
ATOM     21  C   UNL     1     -11.062  -4.101  -8.579  0.00  0.00    +0.417 C 
ATOM     22  F   UNL     1      -9.984  -4.625  -9.301  0.00  0.00    -0.166 F 
ATOM     23  F   UNL     1     -12.181  -4.006  -9.414  0.00  0.00    -0.166 F 
ATOM     24  F   UNL     1     -10.728  -2.830  -8.100  0.00  0.00    -0.166 F 
ENDBRANCH  16  21
ENDBRANCH  12  14
ENDBRANCH   4  12
BRANCH   1  25
ATOM     25  C   UNL     1      -5.480  -2.806  -1.402  0.00  0.00    +0.107 C 
BRANCH  25  26
ATOM     26  C   UNL     1      -5.029  -2.551   0.038  0.00  0.00    +0.054 C 
BRANCH  26  30
ATOM     27  C   UNL     1      -1.253  -0.543   0.015  0.00  0.00    +0.161 A 
ATOM     28  C   UNL     1      -2.430   0.188   0.007  0.00  0.00    +0.049 A 
ATOM     29  C   UNL     1      -3.649  -0.464   0.014  0.00  0.00    +0.007 A 
ATOM     30  C   UNL     1      -3.697  -1.845   0.030  0.00  0.00    -0.042 A 
ATOM     31  C   UNL     1      -2.527  -2.581   0.038  0.00  0.00    +0.053 A 
ATOM     32  C   UNL     1      -1.302  -1.934   0.025  0.00  0.00    +0.162 A 
BRANCH  27  34
ATOM     33  C   UNL     1      -0.080   1.526  -0.002  0.00  0.00    +0.277 C 
ATOM     34  O   UNL     1      -0.053   0.097   0.007  0.00  0.00    -0.491 OA
ENDBRANCH  27  34
BRANCH  32  35
ATOM     35  O   UNL     1      -0.150  -2.656   0.027  0.00  0.00    -0.491 OA
ATOM     36  C   UNL     1      -0.276  -4.079   0.037  0.00  0.00    +0.277 C 
ENDBRANCH  32  35
ENDBRANCH  26  30
ENDBRANCH  25  26
ENDBRANCH   1  25
TORSDOF 9
