REMARK  Name = ZINC17417416
REMARK  11 active torsions:
REMARK  status: ('A' for Active; 'I' for Inactive)
REMARK    1  A    between atoms: C_1  and  C_2
REMARK    2  A    between atoms: C_2  and  O_3
REMARK    3  A    between atoms: O_3  and  P_4
REMARK    4  A    between atoms: P_4  and  N_6
REMARK    5  A    between atoms: P_4  and  O_25
REMARK    6  A    between atoms: N_6  and  C_7
REMARK    7  A    between atoms: N_14  and  N_15
REMARK    8  A    between atoms: N_15  and  C_16
REMARK    9  A    between atoms: C_16  and  N_18
REMARK   10  A    between atoms: O_25  and  C_26
REMARK   11  A    between atoms: C_26  and  C_27
REMARK                            x       y       z     vdW  Elec       q    Type
REMARK                         _______ _______ _______ _____ _____    ______ ____
ROOT
ATOM      1  C   UNL     1       1.281   1.713   0.773  0.00  0.00    +0.037 A 
ATOM      2  C   UNL     1       1.245   3.100   0.653  0.00  0.00    +0.024 A 
ATOM      3  C   UNL     1       2.386   3.803   0.332  0.00  0.00    +0.011 A 
ATOM      4  C   UNL     1       3.586   3.127   0.113  0.00  0.00    -0.008 A 
ATOM      5  C   UNL     1       3.623   1.726   0.227  0.00  0.00    +0.012 A 
ATOM      6  C   UNL     1       2.467   1.026   0.558  0.00  0.00    +0.034 A 
ATOM      7  C   UNL     1       5.007   1.286  -0.056  0.00  0.00    +0.097 C 
ATOM      8  N   UNL     1       5.448   0.054  -0.050  0.00  0.00    -0.180 NA
ATOM      9  C   UNL     1       5.798   2.501  -0.346  0.00  0.00    +0.010 A 
ATOM     10  C   UNL     1       4.938   3.608  -0.244  0.00  0.00    -0.008 A 
ATOM     11  C   UNL     1       5.440   4.889  -0.473  0.00  0.00    +0.009 A 
ATOM     12  C   UNL     1       6.770   5.060  -0.798  0.00  0.00    +0.001 A 
ATOM     13  C   UNL     1       7.616   3.967  -0.898  0.00  0.00    +0.001 A 
ATOM     14  C   UNL     1       7.138   2.692  -0.675  0.00  0.00    +0.011 A 
ENDROOT
BRANCH   1  15
ATOM     15  N   UNL     1       0.120   1.012   1.104  0.00  0.00    -0.252 N 
ATOM     16  H   UNL     1       0.143   0.046   1.184  0.00  0.00    +0.158 HD
BRANCH  15  17
ATOM     17  P   UNL     1      -1.284   1.823   1.352  0.00  0.00    +0.427 P 
ATOM     18  O   UNL     1      -2.358   0.859   1.681  0.00  0.00    -0.236 OA
BRANCH  17  19
ATOM     19  O   UNL     1      -1.099   2.857   2.572  0.00  0.00    -0.294 OA
BRANCH  19  21
ATOM     20  C   UNL     1      -0.797   3.668   4.829  0.00  0.00    +0.035 C 
ATOM     21  C   UNL     1      -0.951   2.439   3.931  0.00  0.00    +0.168 C 
ENDBRANCH  19  21
ENDBRANCH  17  19
BRANCH  17  22
ATOM     22  O   UNL     1      -1.679   2.632   0.018  0.00  0.00    -0.294 OA
BRANCH  22  23
ATOM     23  C   UNL     1      -2.212   1.999  -1.147  0.00  0.00    +0.168 C 
ATOM     24  C   UNL     1      -2.475   3.053  -2.225  0.00  0.00    +0.035 C 
ENDBRANCH  22  23
ENDBRANCH  17  22
ENDBRANCH  15  17
ENDBRANCH   1  15
BRANCH   8  25
ATOM     25  N   UNL     1       6.820  -0.200  -0.170  0.00  0.00    -0.218 N 
ATOM     26  H   UNL     1       7.451   0.537  -0.172  0.00  0.00    +0.176 HD
BRANCH  25  27
ATOM     27  C   UNL     1       7.264  -1.467  -0.282  0.00  0.00    +0.147 C 
ATOM     28  S   UNL     1       8.941  -1.777  -0.429  0.00  0.00    -0.017 S 
BRANCH  27  29
ATOM     29  N   UNL     1       6.388  -2.491  -0.279  0.00  0.00    -0.339 N 
ATOM     30  H   UNL     1       5.437  -2.316  -0.196  0.00  0.00    +0.144 HD
ATOM     31  H   UNL     1       6.707  -3.403  -0.360  0.00  0.00    +0.144 HD
ENDBRANCH  27  29
ENDBRANCH  25  27
ENDBRANCH   8  25
TORSDOF 9
