REMARK  Name = ZINC44432804
REMARK  5 active torsions:
REMARK  status: ('A' for Active; 'I' for Inactive)
REMARK    1  A    between atoms: C_1  and  C_2
REMARK    2  A    between atoms: C_5  and  C_8
REMARK    3  A    between atoms: C_10  and  C_13
REMARK    4  A    between atoms: N_19  and  C_20
REMARK    5  A    between atoms: C_20  and  C_21
REMARK                            x       y       z     vdW  Elec       q    Type
REMARK                         _______ _______ _______ _____ _____    ______ ____
ROOT
ATOM      1  C   UNL     1       0.102  -7.482   1.642  0.00  0.00    +0.165 C 
ATOM      2  C   UNL     1      -1.271  -8.191   1.629  0.00  0.00    +0.041 C 
ATOM      3  C   UNL     1      -0.861  -9.674   1.784  0.00  0.00    +0.098 C 
ATOM      4  C   UNL     1       0.553  -9.726   1.248  0.00  0.00    +0.217 C 
ATOM      5  O   UNL     1       1.139 -10.739   0.931  0.00  0.00    -0.276 OA
ATOM      6  N   UNL     1       1.067  -8.484   1.175  0.00  0.00    -0.285 N 
ENDROOT
BRANCH   1   9
ATOM      7  C   UNL     1       0.059  -4.256  -0.021  0.00  0.00    +0.202 A 
ATOM      8  N   UNL     1       0.070  -5.047   1.067  0.00  0.00    -0.190 NA
ATOM      9  C   UNL     1       0.086  -6.299   0.708  0.00  0.00    +0.248 A 
ATOM     10  O   UNL     1       0.086  -6.357  -0.630  0.00  0.00    -0.336 OA
ATOM     11  N   UNL     1       0.064  -5.015  -1.090  0.00  0.00    -0.056 NA
BRANCH   7  16
ATOM     12  C   UNL     1      -0.018   1.503   0.010  0.00  0.00    +0.044 C 
ATOM     13  C   UNL     1       0.002  -0.004   0.002  0.00  0.00    -0.050 A 
ATOM     14  C   UNL     1       0.006  -0.686  -1.201  0.00  0.00    +0.004 A 
ATOM     15  C   UNL     1       0.024  -2.067  -1.214  0.00  0.00    +0.012 A 
ATOM     16  C   UNL     1       0.040  -2.772  -0.013  0.00  0.00    +0.022 A 
ATOM     17  C   UNL     1       0.036  -2.080   1.196  0.00  0.00    +0.012 A 
ATOM     18  C   UNL     1       0.023  -0.700   1.198  0.00  0.00    +0.004 A 
ENDBRANCH   7  16
ENDBRANCH   1   9
BRANCH   6  19
ATOM     19  C   UNL     1       2.414  -8.172   0.691  0.00  0.00    +0.146 C 
BRANCH  19  20
ATOM     20  C   UNL     1       3.381  -8.194   1.846  0.00  0.00    +0.005 A 
ATOM     21  C   UNL     1       3.777  -7.010   2.439  0.00  0.00    +0.008 A 
ATOM     22  C   UNL     1       4.664  -7.031   3.499  0.00  0.00    +0.000 A 
ATOM     23  C   UNL     1       5.155  -8.235   3.968  0.00  0.00    +0.003 A 
ATOM     24  C   UNL     1       4.760  -9.420   3.377  0.00  0.00    +0.038 A 
ATOM     25  C   UNL     1       3.868  -9.401   2.318  0.00  0.00    +0.128 A 
ATOM     26  F   UNL     1       3.477 -10.559   1.743  0.00  0.00    -0.205 F 
ENDBRANCH  19  20
ENDBRANCH   6  19
TORSDOF 4
