REMARK  Name = ZINC40154700
REMARK  7 active torsions:
REMARK  status: ('A' for Active; 'I' for Inactive)
REMARK    1  A    between atoms: C_1  and  C_2
REMARK    2  A    between atoms: C_2  and  C_4
REMARK    3  A    between atoms: C_2  and  N_17
REMARK    4  A    between atoms: N_6  and  C_7
REMARK    5  A    between atoms: C_10  and  S_13
REMARK    6  A    between atoms: S_13  and  N_16
REMARK    7  A    between atoms: C_21  and  C_24
REMARK                            x       y       z     vdW  Elec       q    Type
REMARK                         _______ _______ _______ _____ _____    ______ ____
ROOT
ATOM      1  C   UNL     1       0.666  -0.355  -1.330  0.00  0.00    +0.234 C 
ATOM      2  O   UNL     1       0.052  -0.924  -2.207  0.00  0.00    -0.274 OA
ATOM      3  N   UNL     1       1.991  -0.146  -1.462  0.00  0.00    -0.284 N 
ATOM      4  H   UNL     1       2.468   0.376  -0.797  0.00  0.00    +0.155 HD
ENDROOT
BRANCH   3   5
ATOM      5  C   UNL     1       2.678  -0.681  -2.557  0.00  0.00    +0.034 A 
ATOM      6  C   UNL     1       3.758   0.002  -3.102  0.00  0.00    +0.025 A 
ATOM      7  C   UNL     1       4.434  -0.529  -4.183  0.00  0.00    +0.030 A 
ATOM      8  C   UNL     1       4.037  -1.738  -4.723  0.00  0.00    +0.105 A 
ATOM      9  C   UNL     1       2.962  -2.420  -4.183  0.00  0.00    +0.030 A 
ATOM     10  C   UNL     1       2.285  -1.898  -3.098  0.00  0.00    +0.025 A 
BRANCH   8  11
ATOM     11  S   UNL     1       4.902  -2.412  -6.102  0.00  0.00    +0.056 S 
ATOM     12  O   UNL     1       3.997  -3.285  -6.763  0.00  0.00    -0.153 OA
ATOM     13  O   UNL     1       5.526  -1.320  -6.763  0.00  0.00    -0.153 OA
BRANCH  11  14
ATOM     14  N   UNL     1       6.120  -3.360  -5.501  0.00  0.00    -0.204 NA
ATOM     15  H   UNL     1       6.236  -3.450  -4.542  0.00  0.00    +0.144 HD
ATOM     16  H   UNL     1       6.717  -3.825  -6.107  0.00  0.00    +0.144 HD
ENDBRANCH  11  14
ENDBRANCH   8  11
ENDBRANCH   3   5
BRANCH   1  18
ATOM     17  C   UNL     1       0.097   1.636   0.035  0.00  0.00    +0.034 C 
ATOM     18  C   UNL     1      -0.052   0.119  -0.092  0.00  0.00    +0.140 C 
BRANCH  18  19
ATOM     19  N   UNL     1      -1.476  -0.227  -0.191  0.00  0.00    -0.287 NA
ATOM     20  C   UNL     1      -2.100   0.434  -1.346  0.00  0.00    +0.113 C 
ATOM     21  C   UNL     1      -3.565   0.000  -1.446  0.00  0.00    +0.176 C 
ATOM     22  O   UNL     1      -4.233   0.311  -0.219  0.00  0.00    -0.369 OA
ATOM     23  C   UNL     1      -3.652  -0.317   0.927  0.00  0.00    +0.162 C 
ATOM     24  C   UNL     1      -2.188   0.114   1.050  0.00  0.00    +0.121 C 
BRANCH  23  25
ATOM     25  C   UNL     1      -4.405   0.100   2.164  0.00  0.00    -0.018 A 
ATOM     26  C   UNL     1      -4.928   1.376   2.258  0.00  0.00    +0.007 A 
ATOM     27  C   UNL     1      -5.619   1.758   3.392  0.00  0.00    +0.020 A 
ATOM     28  C   UNL     1      -5.787   0.863   4.434  0.00  0.00    +0.041 A 
ATOM     29  C   UNL     1      -5.264  -0.414   4.340  0.00  0.00    +0.020 A 
ATOM     30  C   UNL     1      -4.578  -0.797   3.202  0.00  0.00    +0.007 A 
ATOM     31 CL   UNL     1      -6.655   1.343   5.859  0.00  0.00    -0.084 Cl
ENDBRANCH  23  25
ENDBRANCH  18  19
ENDBRANCH   1  18
TORSDOF 6
