REMARK  Name = ZINC39657928
REMARK  8 active torsions:
REMARK  status: ('A' for Active; 'I' for Inactive)
REMARK    1  A    between atoms: C_1  and  O_2
REMARK    2  A    between atoms: O_2  and  C_3
REMARK    3  A    between atoms: C_6  and  C_11
REMARK    4  A    between atoms: C_7  and  O_9
REMARK    5  A    between atoms: O_9  and  C_10
REMARK    6  A    between atoms: C_15  and  C_24
REMARK    7  A    between atoms: N_26  and  C_27
REMARK    8  A    between atoms: C_30  and  C_33
REMARK                            x       y       z     vdW  Elec       q    Type
REMARK                         _______ _______ _______ _____ _____    ______ ____
ROOT
ATOM      1  C   UNL     1       2.683  -2.690  -4.498  0.00  0.00    +0.250 C 
ATOM      2  O   UNL     1       2.879  -3.886  -4.599  0.00  0.00    -0.270 OA
ATOM      3  N   UNL     1       3.078  -1.857  -5.480  0.00  0.00    -0.296 N 
ATOM      4  C   UNL     1       3.025  -0.376  -5.491  0.00  0.00    +0.121 C 
ATOM      5  C   UNL     1       4.340   0.057  -6.178  0.00  0.00    +0.100 C 
ATOM      6  C   UNL     1       4.753  -1.153  -7.033  0.00  0.00    -0.004 C 
ATOM      7  C   UNL     1       3.669  -2.214  -6.792  0.00  0.00    +0.115 C 
ATOM      8  C   UNL     1       6.110  -1.681  -6.580  0.00  0.00    -0.010 C 
ATOM      9  C   UNL     1       6.525  -2.847  -7.482  0.00  0.00    -0.082 C 
ATOM     10  N   UNL     1       6.595  -2.390  -8.875  0.00  0.00    +0.379 N 
ATOM     11  C   UNL     1       5.265  -1.970  -9.332  0.00  0.00    -0.082 C 
ATOM     12  C   UNL     1       4.797  -0.767  -8.508  0.00  0.00    -0.010 C 
ATOM     13  H   UNL     1       7.233  -1.611  -8.940  0.00  0.00    -0.086 HD
ATOM     14  H   UNL     1       6.927  -3.143  -9.459  0.00  0.00    -0.086 HD
ENDROOT
BRANCH   1  18
ATOM     15  C   UNL     1       0.755  -1.140  -1.045  0.00  0.00    +0.124 A 
ATOM     16  C   UNL     1       0.546  -0.545  -2.286  0.00  0.00    +0.046 A 
ATOM     17  C   UNL     1       1.169  -1.044  -3.406  0.00  0.00    +0.020 A 
ATOM     18  C   UNL     1       2.015  -2.153  -3.300  0.00  0.00    +0.079 A 
ATOM     19  C   UNL     1       2.224  -2.751  -2.049  0.00  0.00    +0.136 A 
ATOM     20  C   UNL     1       1.596  -2.236  -0.927  0.00  0.00    +0.092 A 
BRANCH  15  22
ATOM     21  C   UNL     1      -0.717   0.489  -0.135  0.00  0.00    +0.277 C 
ATOM     22  O   UNL     1       0.137  -0.642   0.056  0.00  0.00    -0.495 OA
ENDBRANCH  15  22
BRANCH  19  23
ATOM     23  O   UNL     1       3.043  -3.827  -1.936  0.00  0.00    -0.494 OA
ATOM     24  C   UNL     1       3.208  -4.383  -0.631  0.00  0.00    +0.277 C 
ENDBRANCH  19  23
ENDBRANCH   1  18
BRANCH   5  25
ATOM     25  C   UNL     1       5.396   0.358  -5.146  0.00  0.00    +0.218 C 
ATOM     26  O   UNL     1       5.389  -0.226  -4.083  0.00  0.00    -0.275 OA
ATOM     27  N   UNL     1       6.348   1.276  -5.404  0.00  0.00    -0.312 N 
ATOM     28  H   UNL     1       6.354   1.743  -6.255  0.00  0.00    +0.149 HD
BRANCH  27  29
ATOM     29  C   UNL     1       7.375   1.569  -4.401  0.00  0.00    +0.073 C 
ATOM     30  C   UNL     1       6.843   2.612  -3.417  0.00  0.00    +0.023 C 
ATOM     31  C   UNL     1       7.916   2.918  -2.369  0.00  0.00    +0.016 C 
ATOM     32  C   UNL     1       9.166   3.462  -3.063  0.00  0.00    +0.102 C 
ATOM     33  C   UNL     1       9.698   2.419  -4.048  0.00  0.00    +0.016 C 
ATOM     34  C   UNL     1       8.625   2.113  -5.095  0.00  0.00    +0.023 C 
BRANCH  32  35
ATOM     35  C   UNL     1      10.223   3.763  -2.031  0.00  0.00    +0.359 C 
ATOM     36  O   UNL     1      11.403   3.674  -2.323  0.00  0.00    -0.246 OA
ATOM     37  O   UNL     1       9.897   4.096  -0.904  0.00  0.00    -0.246 OA
ENDBRANCH  32  35
ENDBRANCH  27  29
ENDBRANCH   5  25
TORSDOF 6
