REMARK  Name = ZINC63775449
REMARK  7 active torsions:
REMARK  status: ('A' for Active; 'I' for Inactive)
REMARK    1  A    between atoms: C_1  and  C_2
REMARK    2  A    between atoms: C_2  and  C_3
REMARK    3  A    between atoms: C_6  and  C_9
REMARK    4  A    between atoms: C_13  and  O_22
REMARK    5  A    between atoms: C_14  and  O_20
REMARK    6  A    between atoms: O_20  and  C_21
REMARK    7  A    between atoms: O_22  and  C_23
REMARK                            x       y       z     vdW  Elec       q    Type
REMARK                         _______ _______ _______ _____ _____    ______ ____
ROOT
ATOM      1  C   UNL     1      -5.419  -2.005   0.043  0.00  0.00    +0.190 C 
ATOM      2  N   UNL     1      -5.651  -2.805  -1.166  0.00  0.00    -0.322 N 
ATOM      3  C   UNL     1      -5.112  -4.088  -1.226  0.00  0.00    +0.045 A 
ATOM      4  C   UNL     1      -4.742  -4.669  -2.424  0.00  0.00    +0.073 A 
ATOM      5  C   UNL     1      -4.205  -5.948  -2.431  0.00  0.00    +0.163 A 
ATOM      6  C   UNL     1      -4.037  -6.650  -1.236  0.00  0.00    +0.162 A 
ATOM      7  C   UNL     1      -4.405  -6.079  -0.034  0.00  0.00    +0.064 A 
ATOM      8  C   UNL     1      -4.949  -4.794  -0.020  0.00  0.00    +0.061 A 
ATOM      9  C   UNL     1      -5.367  -4.146   1.234  0.00  0.00    +0.248 C 
ATOM     10  O   UNL     1      -5.479  -4.798   2.255  0.00  0.00    -0.270 OA
ATOM     11  N   UNL     1      -5.624  -2.822   1.239  0.00  0.00    -0.289 N 
ATOM     12  H   UNL     1      -6.167  -2.449  -1.905  0.00  0.00    +0.148 HD
ATOM     13  H   UNL     1      -5.951  -2.404   2.051  0.00  0.00    +0.151 HD
ENDROOT
BRANCH   1  17
ATOM     14  C   UNL     1      -1.412  -0.526   0.013  0.00  0.00    -0.048 A 
ATOM     15  C   UNL     1      -2.051  -0.766   1.215  0.00  0.00    +0.004 A 
ATOM     16  C   UNL     1      -3.348  -1.244   1.225  0.00  0.00    +0.007 A 
ATOM     17  C   UNL     1      -4.006  -1.482   0.032  0.00  0.00    -0.009 A 
ATOM     18  C   UNL     1      -3.367  -1.241  -1.170  0.00  0.00    +0.007 A 
ATOM     19  C   UNL     1      -2.072  -0.758  -1.179  0.00  0.00    +0.004 A 
BRANCH  14  21
ATOM     20  C   UNL     1      -0.019   1.526   0.010  0.00  0.00    +0.009 C 
ATOM     21  C   UNL     1       0.002  -0.004   0.002  0.00  0.00    +0.032 C 
ENDBRANCH  14  21
ENDBRANCH   1  17
BRANCH   6  22
ATOM     22  O   UNL     1      -3.507  -7.903  -1.256  0.00  0.00    -0.491 OA
ATOM     23  C   UNL     1      -3.362  -8.566   0.001  0.00  0.00    +0.277 C 
ENDBRANCH   6  22
BRANCH   5  24
ATOM     24  O   UNL     1      -3.841  -6.520  -3.607  0.00  0.00    -0.491 OA
ATOM     25  C   UNL     1      -4.040  -5.749  -4.793  0.00  0.00    +0.277 C 
ENDBRANCH   5  24
TORSDOF 4
