REMARK  Name = ZINC40979564
REMARK  11 active torsions:
REMARK  status: ('A' for Active; 'I' for Inactive)
REMARK    1  A    between atoms: C_1  and  C_2
REMARK    2  A    between atoms: C_2  and  C_3
REMARK    3  A    between atoms: C_3  and  C_4
REMARK    4  A    between atoms: C_4  and  O_5
REMARK    5  A    between atoms: O_5  and  C_6
REMARK    6  A    between atoms: C_6  and  C_8
REMARK    7  A    between atoms: C_9  and  C_33
REMARK    8  A    between atoms: C_16  and  C_18
REMARK    9  A    between atoms: C_21  and  O_24
REMARK   10  A    between atoms: O_24  and  C_25
REMARK   11  A    between atoms: C_25  and  C_26
REMARK                            x       y       z     vdW  Elec       q    Type
REMARK                         _______ _______ _______ _____ _____    ______ ____
ROOT
ATOM      1  C   UNL     1      -4.209  -4.489   0.225  0.00  0.00    +0.082 C 
ATOM      2  C   UNL     1      -4.334  -5.788  -0.085  0.00  0.00    +0.020 C 
ATOM      3  N   UNL     1      -5.556  -6.381  -0.284  0.00  0.00    -0.286 N 
ATOM      4  C   UNL     1      -6.682  -5.663   0.093  0.00  0.00    +0.240 A 
ATOM      5  N   UNL     1      -7.924  -6.031   0.224  0.00  0.00    -0.092 NA
ATOM      6  N   UNL     1      -8.648  -5.034   0.605  0.00  0.00    -0.021 NA
ATOM      7  N   UNL     1      -7.919  -3.973   0.738  0.00  0.00    -0.042 NA
ATOM      8  N   UNL     1      -6.617  -4.343   0.408  0.00  0.00    -0.201 N 
ATOM      9  C   UNL     1      -5.387  -3.563   0.376  0.00  0.00    +0.181 C 
ATOM     10  C   UNL     1      -3.089  -6.627  -0.220  0.00  0.00    +0.061 C 
ATOM     11  H   UNL     1      -5.630  -7.266  -0.674  0.00  0.00    +0.155 HD
ENDROOT
BRANCH   9  12
ATOM     12  C   UNL     1      -5.432  -2.611  -0.791  0.00  0.00    -0.018 A 
ATOM     13  C   UNL     1      -5.561  -3.101  -2.077  0.00  0.00    +0.009 A 
ATOM     14  C   UNL     1      -5.601  -2.230  -3.149  0.00  0.00    +0.046 A 
ATOM     15  C   UNL     1      -5.512  -0.863  -2.934  0.00  0.00    +0.121 A 
ATOM     16  C   UNL     1      -5.383  -0.373  -1.642  0.00  0.00    +0.046 A 
ATOM     17  C   UNL     1      -5.349  -1.248  -0.573  0.00  0.00    +0.009 A 
BRANCH  15  18
ATOM     18  O   UNL     1      -5.551  -0.004  -3.986  0.00  0.00    -0.487 OA
BRANCH  18  19
ATOM     19  C   UNL     1      -5.455   1.390  -3.690  0.00  0.00    +0.264 C 
BRANCH  19  20
ATOM     20  C   UNL     1      -5.516   2.182  -4.971  0.00  0.00    -0.010 A 
ATOM     21  C   UNL     1      -4.352   2.477  -5.657  0.00  0.00    +0.008 A 
ATOM     22  C   UNL     1      -4.407   3.202  -6.832  0.00  0.00    +0.015 A 
ATOM     23  C   UNL     1      -5.627   3.632  -7.323  0.00  0.00    +0.018 A 
ATOM     24  C   UNL     1      -6.791   3.336  -6.636  0.00  0.00    +0.015 A 
ATOM     25  C   UNL     1      -6.735   2.607  -5.464  0.00  0.00    +0.008 A 
ATOM     26 BR   UNL     1      -5.703   4.625  -8.930  0.00  0.00    -0.050 Br
ENDBRANCH  19  20
ENDBRANCH  18  19
ENDBRANCH  15  18
ENDBRANCH   9  12
BRANCH   1  27
ATOM     27  C   UNL     1      -2.912  -3.966   0.424  0.00  0.00    +0.339 C 
ATOM     28  O   UNL     1      -2.479  -3.826   1.553  0.00  0.00    -0.245 OA
BRANCH  27  29
ATOM     29  O   UNL     1      -2.153  -3.621  -0.637  0.00  0.00    -0.461 OA
BRANCH  29  30
ATOM     30  C   UNL     1      -0.852  -3.098  -0.362  0.00  0.00    +0.232 C 
BRANCH  30  31
ATOM     31  C   UNL     1      -0.146  -2.767  -1.678  0.00  0.00    +0.041 C 
BRANCH  31  33
ATOM     32  C   UNL     1       1.952  -1.876  -2.700  0.00  0.00    +0.004 C 
ATOM     33  C   UNL     1       1.247  -2.208  -1.383  0.00  0.00    -0.000 C 
ENDBRANCH  31  33
ENDBRANCH  30  31
ENDBRANCH  29  30
ENDBRANCH  27  29
ENDBRANCH   1  27
TORSDOF 9
