REMARK  Name = ZINC14551842
REMARK  5 active torsions:
REMARK  status: ('A' for Active; 'I' for Inactive)
REMARK    1  A    between atoms: C_1  and  C_2
REMARK    2  A    between atoms: C_4  and  N_26
REMARK    3  A    between atoms: C_9  and  C_18
REMARK    4  A    between atoms: C_21  and  S_24
REMARK    5  A    between atoms: S_24  and  C_25
REMARK                            x       y       z     vdW  Elec       q    Type
REMARK                         _______ _______ _______ _____ _____    ______ ____
ROOT
ATOM      1  C   UNL     1       3.480  -5.519   2.186  0.00  0.00    +0.046 C 
ATOM      2  C   UNL     1       3.592  -5.154   0.728  0.00  0.00    -0.027 A 
ATOM      3  C   UNL     1       4.819  -5.209   0.105  0.00  0.00    +0.038 A 
ATOM      4  C   UNL     1       4.937  -4.877  -1.232  0.00  0.00    +0.127 A 
ATOM      5  C   UNL     1       3.817  -4.482  -1.940  0.00  0.00    +0.038 A 
ATOM      6  C   UNL     1       2.586  -4.418  -1.322  0.00  0.00    -0.017 A 
ATOM      7  C   UNL     1       2.450  -4.764   0.025  0.00  0.00    +0.034 A 
ATOM      8  N   UNL     1       1.239  -4.767   0.713  0.00  0.00    -0.336 N 
ATOM      9  C   UNL     1       0.060  -4.278  -0.020  0.00  0.00    +0.105 C 
ATOM     10  C   UNL     1       0.178  -4.785  -1.442  0.00  0.00    +0.029 C 
ATOM     11  C   UNL     1       1.373  -3.984  -2.049  0.00  0.00    +0.049 C 
ATOM     12  C   UNL     1       1.201  -4.180  -3.509  0.00  0.00    -0.023 C 
ATOM     13  C   UNL     1      -0.090  -4.366  -3.762  0.00  0.00    -0.030 C 
ATOM     14  C   UNL     1      -0.886  -4.344  -2.454  0.00  0.00    +0.033 C 
ATOM     15  H   UNL     1       1.327  -4.304   1.605  0.00  0.00    +0.147 HD
ENDROOT
BRANCH   9  16
ATOM     16  C   UNL     1       0.040  -2.771  -0.013  0.00  0.00    -0.027 A 
ATOM     17  C   UNL     1       1.216  -2.066   0.166  0.00  0.00    +0.006 A 
ATOM     18  C   UNL     1       1.201  -0.685   0.173  0.00  0.00    +0.015 A 
ATOM     19  C   UNL     1       0.002  -0.004   0.001  0.00  0.00    +0.008 A 
ATOM     20  C   UNL     1      -1.179  -0.716  -0.172  0.00  0.00    +0.015 A 
ATOM     21  C   UNL     1      -1.155  -2.096  -0.184  0.00  0.00    +0.006 A 
BRANCH  19  22
ATOM     22  S   UNL     1      -0.022   1.758   0.009  0.00  0.00    -0.129 S 
ATOM     23  C   UNL     1      -1.769   2.174  -0.245  0.00  0.00    +0.090 C 
ENDBRANCH  19  22
ENDBRANCH   9  16
BRANCH   4  24
ATOM     24  N   UNL     1       6.255  -4.944  -1.902  0.00  0.00    +0.056 N 
ATOM     25  O   UNL     1       6.355  -4.651  -3.080  0.00  0.00    -0.126 OA
ATOM     26  O   UNL     1       7.240  -5.293  -1.276  0.00  0.00    -0.126 OA
ENDBRANCH   4  24
TORSDOF 3
