REMARK  Name = ZINC26990901
REMARK  9 active torsions:
REMARK  status: ('A' for Active; 'I' for Inactive)
REMARK    1  A    between atoms: C_1  and  C_2
REMARK    2  A    between atoms: C_2  and  C_4
REMARK    3  A    between atoms: C_2  and  N_15
REMARK    4  A    between atoms: N_6  and  C_7
REMARK    5  A    between atoms: C_10  and  S_13
REMARK    6  A    between atoms: S_13  and  C_14
REMARK    7  A    between atoms: N_15  and  C_16
REMARK    8  A    between atoms: C_19  and  N_22
REMARK    9  A    between atoms: C_23  and  C_25
REMARK                            x       y       z     vdW  Elec       q    Type
REMARK                         _______ _______ _______ _____ _____    ______ ____
ROOT
ATOM      1  N   UNL     1       4.629   8.801   0.367  0.00  0.00    -0.333 N 
ATOM      2  H   UNL     1       5.697   9.066   0.346  0.00  0.00    +0.147 HD
ENDROOT
BRANCH   1   3
ATOM      3  C   UNL     1       4.239   7.460   0.280  0.00  0.00    +0.028 A 
ATOM      4  C   UNL     1       5.199   6.463   0.167  0.00  0.00    +0.025 A 
ATOM      5  C   UNL     1       4.814   5.140   0.081  0.00  0.00    +0.025 A 
ATOM      6  C   UNL     1       3.466   4.806   0.107  0.00  0.00    +0.034 A 
ATOM      7  C   UNL     1       2.506   5.804   0.215  0.00  0.00    +0.025 A 
ATOM      8  C   UNL     1       2.891   7.126   0.306  0.00  0.00    +0.025 A 
BRANCH   6   9
ATOM      9  N   UNL     1       3.076   3.464   0.020  0.00  0.00    -0.279 N 
ATOM     10  C   UNL     1       3.830   2.504   0.591  0.00  0.00    +0.284 C 
ATOM     11  O   UNL     1       4.892   2.793   1.110  0.00  0.00    -0.266 OA
ATOM     12  H   UNL     1       2.154   3.194  -0.515  0.00  0.00    +0.155 HD
BRANCH  10  13
ATOM     13  C   UNL     1       3.370   1.112   0.588  0.00  0.00    +0.189 A 
ATOM     14  C   UNL     1       4.033   0.047   1.128  0.00  0.00    +0.054 A 
ATOM     15  C   UNL     1       3.234  -1.084   0.898  0.00  0.00    +0.042 A 
ATOM     16  C   UNL     1       2.133  -0.665   0.235  0.00  0.00    +0.196 A 
ATOM     17  O   UNL     1       2.219   0.658   0.050  0.00  0.00    -0.458 OA
ENDBRANCH  10  13
ENDBRANCH   6   9
ENDBRANCH   1   3
BRANCH   1  19
ATOM     18  C   UNL     1       3.117  10.241  -0.907  0.00  0.00    +0.038 C 
ATOM     19  C   UNL     1       3.616   9.852   0.486  0.00  0.00    +0.154 C 
BRANCH  19  20
ATOM     20  C   UNL     1       4.221  11.059   1.157  0.00  0.00    +0.237 C 
ATOM     21  O   UNL     1       5.384  11.042   1.502  0.00  0.00    -0.273 OA
ATOM     22  N   UNL     1       3.470  12.156   1.374  0.00  0.00    -0.284 N 
ATOM     23  H   UNL     1       2.397  12.146   1.132  0.00  0.00    +0.155 HD
BRANCH  22  24
ATOM     24  C   UNL     1       4.055  13.312   1.909  0.00  0.00    +0.034 A 
ATOM     25  C   UNL     1       5.070  13.204   2.850  0.00  0.00    +0.024 A 
ATOM     26  C   UNL     1       5.651  14.342   3.374  0.00  0.00    +0.016 A 
ATOM     27  C   UNL     1       5.212  15.595   2.966  0.00  0.00    +0.008 A 
ATOM     28  C   UNL     1       4.193  15.703   2.028  0.00  0.00    +0.016 A 
ATOM     29  C   UNL     1       3.616  14.565   1.502  0.00  0.00    +0.024 A 
BRANCH  27  30
ATOM     30  S   UNL     1       5.949  17.048   3.638  0.00  0.00    -0.129 S 
ATOM     31  C   UNL     1       7.199  16.414   4.790  0.00  0.00    +0.090 C 
ENDBRANCH  27  30
ENDBRANCH  22  24
ENDBRANCH  19  20
ENDBRANCH   1  19
TORSDOF 7
