REMARK  Name = ZINC13417694
REMARK  4 active torsions:
REMARK  status: ('A' for Active; 'I' for Inactive)
REMARK    1  A    between atoms: C_1  and  C_2
REMARK    2  A    between atoms: N_7  and  C_10
REMARK    3  A    between atoms: C_10  and  C_11
REMARK    4  A    between atoms: C_18  and  C_19
REMARK                            x       y       z     vdW  Elec       q    Type
REMARK                         _______ _______ _______ _____ _____    ______ ____
ROOT
ATOM      1  C   UNL     1       2.850   0.053  -0.026  0.00  0.00    +0.046 C 
ATOM      2  C   UNL     1       2.565   1.532  -0.015  0.00  0.00    -0.015 A 
ATOM      3  C   UNL     1       1.246   1.991   0.001  0.00  0.00    +0.076 A 
ATOM      4  C   UNL     1       1.082   3.395   0.010  0.00  0.00    +0.116 A 
ATOM      5  N   UNL     1      -0.118   3.959   0.024  0.00  0.00    -0.230 NA
ATOM      6  C   UNL     1      -1.211   3.245   0.030  0.00  0.00    +0.203 A 
ATOM      7  N   UNL     1      -1.180   1.889   0.018  0.00  0.00    -0.290 N 
ATOM      8  C   UNL     1      -0.014   1.214   0.009  0.00  0.00    +0.263 A 
ATOM      9  O   UNL     1       0.002  -0.004   0.002  0.00  0.00    -0.267 OA
ATOM     10  S   UNL     1       2.751   4.000  -0.003  0.00  0.00    -0.062 S 
ATOM     11  C   UNL     1       3.595   2.428  -0.019  0.00  0.00    +0.106 A 
ENDROOT
BRANCH  11  12
ATOM     12  C   UNL     1       5.036   2.164  -0.034  0.00  0.00    +0.393 C 
ATOM     13  O   UNL     1       5.444   1.018  -0.043  0.00  0.00    -0.240 OA
ATOM     14  O   UNL     1       5.910   3.192  -0.036  0.00  0.00    -0.240 OA
ENDBRANCH  11  12
BRANCH   7  15
ATOM     15  C   UNL     1      -2.441   1.144   0.020  0.00  0.00    +0.222 C 
BRANCH  15  16
ATOM     16  C   UNL     1      -2.867   0.880   1.441  0.00  0.00    +0.240 C 
ATOM     17  O   UNL     1      -2.185   1.276   2.361  0.00  0.00    -0.273 OA
ATOM     18  N   UNL     1      -4.006   0.204   1.689  0.00  0.00    -0.239 N 
ATOM     19  C   UNL     1      -4.387  -0.031   2.960  0.00  0.00    +0.303 C 
ATOM     20  O   UNL     1      -3.703   0.366   3.883  0.00  0.00    -0.253 OA
ATOM     21  N   UNL     1      -5.527  -0.707   3.208  0.00  0.00    -0.313 N 
ATOM     22  H   UNL     1      -4.553  -0.113   0.952  0.00  0.00    +0.159 HD
ATOM     23  H   UNL     1      -6.073  -1.024   2.471  0.00  0.00    +0.146 HD
ATOM     24  H   UNL     1      -5.801  -0.877   4.123  0.00  0.00    +0.146 HD
ENDBRANCH  15  16
ENDBRANCH   7  15
TORSDOF 3
