REMARK  Name = ZINC36357351
REMARK  3 active torsions:
REMARK  status: ('A' for Active; 'I' for Inactive)
REMARK    1  A    between atoms: C_5  and  N_7
REMARK    2  A    between atoms: C_16  and  C_18
REMARK    3  A    between atoms: C_21  and  O_24
REMARK                            x       y       z     vdW  Elec       q    Type
REMARK                         _______ _______ _______ _____ _____    ______ ____
ROOT
ATOM      1  N   UNL     1       1.236  -2.083  -0.022  0.00  0.00    -0.285 N 
ATOM      2  C   UNL     1       0.780  -2.899  -1.020  0.00  0.00    +0.205 A 
ATOM      3  N   UNL     1       0.972  -4.144  -0.665  0.00  0.00    -0.238 NA
ATOM      4  C   UNL     1       1.542  -4.177   0.537  0.00  0.00    +0.089 A 
ATOM      5  C   UNL     1       1.720  -2.892   0.957  0.00  0.00    +0.133 A 
ATOM      6  N   UNL     1       2.300  -2.589   2.190  0.00  0.00    -0.270 N 
ATOM      7  C   UNL     1       2.941  -3.579   2.849  0.00  0.00    +0.219 C 
ATOM      8  O   UNL     1       3.349  -3.369   3.972  0.00  0.00    -0.275 OA
ATOM      9  C   UNL     1       3.163  -4.932   2.236  0.00  0.00    +0.110 C 
ATOM     10  C   UNL     1       1.966  -5.357   1.374  0.00  0.00    +0.080 C 
ATOM     11  H   UNL     1       2.244  -1.695   2.562  0.00  0.00    +0.156 HD
ENDROOT
BRANCH   1  16
ATOM     12  C   UNL     1      -0.017   1.377   0.010  0.00  0.00    +0.002 A 
ATOM     13  C   UNL     1       1.170   2.087   0.002  0.00  0.00    +0.002 A 
ATOM     14  C   UNL     1       2.380   1.417  -0.013  0.00  0.00    +0.022 A 
ATOM     15  C   UNL     1       2.405   0.034  -0.022  0.00  0.00    +0.065 A 
ATOM     16  C   UNL     1       1.214  -0.680  -0.014  0.00  0.00    +0.067 A 
ATOM     17  C   UNL     1       0.002  -0.004   0.002  0.00  0.00    +0.028 A 
ATOM     18 CL   UNL     1       3.923  -0.807  -0.043  0.00  0.00    -0.081 Cl
ENDBRANCH   1  16
BRANCH  10  19
ATOM     19  C   UNL     1       0.821  -5.794   2.251  0.00  0.00    -0.038 A 
ATOM     20  C   UNL     1       0.277  -4.912   3.166  0.00  0.00    +0.008 A 
ATOM     21  C   UNL     1      -0.772  -5.310   3.972  0.00  0.00    +0.045 A 
ATOM     22  C   UNL     1      -1.280  -6.597   3.862  0.00  0.00    +0.117 A 
ATOM     23  C   UNL     1      -0.732  -7.480   2.943  0.00  0.00    +0.045 A 
ATOM     24  C   UNL     1       0.313  -7.075   2.136  0.00  0.00    +0.008 A 
BRANCH  22  25
ATOM     25  O   UNL     1      -2.312  -6.991   4.654  0.00  0.00    -0.507 OA
ATOM     26  H   UNL     1      -3.185  -6.826   4.273  0.00  0.00    +0.292 HD
ENDBRANCH  22  25
ENDBRANCH  10  19
TORSDOF 3
