REMARK  Name = ZINC39326000
REMARK  7 active torsions:
REMARK  status: ('A' for Active; 'I' for Inactive)
REMARK    1  A    between atoms: C_1  and  C_2
REMARK    2  A    between atoms: C_2  and  C_3
REMARK    3  A    between atoms: C_3  and  C_4
REMARK    4  A    between atoms: C_4  and  C_5
REMARK    5  A    between atoms: C_7  and  C_19
REMARK    6  A    between atoms: C_9  and  C_17
REMARK    7  A    between atoms: C_10  and  N_16
REMARK                            x       y       z     vdW  Elec       q    Type
REMARK                         _______ _______ _______ _____ _____    ______ ____
ROOT
ATOM      1  C   UNL     1       1.444  -2.513  -2.505  0.00  0.00    +0.069 C 
ATOM      2  C   UNL     1       2.713  -2.839  -2.567  0.00  0.00    +0.030 C 
ATOM      3  C   UNL     1       3.859  -2.732  -1.597  0.00  0.00    +0.104 C 
ATOM      4  C   UNL     1       5.041  -2.248  -2.417  0.00  0.00    +0.098 C 
ATOM      5  C   UNL     1       4.988  -2.174  -3.763  0.00  0.00    +0.195 C 
ATOM      6  O   UNL     1       3.933  -2.472  -4.543  0.00  0.00    -0.448 OA
ATOM      7  C   UNL     1       2.929  -3.332  -3.998  0.00  0.00    +0.343 C 
ATOM      8  N   UNL     1       1.613  -3.100  -4.602  0.00  0.00    -0.138 NA
ATOM      9  N   UNL     1       0.856  -2.682  -3.717  0.00  0.00    -0.155 NA
ENDROOT
BRANCH   3  10
ATOM     10  C   UNL     1       4.157  -4.080  -0.993  0.00  0.00    +0.003 A 
ATOM     11  C   UNL     1       4.122  -4.458   0.308  0.00  0.00    +0.013 A 
ATOM     12  C   UNL     1       4.438  -5.763   0.636  0.00  0.00    +0.023 A 
ATOM     13  C   UNL     1       4.773  -6.627  -0.355  0.00  0.00    +0.055 A 
ATOM     14  S   UNL     1       4.640  -5.594  -1.805  0.00  0.00    -0.085 S 
ATOM     15 BR   UNL     1       5.251  -8.452  -0.232  0.00  0.00    -0.043 Br
ENDBRANCH   3  10
BRANCH   5  16
ATOM     16  N   UNL     1       6.126  -1.752  -4.402  0.00  0.00    -0.329 N 
ATOM     17  H   UNL     1       6.916  -1.524  -3.886  0.00  0.00    +0.145 HD
ATOM     18  H   UNL     1       6.142  -1.681  -5.369  0.00  0.00    +0.145 HD
ENDBRANCH   5  16
BRANCH   4  19
ATOM     19  C   UNL     1       6.244  -1.860  -1.744  0.00  0.00    +0.101 C 
ATOM     20  N   UNL     1       7.198  -1.552  -1.210  0.00  0.00    -0.191 NA
ENDBRANCH   4  19
BRANCH   1  21
ATOM     21  C   UNL     1       0.739  -2.027  -1.265  0.00  0.00    +0.057 C 
BRANCH  21  22
ATOM     22  C   UNL     1       0.718  -0.497  -1.257  0.00  0.00    +0.006 C 
BRANCH  22  24
ATOM     23  C   UNL     1      -0.019   1.526   0.010  0.00  0.00    +0.004 C 
ATOM     24  C   UNL     1       0.002  -0.004   0.002  0.00  0.00    -0.003 C 
ENDBRANCH  22  24
ENDBRANCH  21  22
ENDBRANCH   1  21
TORSDOF 6
