REMARK  Name = ZINC40313788
REMARK  5 active torsions:
REMARK  status: ('A' for Active; 'I' for Inactive)
REMARK    1  A    between atoms: C_1  and  C_2
REMARK    2  A    between atoms: C_4  and  N_7
REMARK    3  A    between atoms: N_7  and  S_8
REMARK    4  A    between atoms: S_8  and  C_11
REMARK    5  A    between atoms: C_13  and  N_19
REMARK                            x       y       z     vdW  Elec       q    Type
REMARK                         _______ _______ _______ _____ _____    ______ ____
ROOT
ATOM      1  C   UNL     1      -2.050  -5.963  -0.022  0.00  0.00    +0.131 A 
ATOM      2  C   UNL     1      -2.229  -6.797  -1.109  0.00  0.00    +0.056 A 
ATOM      3  C   UNL     1      -3.262  -7.724  -1.109  0.00  0.00    +0.062 A 
ATOM      4  C   UNL     1      -4.116  -7.810  -0.014  0.00  0.00    +0.145 A 
ATOM      5  C   UNL     1      -3.932  -6.972   1.070  0.00  0.00    +0.062 A 
ATOM      6  C   UNL     1      -2.897  -6.053   1.068  0.00  0.00    +0.070 A 
ATOM      7 CL   UNL     1      -2.665  -5.006   2.433  0.00  0.00    -0.081 Cl
ATOM      8  F   UNL     1      -5.123  -8.710  -0.010  0.00  0.00    -0.204 F 
ENDROOT
BRANCH   1   9
ATOM      9  S   UNL     1      -0.738  -4.787  -0.022  0.00  0.00    +0.095 S 
ATOM     10  O   UNL     1      -0.075  -4.918  -1.272  0.00  0.00    -0.148 OA
ATOM     11  O   UNL     1      -0.062  -4.933   1.218  0.00  0.00    -0.148 OA
BRANCH   9  12
ATOM     12  N   UNL     1      -1.430  -3.282  -0.010  0.00  0.00    -0.074 NA
BRANCH  12  16
ATOM     13  C   UNL     1      -0.018   1.503   0.010  0.00  0.00    +0.089 C 
ATOM     14  C   UNL     1       0.002  -0.004   0.002  0.00  0.00    +0.136 A 
ATOM     15  C   UNL     1      -1.076  -0.807   0.003  0.00  0.00    +0.094 A 
ATOM     16  C   UNL     1      -0.625  -2.147  -0.008  0.00  0.00    +0.205 A 
ATOM     17  N   UNL     1       0.684  -2.130  -0.014  0.00  0.00    -0.060 NA
ATOM     18  O   UNL     1       1.100  -0.776  -0.013  0.00  0.00    -0.358 OA
ENDBRANCH  12  16
ENDBRANCH   9  12
ENDBRANCH   1   9
BRANCH   3  19
ATOM     19  N   UNL     1      -3.445  -8.570  -2.208  0.00  0.00    -0.356 N 
ATOM     20  H   UNL     1      -2.849  -8.509  -2.971  0.00  0.00    +0.142 HD
ATOM     21  H   UNL     1      -4.167  -9.217  -2.207  0.00  0.00    +0.142 HD
ENDBRANCH   3  19
TORSDOF 4
