REMARK  Name = ZINC33127542
REMARK  6 active torsions:
REMARK  status: ('A' for Active; 'I' for Inactive)
REMARK    1  A    between atoms: C_1  and  C_2
REMARK    2  A    between atoms: C_2  and  C_3
REMARK    3  A    between atoms: C_2  and  C_4
REMARK    4  A    between atoms: C_4  and  C_6
REMARK    5  A    between atoms: C_4  and  N_17
REMARK    6  A    between atoms: N_20  and  C_21
REMARK                            x       y       z     vdW  Elec       q    Type
REMARK                         _______ _______ _______ _____ _____    ______ ____
ROOT
ATOM      1  C   UNL     1      -0.465   4.610  -0.036  0.00  0.00    +0.163 C 
ENDROOT
BRANCH   1   2
ATOM      2  C   UNL     1      -1.420   3.526  -0.464  0.00  0.00    +0.240 C 
ATOM      3  O   UNL     1      -1.480   3.195  -1.629  0.00  0.00    -0.273 OA
ATOM      4  N   UNL     1      -2.209   2.925   0.448  0.00  0.00    -0.269 N 
ATOM      5  C   UNL     1      -3.245   1.934   0.141  0.00  0.00    +0.118 C 
ATOM      6  C   UNL     1      -3.856   1.555   1.499  0.00  0.00    +0.056 C 
ATOM      7  C   UNL     1      -3.091   2.383   2.506  0.00  0.00    -0.024 A 
ATOM      8  C   UNL     1      -2.154   3.148   1.827  0.00  0.00    +0.040 A 
ATOM      9  C   UNL     1      -1.322   4.001   2.553  0.00  0.00    +0.024 A 
ATOM     10  C   UNL     1      -1.433   4.080   3.925  0.00  0.00    +0.002 A 
ATOM     11  C   UNL     1      -2.370   3.313   4.593  0.00  0.00    +0.000 A 
ATOM     12  C   UNL     1      -3.198   2.465   3.881  0.00  0.00    +0.005 A 
ENDBRANCH   1   2
BRANCH   1  13
ATOM     13  N   UNL     1      -1.221   5.744   0.501  0.00  0.00    -0.288 N 
ATOM     14  C   UNL     1      -0.659   6.554   1.420  0.00  0.00    +0.305 C 
ATOM     15  O   UNL     1       0.476   6.345   1.802  0.00  0.00    -0.252 OA
ATOM     16  N   UNL     1      -1.355   7.598   1.914  0.00  0.00    -0.268 N 
ATOM     17  H   UNL     1      -2.248   5.934   0.155  0.00  0.00    +0.151 HD
ATOM     18  H   UNL     1      -2.407   7.742   1.627  0.00  0.00    +0.156 HD
BRANCH  16  19
ATOM     19  C   UNL     1      -0.738   8.498   2.791  0.00  0.00    +0.049 A 
ATOM     20  C   UNL     1       0.626   8.736   2.697  0.00  0.00    +0.024 A 
ATOM     21  C   UNL     1       1.231   9.629   3.561  0.00  0.00    +0.002 A 
ATOM     22  C   UNL     1       0.481  10.276   4.526  0.00  0.00    +0.001 A 
ATOM     23  C   UNL     1      -0.877  10.037   4.625  0.00  0.00    +0.017 A 
ATOM     24  C   UNL     1      -1.489   9.150   3.761  0.00  0.00    +0.039 A 
ATOM     25 BR   UNL     1      -3.347   8.822   3.898  0.00  0.00    -0.048 Br
ENDBRANCH  16  19
ENDBRANCH   1  13
BRANCH   1  27
ATOM     26  C   UNL     1       1.218   6.271  -0.843  0.00  0.00    +0.009 C 
ATOM     27  C   UNL     1       0.358   5.070  -1.241  0.00  0.00    +0.012 C 
ATOM     28  C   UNL     1       1.261   3.927  -1.708  0.00  0.00    +0.009 C 
ENDBRANCH   1  27
TORSDOF 4
