REMARK  Name = ZINC06135285
REMARK  13 active torsions:
REMARK  status: ('A' for Active; 'I' for Inactive)
REMARK    1  A    between atoms: C_1  and  C_2
REMARK    2  A    between atoms: C_2  and  C_3
REMARK    3  A    between atoms: C_10  and  C_15
REMARK    4  A    between atoms: C_15  and  C_17
REMARK    5  A    between atoms: C_15  and  N_75
REMARK    6  A    between atoms: N_21  and  C_22
REMARK    7  A    between atoms: C_22  and  C_23
REMARK    8  A    between atoms: C_22  and  C_24
REMARK    9  A    between atoms: C_22  and  C_25
REMARK   10  A    between atoms: C_25  and  C_26
REMARK   11  A    between atoms: N_29  and  C_32
REMARK   12  A    between atoms: C_35  and  O_38
REMARK   13  A    between atoms: O_38  and  C_39
REMARK                            x       y       z     vdW  Elec       q    Type
REMARK                         _______ _______ _______ _____ _____    ______ ____
ROOT
ATOM      1  C   UNL     1       5.926  -0.741   0.078  0.00  0.00    +0.039 C 
ENDROOT
BRANCH   1   9
ATOM      2  C   UNL     1       0.105   0.877   1.411  0.00  0.00    -0.047 A 
ATOM      3  C   UNL     1       0.305   2.249   1.341  0.00  0.00    +0.005 A 
ATOM      4  C   UNL     1       1.548   2.765   1.042  0.00  0.00    +0.026 A 
ATOM      5  C   UNL     1       2.614   1.903   0.807  0.00  0.00    +0.049 A 
ATOM      6  C   UNL     1       2.407   0.512   0.878  0.00  0.00    -0.001 A 
ATOM      7  C   UNL     1       1.137   0.012   1.184  0.00  0.00    +0.013 A 
ATOM      8  C   UNL     1       3.536  -0.387   0.630  0.00  0.00    +0.017 A 
ATOM      9  C   UNL     1       4.744   0.156   0.339  0.00  0.00    +0.011 A 
ATOM     10  C   UNL     1       4.898   1.558   0.281  0.00  0.00    +0.251 A 
ATOM     11  O   UNL     1       5.993   2.024   0.017  0.00  0.00    -0.268 OA
ATOM     12  N   UNL     1       3.868   2.391   0.507  0.00  0.00    -0.322 N 
ATOM     13  H   UNL     1       4.013   3.379   0.457  0.00  0.00    +0.169 HD
BRANCH   2  15
ATOM     14  C   UNL     1      -2.055   0.132   0.447  0.00  0.00    +0.009 C 
ATOM     15  C   UNL     1      -1.263   0.338   1.740  0.00  0.00    +0.032 C 
ENDBRANCH   2  15
ENDBRANCH   1   9
BRANCH   1  21
ATOM     16  C   UNL     1       5.531  -0.601  -2.307  0.00  0.00    -0.058 C 
ATOM     17  C   UNL     1       6.152  -0.173  -3.639  0.00  0.00    +0.086 C 
ATOM     18  N   UNL     1       7.364  -0.967  -3.888  0.00  0.00    -0.333 N 
ATOM     19  C   UNL     1       8.344  -0.778  -2.810  0.00  0.00    +0.086 C 
ATOM     20  C   UNL     1       7.723  -1.206  -1.478  0.00  0.00    -0.058 C 
ATOM     21  N   UNL     1       6.519  -0.386  -1.229  0.00  0.00    +0.391 N 
ATOM     22  H   UNL     1       6.787   0.606  -1.215  0.00  0.00    -0.080 HD
BRANCH  18  23
ATOM     23  C   UNL     1       7.921  -0.653  -5.133  0.00  0.00    +0.030 A 
ATOM     24  C   UNL     1       9.239  -0.224  -5.216  0.00  0.00    +0.027 A 
ATOM     25  C   UNL     1       9.790   0.079  -6.446  0.00  0.00    +0.047 A 
ATOM     26  C   UNL     1       9.023  -0.033  -7.596  0.00  0.00    +0.120 A 
ATOM     27  C   UNL     1       7.705  -0.457  -7.514  0.00  0.00    +0.047 A 
ATOM     28  C   UNL     1       7.154  -0.766  -6.285  0.00  0.00    +0.027 A 
BRANCH  26  29
ATOM     29  O   UNL     1       9.565   0.272  -8.806  0.00  0.00    -0.495 OA
ATOM     30  C   UNL     1      10.927   0.701  -8.817  0.00  0.00    +0.277 C 
ENDBRANCH  26  29
ENDBRANCH  18  23
ENDBRANCH   1  21
BRANCH   1  31
ATOM     31  C   UNL     1       6.959  -0.537   1.156  0.00  0.00    +0.143 A 
ATOM     32  N   UNL     1       7.700   0.528   1.339  0.00  0.00    -0.115 NA
ATOM     33  N   UNL     1       8.455   0.318   2.361  0.00  0.00    -0.023 NA
ATOM     34  N   UNL     1       8.221  -0.858   2.831  0.00  0.00    -0.043 NA
ATOM     35  N   UNL     1       7.304  -1.417   2.115  0.00  0.00    -0.225 N 
BRANCH  35  36
ATOM     36  C   UNL     1       6.745  -2.757   2.309  0.00  0.00    +0.061 C 
ATOM     37  C   UNL     1       5.229  -2.655   2.491  0.00  0.00    +0.036 C 
ATOM     38  C   UNL     1       7.055  -3.621   1.085  0.00  0.00    +0.036 C 
BRANCH  36  39
ATOM     39  C   UNL     1       7.367  -3.394   3.553  0.00  0.00    +0.026 C 
ATOM     40  C   UNL     1       6.782  -4.793   3.756  0.00  0.00    +0.006 C 
ENDBRANCH  36  39
ENDBRANCH  35  36
ENDBRANCH   1  31
TORSDOF 8
