REMARK  Name = ZINC08563307
REMARK  11 active torsions:
REMARK  status: ('A' for Active; 'I' for Inactive)
REMARK    1  A    between atoms: C_1  and  C_2
REMARK    2  A    between atoms: C_3  and  C_26
REMARK    3  A    between atoms: C_5  and  N_10
REMARK    4  A    between atoms: C_6  and  C_7
REMARK    5  A    between atoms: N_10  and  C_11
REMARK    6  A    between atoms: C_11  and  N_13
REMARK    7  A    between atoms: C_14  and  C_16
REMARK    8  A    between atoms: C_19  and  O_22
REMARK    9  A    between atoms: O_22  and  C_23
REMARK   10  A    between atoms: C_23  and  C_24
REMARK   11  A    between atoms: C_23  and  C_25
REMARK                            x       y       z     vdW  Elec       q    Type
REMARK                         _______ _______ _______ _____ _____    ______ ____
ROOT
ATOM      1  C   UNL     1       2.430  -4.162   0.182  0.00  0.00    +0.141 C 
ATOM      2  S   UNL     1       0.984  -5.042  -0.078  0.00  0.00    -0.018 S 
ENDROOT
BRANCH   1   3
ATOM      3  N   UNL     1       2.408  -2.815   0.186  0.00  0.00    -0.264 N 
ATOM      4  C   UNL     1       1.247  -2.159  -0.013  0.00  0.00    +0.250 C 
ATOM      5  O   UNL     1       0.220  -2.784  -0.197  0.00  0.00    -0.270 OA
ATOM      6  H   UNL     1       3.227  -2.317   0.333  0.00  0.00    +0.157 HD
BRANCH   4   7
ATOM      7  C   UNL     1       1.222  -0.684  -0.007  0.00  0.00    +0.037 A 
ATOM      8  C   UNL     1       0.020  -0.003  -0.213  0.00  0.00    +0.016 A 
ATOM      9  C   UNL     1       0.001   1.374  -0.207  0.00  0.00    +0.046 A 
ATOM     10  C   UNL     1       1.176   2.086   0.004  0.00  0.00    +0.121 A 
ATOM     11  C   UNL     1       2.375   1.412   0.210  0.00  0.00    +0.046 A 
ATOM     12  C   UNL     1       2.402   0.035   0.205  0.00  0.00    +0.016 A 
BRANCH  10  13
ATOM     13  O   UNL     1       1.154   3.443   0.010  0.00  0.00    -0.489 OA
BRANCH  13  14
ATOM     14  C   UNL     1       2.412   4.112   0.112  0.00  0.00    +0.167 C 
ATOM     15  C   UNL     1       2.297   5.510  -0.499  0.00  0.00    +0.051 C 
ATOM     16  C   UNL     1       2.808   4.230   1.585  0.00  0.00    +0.051 C 
ENDBRANCH  13  14
ENDBRANCH  10  13
ENDBRANCH   4   7
ENDBRANCH   1   3
BRANCH   1  17
ATOM     17  N   UNL     1       3.591  -4.818   0.381  0.00  0.00    -0.291 N 
ATOM     18  H   UNL     1       4.410  -4.320   0.527  0.00  0.00    +0.154 HD
BRANCH  17  23
ATOM     19  C   UNL     1       5.537  -9.480   0.690  0.00  0.00    +0.045 C 
ATOM     20  C   UNL     1       4.436  -8.468   0.505  0.00  0.00    -0.027 A 
ATOM     21  C   UNL     1       3.166  -8.847   0.280  0.00  0.00    -0.008 A 
ATOM     22  S   UNL     1       2.294  -7.300   0.145  0.00  0.00    -0.078 S 
ATOM     23  C   UNL     1       3.614  -6.203   0.376  0.00  0.00    +0.084 A 
ATOM     24  C   UNL     1       4.701  -7.050   0.560  0.00  0.00    +0.068 A 
ATOM     25  C   UNL     1       2.612 -10.245   0.174  0.00  0.00    +0.052 C 
BRANCH  24  26
ATOM     26  C   UNL     1       6.050  -6.528   0.800  0.00  0.00    +0.244 C 
ATOM     27  O   UNL     1       6.428  -6.318   1.938  0.00  0.00    -0.270 OA
ATOM     28  N   UNL     1       6.871  -6.280  -0.240  0.00  0.00    -0.325 N 
ATOM     29  H   UNL     1       6.569  -6.448  -1.147  0.00  0.00    +0.145 HD
ATOM     30  H   UNL     1       7.763  -5.935  -0.082  0.00  0.00    +0.145 HD
ENDBRANCH  24  26
ENDBRANCH  17  23
ENDBRANCH   1  17
TORSDOF 7
