REMARK  Name = ZINC39486930
REMARK  7 active torsions:
REMARK  status: ('A' for Active; 'I' for Inactive)
REMARK    1  A    between atoms: C_1  and  C_2
REMARK    2  A    between atoms: C_2  and  C_24
REMARK    3  A    between atoms: N_7  and  C_8
REMARK    4  A    between atoms: C_8  and  C_9
REMARK    5  A    between atoms: C_9  and  C_17
REMARK    6  A    between atoms: N_12  and  O_15
REMARK    7  A    between atoms: O_15  and  C_16
REMARK                            x       y       z     vdW  Elec       q    Type
REMARK                         _______ _______ _______ _____ _____    ______ ____
ROOT
ATOM      1  C   UNL     1      -0.755  -1.567   3.190  0.00  0.00    -0.008 C 
ATOM      2  C   UNL     1       0.061  -2.855   3.333  0.00  0.00    +0.026 C 
ATOM      3  C   UNL     1       0.607  -3.262   1.963  0.00  0.00    +0.115 C 
ATOM      4  N   UNL     1      -0.509  -3.470   1.031  0.00  0.00    -0.188 NA
ATOM      5  C   UNL     1      -1.279  -2.234   0.841  0.00  0.00    +0.115 C 
ATOM      6  C   UNL     1      -1.881  -1.796   2.178  0.00  0.00    +0.026 C 
ENDROOT
BRANCH   1   7
ATOM      7  C   UNL     1      -1.354  -1.186   4.545  0.00  0.00    -0.003 C 
ATOM      8  C   UNL     1      -0.254  -1.190   5.608  0.00  0.00    +0.004 C 
ATOM      9  C   UNL     1      -0.853  -0.809   6.963  0.00  0.00    +0.000 C 
ATOM     10  C   UNL     1      -1.935  -1.822   7.345  0.00  0.00    +0.000 C 
ATOM     11  C   UNL     1      -3.035  -1.818   6.282  0.00  0.00    +0.000 C 
ATOM     12  C   UNL     1      -2.436  -2.199   4.927  0.00  0.00    +0.004 C 
ENDBRANCH   1   7
BRANCH   4  13
ATOM     13  O   UNL     1      -0.033  -3.993  -0.249  0.00  0.00    -0.300 OA
ATOM     14  C   UNL     1      -0.582  -5.266  -0.597  0.00  0.00    +0.221 C 
ENDBRANCH   4  13
BRANCH   1  15
ATOM     15  C   UNL     1       0.153  -0.439   2.697  0.00  0.00    +0.117 C 
BRANCH  15  22
ATOM     16  C   UNL     1       0.737   2.608   3.312  0.00  0.00    +0.033 C 
ATOM     17  C   UNL     1      -0.654   1.972   3.281  0.00  0.00    +0.050 C 
ATOM     18  C   UNL     1      -1.658   2.903   2.574  0.00  0.00    +0.154 C 
ATOM     19  N   UNL     1      -2.113   2.117   1.417  0.00  0.00    -0.196 N 
ATOM     20  C   UNL     1      -1.497   0.928   1.423  0.00  0.00    +0.319 C 
ATOM     21  O   UNL     1      -1.689   0.077   0.576  0.00  0.00    -0.251 OA
ATOM     22  N   UNL     1      -0.650   0.761   2.447  0.00  0.00    -0.277 N 
ATOM     23 CL   UNL     1      -3.249   2.639   0.250  0.00  0.00    +0.005 Cl
ATOM     24  C   UNL     1      -1.126   1.646   4.699  0.00  0.00    +0.033 C 
ENDBRANCH  15  22
ENDBRANCH   1  15
TORSDOF 4
