REMARK  Name = ZINC41003622
REMARK  15 active torsions:
REMARK  status: ('A' for Active; 'I' for Inactive)
REMARK    1  A    between atoms: C_1  and  C_2
REMARK    2  A    between atoms: C_2  and  C_3
REMARK    3  A    between atoms: C_3  and  C_4
REMARK    4  A    between atoms: C_4  and  O_5
REMARK    5  A    between atoms: O_5  and  C_6
REMARK    6  A    between atoms: C_6  and  C_8
REMARK    7  A    between atoms: C_9  and  C_32
REMARK    8  A    between atoms: C_13  and  S_29
REMARK    9  A    between atoms: C_16  and  C_18
REMARK   10  A    between atoms: C_20  and  O_27
REMARK   11  A    between atoms: C_21  and  O_25
REMARK   12  A    between atoms: O_25  and  C_26
REMARK   13  A    between atoms: O_27  and  C_28
REMARK   14  A    between atoms: S_29  and  C_30
REMARK   15  A    between atoms: C_30  and  C_31
REMARK                            x       y       z     vdW  Elec       q    Type
REMARK                         _______ _______ _______ _____ _____    ______ ____
ROOT
ATOM      1  C   UNL     1       1.985  -4.382  -3.849  0.00  0.00    +0.082 C 
ATOM      2  C   UNL     1       2.334  -5.677  -3.825  0.00  0.00    +0.020 C 
ATOM      3  N   UNL     1       3.145  -6.234  -4.782  0.00  0.00    -0.287 N 
ATOM      4  C   UNL     1       3.813  -5.368  -5.637  0.00  0.00    +0.219 A 
ATOM      5  N   UNL     1       4.790  -5.599  -6.471  0.00  0.00    -0.187 NA
ATOM      6  C   UNL     1       5.128  -4.459  -7.091  0.00  0.00    +0.210 A 
ATOM      7  N   UNL     1       4.358  -3.487  -6.651  0.00  0.00    -0.141 NA
ATOM      8  N   UNL     1       3.496  -4.052  -5.712  0.00  0.00    -0.220 N 
ATOM      9  C   UNL     1       2.430  -3.431  -4.928  0.00  0.00    +0.179 C 
ATOM     10  C   UNL     1       1.820  -6.550  -2.709  0.00  0.00    +0.061 C 
ATOM     11  H   UNL     1       3.248  -7.196  -4.858  0.00  0.00    +0.155 HD
ENDROOT
BRANCH   9  12
ATOM     12  C   UNL     1       1.264  -3.107  -5.825  0.00  0.00    -0.014 A 
ATOM     13  C   UNL     1       0.841  -1.798  -5.962  0.00  0.00    +0.055 A 
ATOM     14  C   UNL     1      -0.231  -1.498  -6.786  0.00  0.00    +0.163 A 
ATOM     15  C   UNL     1      -0.881  -2.517  -7.476  0.00  0.00    +0.175 A 
ATOM     16  C   UNL     1      -0.453  -3.827  -7.335  0.00  0.00    +0.063 A 
ATOM     17  C   UNL     1       0.622  -4.119  -6.514  0.00  0.00    +0.025 A 
ATOM     18 BR   UNL     1      -1.332  -5.215  -8.271  0.00  0.00    -0.046 Br
BRANCH  15  19
ATOM     19  O   UNL     1      -1.935  -2.227  -8.286  0.00  0.00    -0.490 OA
ATOM     20  C   UNL     1      -1.640  -1.933  -9.653  0.00  0.00    +0.277 C 
ENDBRANCH  15  19
BRANCH  14  21
ATOM     21  O   UNL     1      -0.649  -0.210  -6.920  0.00  0.00    -0.491 OA
ATOM     22  C   UNL     1       0.065   0.783  -6.181  0.00  0.00    +0.277 C 
ENDBRANCH  14  21
ENDBRANCH   9  12
BRANCH   1  23
ATOM     23  C   UNL     1       1.156  -3.889  -2.817  0.00  0.00    +0.339 C 
ATOM     24  O   UNL     1       1.626  -3.184  -1.943  0.00  0.00    -0.245 OA
BRANCH  23  25
ATOM     25  O   UNL     1      -0.158  -4.198  -2.801  0.00  0.00    -0.461 OA
BRANCH  25  26
ATOM     26  C   UNL     1      -0.936  -3.665  -1.728  0.00  0.00    +0.232 C 
BRANCH  26  27
ATOM     27  C   UNL     1      -2.389  -4.121  -1.877  0.00  0.00    +0.041 C 
BRANCH  27  29
ATOM     28  C   UNL     1      -4.676  -4.005  -0.877  0.00  0.00    +0.004 C 
ATOM     29  C   UNL     1      -3.223  -3.550  -0.728  0.00  0.00    -0.000 C 
ENDBRANCH  27  29
ENDBRANCH  26  27
ENDBRANCH  25  26
ENDBRANCH  23  25
ENDBRANCH   1  23
BRANCH   6  30
ATOM     30  S   UNL     1       6.400  -4.289  -8.298  0.00  0.00    -0.085 S 
BRANCH  30  31
ATOM     31  C   UNL     1       7.078  -5.964  -8.460  0.00  0.00    +0.074 C 
ATOM     32  C   UNL     1       8.207  -5.960  -9.493  0.00  0.00    +0.016 C 
ENDBRANCH  30  31
ENDBRANCH   6  30
TORSDOF 10
