REMARK  Name = ZINC18059576
REMARK  8 active torsions:
REMARK  status: ('A' for Active; 'I' for Inactive)
REMARK    1  A    between atoms: C_1  and  C_2
REMARK    2  A    between atoms: C_9  and  N_27
REMARK    3  A    between atoms: C_10  and  C_25
REMARK    4  A    between atoms: C_11  and  C_13
REMARK    5  A    between atoms: C_15  and  N_22
REMARK    6  A    between atoms: C_16  and  O_21
REMARK    7  A    between atoms: C_17  and  O_19
REMARK    8  A    between atoms: O_19  and  C_20
REMARK                            x       y       z     vdW  Elec       q    Type
REMARK                         _______ _______ _______ _____ _____    ______ ____
ROOT
ATOM      1  C   UNL     1      -0.018   1.503   0.010  0.00  0.00    +0.065 C 
ATOM      2  C   UNL     1       0.002  -0.004   0.002  0.00  0.00    +0.041 A 
ATOM      3  C   UNL     1       0.008  -0.790  -1.085  0.00  0.00    +0.049 A 
ATOM      4  C   UNL     1       0.030  -2.135  -0.654  0.00  0.00    +0.245 A 
ATOM      5  N   UNL     1       0.036  -2.141   0.647  0.00  0.00    -0.135 NA
ATOM      6  N   UNL     1       0.024  -0.809   1.090  0.00  0.00    -0.278 N 
ATOM      7  H   UNL     1       0.028  -0.516   2.015  0.00  0.00    +0.189 HD
ATOM      8  O   UNL     1       0.045  -3.173  -1.533  0.00  0.00    -0.421 OA
ATOM      9  C   UNL     1       0.309  -2.890  -2.824  0.00  0.00    +0.201 C 
ATOM     10  C   UNL     1       0.305  -1.648  -3.351  0.00  0.00    +0.098 C 
ATOM     11  C   UNL     1      -0.006  -0.413  -2.545  0.00  0.00    +0.101 C 
ENDROOT
BRANCH  11  12
ATOM     12  C   UNL     1      -1.368   0.111  -2.922  0.00  0.00    -0.029 A 
ATOM     13  C   UNL     1      -2.482  -0.693  -2.772  0.00  0.00    +0.041 A 
ATOM     14  C   UNL     1      -3.733  -0.217  -3.116  0.00  0.00    +0.171 A 
ATOM     15  C   UNL     1      -3.873   1.069  -3.612  0.00  0.00    +0.189 A 
ATOM     16  C   UNL     1      -2.751   1.879  -3.763  0.00  0.00    +0.164 A 
ATOM     17  C   UNL     1      -1.500   1.397  -3.411  0.00  0.00    +0.054 A 
BRANCH  14  18
ATOM     18  N   UNL     1      -4.924  -1.081  -2.955  0.00  0.00    +0.060 N 
ATOM     19  O   UNL     1      -4.803  -2.204  -2.523  0.00  0.00    -0.126 OA
ATOM     20  O   UNL     1      -6.019  -0.665  -3.257  0.00  0.00    -0.126 OA
ENDBRANCH  14  18
BRANCH  16  21
ATOM     21  O   UNL     1      -2.883   3.142  -4.250  0.00  0.00    -0.491 OA
ATOM     22  C   UNL     1      -1.688   3.916  -4.377  0.00  0.00    +0.277 C 
ENDBRANCH  16  21
BRANCH  15  23
ATOM     23  O   UNL     1      -5.103   1.539  -3.952  0.00  0.00    -0.502 OA
ATOM     24  H   UNL     1      -5.569   1.980  -3.229  0.00  0.00    +0.292 HD
ENDBRANCH  15  23
ENDBRANCH  11  12
BRANCH   9  25
ATOM     25  N   UNL     1       0.604  -3.938  -3.660  0.00  0.00    -0.328 N 
ATOM     26  H   UNL     1       0.617  -4.845  -3.315  0.00  0.00    +0.145 HD
ATOM     27  H   UNL     1       0.800  -3.772  -4.595  0.00  0.00    +0.145 HD
ENDBRANCH   9  25
BRANCH  10  28
ATOM     28  C   UNL     1       0.611  -1.496  -4.742  0.00  0.00    +0.101 C 
ATOM     29  N   UNL     1       0.853  -1.376  -5.846  0.00  0.00    -0.191 NA
ENDBRANCH  10  28
TORSDOF 6
