REMARK  Name = ZINC05224986
REMARK  4 active torsions:
REMARK  status: ('A' for Active; 'I' for Inactive)
REMARK    1  A    between atoms: C_1  and  C_2
REMARK    2  A    between atoms: C_3  and  O_28
REMARK    3  A    between atoms: C_10  and  C_23
REMARK    4  A    between atoms: C_17  and  O_22
REMARK                            x       y       z     vdW  Elec       q    Type
REMARK                         _______ _______ _______ _____ _____    ______ ____
ROOT
ATOM      1  C   UNL     1      -0.512   1.545  -0.099  0.00  0.00    +0.026 C 
ATOM      2  C   UNL     1      -1.196   1.851   1.235  0.00  0.00    +0.102 C 
ATOM      3  C   UNL     1      -1.556   3.335   1.434  0.00  0.00    +0.154 C 
ATOM      4  C   UNL     1      -2.825   3.552   2.222  0.00  0.00    +0.005 C 
ATOM      5  C   UNL     1      -3.354   2.647   3.037  0.00  0.00    +0.019 C 
ATOM      6  C   UNL     1      -2.607   1.344   3.040  0.00  0.00    +0.140 C 
ATOM      7  C   UNL     1      -2.467   1.030   1.499  0.00  0.00    +0.071 C 
ATOM      8  C   UNL     1      -2.267  -0.503   1.499  0.00  0.00    +0.117 C 
ATOM      9  C   UNL     1      -3.363  -0.896   2.483  0.00  0.00    -0.002 C 
ATOM     10  C   UNL     1      -3.210   0.126   3.642  0.00  0.00    +0.045 C 
ATOM     11  C   UNL     1      -4.518   0.169   4.393  0.00  0.00    +0.011 C 
ATOM     12  C   UNL     1      -4.784  -1.257   4.923  0.00  0.00    +0.040 C 
ATOM     13  C   UNL     1      -4.786  -2.263   3.759  0.00  0.00    +0.087 C 
ATOM     14  C   UNL     1      -3.365  -2.280   3.113  0.00  0.00    +0.047 C 
ATOM     15  C   UNL     1      -5.665  -1.658   2.667  0.00  0.00    -0.045 C 
ATOM     16  C   UNL     1      -6.938  -1.888   2.462  0.00  0.00    +0.010 C 
ATOM     17  C   UNL     1      -4.762  -0.734   1.865  0.00  0.00    +0.041 C 
ATOM     18  O   UNL     1      -1.241   1.564   3.504  0.00  0.00    -0.453 OA
ATOM     19  C   UNL     1      -0.370   1.476   2.476  0.00  0.00    +0.317 C 
ATOM     20  O   UNL     1       0.798   1.170   2.522  0.00  0.00    -0.250 OA
ENDROOT
BRANCH   8  21
ATOM     21  C   UNL     1      -2.517  -1.091   0.133  0.00  0.00    +0.360 C 
ATOM     22  O   UNL     1      -3.197  -0.493  -0.666  0.00  0.00    -0.246 OA
ATOM     23  O   UNL     1      -1.982  -2.278  -0.194  0.00  0.00    -0.246 OA
ENDBRANCH   8  21
BRANCH  13  24
ATOM     24  O   UNL     1      -5.231  -3.559   4.163  0.00  0.00    -0.384 OA
ATOM     25  H   UNL     1      -6.122  -3.570   4.539  0.00  0.00    +0.211 HD
ENDBRANCH  13  24
BRANCH   3  26
ATOM     26  O   UNL     1      -1.705   3.941   0.148  0.00  0.00    -0.387 OA
ATOM     27  H   UNL     1      -1.933   4.880   0.180  0.00  0.00    +0.210 HD
ENDBRANCH   3  26
TORSDOF 3
