REMARK  Name = ZINC16047182
REMARK  5 active torsions:
REMARK  status: ('A' for Active; 'I' for Inactive)
REMARK    1  A    between atoms: C_1  and  C_2
REMARK    2  A    between atoms: C_2  and  C_4
REMARK    3  A    between atoms: C_2  and  N_14
REMARK    4  A    between atoms: N_14  and  C_15
REMARK    5  A    between atoms: C_15  and  C_16
REMARK                            x       y       z     vdW  Elec       q    Type
REMARK                         _______ _______ _______ _____ _____    ______ ____
ROOT
ATOM      1  N   UNL     1      -4.650  -0.147   0.918  0.00  0.00    +0.388 N 
ATOM      2  H   UNL     1      -4.112   0.279   1.778  0.00  0.00    -0.084 HD
ATOM      3  H   UNL     1      -5.171   0.656   0.377  0.00  0.00    -0.084 HD
ENDROOT
BRANCH   1   5
ATOM      4  C   UNL     1      -4.266  -0.838  -1.400  0.00  0.00    -0.009 C 
ATOM      5  C   UNL     1      -3.692  -0.803   0.018  0.00  0.00    -0.043 C 
BRANCH   5   6
ATOM      6  C   UNL     1      -2.397  -0.033   0.016  0.00  0.00    -0.058 A 
ATOM      7  C   UNL     1      -2.415   1.349   0.025  0.00  0.00    +0.006 A 
ATOM      8  C   UNL     1      -1.229   2.059   0.019  0.00  0.00    +0.049 A 
ATOM      9  C   UNL     1      -0.017   1.385   0.010  0.00  0.00    +0.162 A 
ATOM     10  C   UNL     1       0.002  -0.004   0.002  0.00  0.00    +0.162 A 
ATOM     11  C   UNL     1      -1.192  -0.710   0.004  0.00  0.00    +0.051 A 
ATOM     12  O   UNL     1       1.181  -0.685  -0.007  0.00  0.00    -0.485 OA
ATOM     13  C   UNL     1       2.347   0.053  -0.387  0.00  0.00    +0.270 C 
ATOM     14  C   UNL     1       2.334   1.392   0.364  0.00  0.00    +0.270 C 
ATOM     15  O   UNL     1       1.143   2.098   0.002  0.00  0.00    -0.485 OA
ENDBRANCH   5   6
ENDBRANCH   1   5
BRANCH   1  16
ATOM     16  C   UNL     1      -5.647  -1.105   1.414  0.00  0.00    -0.004 C 
BRANCH  16  17
ATOM     17  C   UNL     1      -6.610  -0.398   2.332  0.00  0.00    +0.117 A 
ATOM     18  N   UNL     1      -7.613  -1.122   2.895  0.00  0.00    -0.196 NA
ATOM     19  C   UNL     1      -8.504  -0.533   3.727  0.00  0.00    +0.281 A 
ATOM     20  O   UNL     1      -9.407  -1.169   4.238  0.00  0.00    -0.265 OA
ATOM     21  C   UNL     1      -8.338   0.905   3.988  0.00  0.00    +0.069 A 
ATOM     22  C   UNL     1      -9.201   1.605   4.830  0.00  0.00    +0.030 A 
ATOM     23  C   UNL     1      -9.000   2.952   5.040  0.00  0.00    +0.020 A 
ATOM     24  C   UNL     1      -7.946   3.614   4.422  0.00  0.00    +0.032 A 
ATOM     25  C   UNL     1      -7.082   2.940   3.587  0.00  0.00    +0.045 A 
ATOM     26  C   UNL     1      -7.266   1.574   3.358  0.00  0.00    +0.092 A 
ATOM     27  N   UNL     1      -6.436   0.870   2.548  0.00  0.00    -0.233 NA
ATOM     28 BR   UNL     1      -5.654   3.859   2.756  0.00  0.00    -0.048 Br
ATOM     29 BR   UNL     1     -10.168   3.908   6.179  0.00  0.00    -0.050 Br
ENDBRANCH  16  17
ENDBRANCH   1  16
TORSDOF 4
