REMARK  Name = ZINC39722516
REMARK  9 active torsions:
REMARK  status: ('A' for Active; 'I' for Inactive)
REMARK    1  A    between atoms: C_1  and  C_2
REMARK    2  A    between atoms: C_2  and  C_3
REMARK    3  A    between atoms: C_3  and  N_4
REMARK    4  A    between atoms: C_5  and  C_28
REMARK    5  A    between atoms: C_9  and  S_11
REMARK    6  A    between atoms: S_11  and  C_12
REMARK    7  A    between atoms: C_12  and  C_13
REMARK    8  A    between atoms: C_21  and  C_25
REMARK    9  A    between atoms: C_32  and  C_34
REMARK                            x       y       z     vdW  Elec       q    Type
REMARK                         _______ _______ _______ _____ _____    ______ ____
ROOT
ATOM      1  N   UNL     1       0.750  -1.912  -1.282  0.00  0.00    +0.410 N 
ATOM      2  C   UNL     1       1.299  -2.473  -2.546  0.00  0.00    +0.049 C 
ATOM      3  N   UNL     1       1.759  -3.825  -2.134  0.00  0.00    -0.267 NA
ATOM      4  N   UNL     1       2.306  -3.632  -0.788  0.00  0.00    -0.262 NA
ATOM      5  C   UNL     1       1.667  -2.420  -0.236  0.00  0.00    +0.077 C 
ATOM      6  H   UNL     1       0.992  -4.480  -2.122  0.00  0.00    +0.139 HD
ATOM      7  H   UNL     1       3.309  -3.531  -0.816  0.00  0.00    +0.140 HD
ATOM      8  H   UNL     1      -0.188  -2.247  -1.123  0.00  0.00    -0.075 HD
ENDROOT
BRANCH   2   9
ATOM      9  C   UNL     1       0.225  -2.568  -3.598  0.00  0.00    -0.046 A 
ATOM     10  C   UNL     1       0.389  -1.930  -4.813  0.00  0.00    +0.003 A 
ATOM     11  C   UNL     1      -0.596  -2.017  -5.779  0.00  0.00    +0.001 A 
ATOM     12  C   UNL     1      -1.746  -2.743  -5.529  0.00  0.00    +0.003 A 
ATOM     13  C   UNL     1      -1.910  -3.382  -4.315  0.00  0.00    -0.050 A 
ATOM     14  C   UNL     1      -0.922  -3.298  -3.350  0.00  0.00    +0.006 A 
ATOM     15  C   UNL     1      -3.163  -4.173  -4.042  0.00  0.00    +0.044 C 
ENDBRANCH   2   9
BRANCH   1  16
ATOM     16  C   UNL     1       0.774  -0.444  -1.318  0.00  0.00    -0.073 C 
BRANCH  16  18
ATOM     17  C   UNL     1       0.220   1.637  -0.051  0.00  0.00    +0.002 C 
ATOM     18  C   UNL     1       0.196   0.108  -0.013  0.00  0.00    -0.022 C 
ENDBRANCH  16  18
ENDBRANCH   1  16
BRANCH   5  19
ATOM     19  S   UNL     1       0.732  -2.837   1.261  0.00  0.00    -0.152 S 
BRANCH  19  20
ATOM     20  C   UNL     1      -0.436  -4.111   0.709  0.00  0.00    +0.143 C 
BRANCH  20  21
ATOM     21  C   UNL     1      -1.286  -4.551   1.872  0.00  0.00    +0.120 A 
ATOM     22  N   UNL     1      -2.224  -5.510   1.658  0.00  0.00    -0.310 N 
ATOM     23  H   UNL     1      -2.329  -5.890   0.772  0.00  0.00    +0.170 HD
ATOM     24  C   UNL     1      -3.013  -5.941   2.670  0.00  0.00    +0.259 A 
ATOM     25  O   UNL     1      -3.857  -6.800   2.492  0.00  0.00    -0.267 OA
ATOM     26  C   UNL     1      -2.810  -5.330   3.995  0.00  0.00    +0.065 A 
ATOM     27  C   UNL     1      -3.571  -5.705   5.100  0.00  0.00    +0.016 A 
ATOM     28  C   UNL     1      -3.350  -5.113   6.311  0.00  0.00    +0.016 A 
ATOM     29  C   UNL     1      -2.363  -4.129   6.453  0.00  0.00    +0.065 A 
ATOM     30  C   UNL     1      -1.593  -3.740   5.362  0.00  0.00    +0.043 A 
ATOM     31  C   UNL     1      -1.811  -4.340   4.120  0.00  0.00    +0.079 A 
ATOM     32  N   UNL     1      -1.082  -3.998   3.029  0.00  0.00    -0.233 NA
BRANCH  29  33
ATOM     33  C   UNL     1      -2.138  -3.500   7.772  0.00  0.00    +0.387 C 
ATOM     34  O   UNL     1      -2.813  -3.838   8.733  0.00  0.00    -0.241 OA
ATOM     35  O   UNL     1      -1.278  -2.641   7.901  0.00  0.00    -0.241 OA
ENDBRANCH  29  33
ENDBRANCH  20  21
ENDBRANCH  19  20
ENDBRANCH   5  19
TORSDOF 7
