REMARK  Name = ZINC28051159
REMARK  5 active torsions:
REMARK  status: ('A' for Active; 'I' for Inactive)
REMARK    1  A    between atoms: C_4  and  O_7
REMARK    2  A    between atoms: O_7  and  C_8
REMARK    3  A    between atoms: C_13  and  N_14
REMARK    4  A    between atoms: C_15  and  C_17
REMARK    5  A    between atoms: C_17  and  C_18
REMARK                            x       y       z     vdW  Elec       q    Type
REMARK                         _______ _______ _______ _____ _____    ______ ____
ROOT
ATOM      1  N   UNL     1       1.702   5.196   3.770  0.00  0.00    -0.283 N 
ATOM      2  C   UNL     1       1.487   4.714   2.530  0.00  0.00    +0.220 C 
ATOM      3  O   UNL     1       2.373   4.753   1.702  0.00  0.00    -0.275 OA
ATOM      4  H   UNL     1       0.890   5.183   4.513  0.00  0.00    +0.155 HD
ENDROOT
BRANCH   1  10
ATOM      5  C   UNL     1       3.340   5.789   5.451  0.00  0.00    +0.150 A 
ATOM      6  C   UNL     1       4.586   6.296   5.784  0.00  0.00    +0.048 A 
ATOM      7  C   UNL     1       5.442   6.733   4.791  0.00  0.00    +0.004 A 
ATOM      8  C   UNL     1       5.062   6.662   3.463  0.00  0.00    +0.002 A 
ATOM      9  C   UNL     1       3.823   6.152   3.123  0.00  0.00    +0.027 A 
ATOM     10  C   UNL     1       2.958   5.712   4.113  0.00  0.00    +0.076 A 
BRANCH   5  11
ATOM     11  O   UNL     1       2.494   5.364   6.427  0.00  0.00    -0.454 OA
BRANCH  11  15
ATOM     12  C   UNL     1       3.622   5.937  10.353  0.00  0.00    +0.000 A 
ATOM     13  C   UNL     1       3.183   7.008   9.598  0.00  0.00    +0.004 A 
ATOM     14  C   UNL     1       2.805   6.819   8.283  0.00  0.00    +0.046 A 
ATOM     15  C   UNL     1       2.866   5.553   7.720  0.00  0.00    +0.129 A 
ATOM     16  C   UNL     1       3.302   4.478   8.482  0.00  0.00    +0.046 A 
ATOM     17  C   UNL     1       3.684   4.673   9.795  0.00  0.00    +0.004 A 
ENDBRANCH  11  15
ENDBRANCH   5  11
ENDBRANCH   1  10
BRANCH   2  18
ATOM     18  C   UNL     1       0.145   4.128   2.171  0.00  0.00    +0.127 C 
BRANCH  18  19
ATOM     19  C   UNL     1       0.167   3.659   0.715  0.00  0.00    +0.166 C 
ATOM     20  C   UNL     1      -1.204   3.174   0.318  0.00  0.00    +0.238 C 
ATOM     21  O   UNL     1      -1.996   3.951  -0.174  0.00  0.00    -0.273 OA
ATOM     22  N   UNL     1      -1.560   1.890   0.504  0.00  0.00    -0.282 N 
ATOM     23  C   UNL     1      -0.627   0.943   0.942  0.00  0.00    +0.055 A 
ATOM     24  C   UNL     1      -1.034  -0.326   1.324  0.00  0.00    +0.025 A 
ATOM     25  C   UNL     1      -0.099  -1.250   1.752  0.00  0.00    +0.002 A 
ATOM     26  C   UNL     1       1.242  -0.916   1.801  0.00  0.00    +0.002 A 
ATOM     27  C   UNL     1       1.658   0.347   1.418  0.00  0.00    +0.025 A 
ATOM     28  C   UNL     1       0.728   1.275   0.984  0.00  0.00    +0.049 A 
ATOM     29  N   UNL     1       1.126   2.553   0.568  0.00  0.00    -0.331 N 
ATOM     30  H   UNL     1      -2.595   1.573   0.312  0.00  0.00    +0.155 HD
ATOM     31  H   UNL     1       2.122   2.742   0.142  0.00  0.00    +0.147 HD
ENDBRANCH  18  19
ENDBRANCH   2  18
TORSDOF 5
