REMARK  Name = ZINC66327981
REMARK  3 active torsions:
REMARK  status: ('A' for Active; 'I' for Inactive)
REMARK    1  A    between atoms: C_2  and  N_13
REMARK    2  A    between atoms: CA_4  and  C_10
REMARK    3  A    between atoms: CA_6  and  C_7
REMARK                            x       y       z     vdW  Elec       q    Type
REMARK                         _______ _______ _______ _____ _____    ______ ____
ROOT
ATOM      1  C   UNL     1      -0.017   1.391   0.010  0.00  0.00    +0.055 A 
ATOM      2  C   UNL     1       1.191   2.086   0.002  0.00  0.00    +0.029 A 
ATOM      3  C   UNL     1       2.377   1.354  -0.013  0.00  0.00    +0.055 A 
ATOM      4  CA  UNL     1       2.316  -0.039  -0.020  0.00  0.00    +0.131 A 
ATOM      5  N   UNL     1       1.149  -0.666  -0.013  0.00  0.00    -0.344 N 
ATOM      6  CA  UNL     1       0.002  -0.004   0.002  0.00  0.00    +0.131 A 
ATOM      7  H   UNL     1       1.135  -1.636  -0.019  0.00  0.00    +0.166 HD
ENDROOT
BRANCH   6   8
ATOM      8  C   UNL     1      -1.275  -0.753   0.011  0.00  0.00    +0.402 C 
ATOM      9  O   UNL     1      -1.267  -1.975   0.004  0.00  0.00    -0.239 OA
ATOM     10  OXT UNL     1      -2.338  -0.149   0.025  0.00  0.00    -0.239 OA
ENDBRANCH   6   8
BRANCH   4  11
ATOM     11  C   UNL     1       3.570  -0.827  -0.036  0.00  0.00    +0.402 C 
ATOM     12  O   UNL     1       3.524  -2.048  -0.043  0.00  0.00    -0.239 OA
ATOM     13  OXT UNL     1       4.650  -0.255  -0.044  0.00  0.00    -0.239 OA
ENDBRANCH   4  11
BRANCH   2  14
ATOM     14  N   UNL     1       1.212   3.478   0.009  0.00  0.00    -0.358 N 
ATOM     15  H   UNL     1       0.380   3.976   0.019  0.00  0.00    +0.142 HD
ATOM     16  H   UNL     1       2.060   3.950   0.003  0.00  0.00    +0.142 HD
ENDBRANCH   2  14
TORSDOF 3
