REMARK  Name = ZINC01148703
REMARK  8 active torsions:
REMARK  status: ('A' for Active; 'I' for Inactive)
REMARK    1  A    between atoms: C_1  and  C_2
REMARK    2  A    between atoms: C_2  and  C_3
REMARK    3  A    between atoms: C_2  and  C_4
REMARK    4  A    between atoms: C_11  and  S_20
REMARK    5  A    between atoms: C_15  and  N_19
REMARK    6  A    between atoms: C_16  and  C_17
REMARK    7  A    between atoms: S_20  and  C_21
REMARK    8  A    between atoms: C_21  and  C_22
REMARK                            x       y       z     vdW  Elec       q    Type
REMARK                         _______ _______ _______ _____ _____    ______ ____
ROOT
ATOM      1  C   UNL     1       9.364  -3.870  -0.804  0.00  0.00    +0.078 C 
ATOM      2  C   UNL     1       8.070  -3.146  -1.050  0.00  0.00    +0.087 A 
ATOM      3  C   UNL     1       7.640  -2.905  -2.361  0.00  0.00    +0.260 A 
ATOM      4  O   UNL     1       8.307  -3.279  -3.313  0.00  0.00    -0.267 OA
ATOM      5  N   UNL     1       6.471  -2.258  -2.553  0.00  0.00    -0.302 N 
ATOM      6  H   UNL     1       6.142  -2.084  -3.481  0.00  0.00    +0.171 HD
ATOM      7  C   UNL     1       5.740  -1.842  -1.482  0.00  0.00    +0.173 A 
ATOM      8  N   UNL     1       6.143  -2.067  -0.248  0.00  0.00    -0.188 NA
ATOM      9  C   UNL     1       7.290  -2.709   0.003  0.00  0.00    +0.233 A 
ATOM     10  O   UNL     1       7.670  -2.923   1.281  0.00  0.00    -0.423 OA
ATOM     11  C   UNL     1       8.953  -3.209   1.561  0.00  0.00    +0.200 C 
ATOM     12  C   UNL     1       9.810  -3.664   0.617  0.00  0.00    +0.094 C 
ENDROOT
BRANCH   1  14
ATOM     13  C   UNL     1       8.727  -5.580  -2.512  0.00  0.00    +0.008 C 
ATOM     14  C   UNL     1       9.165  -5.365  -1.061  0.00  0.00    -0.004 C 
ATOM     15  C   UNL     1      10.481  -6.105  -0.811  0.00  0.00    +0.008 C 
ENDBRANCH   1  14
BRANCH  11  16
ATOM     16  N   UNL     1       9.408  -3.037   2.845  0.00  0.00    -0.328 N 
ATOM     17  H   UNL     1      10.331  -3.240   3.063  0.00  0.00    +0.145 HD
ATOM     18  H   UNL     1       8.806  -2.712   3.533  0.00  0.00    +0.145 HD
ENDBRANCH  11  16
BRANCH  12  19
ATOM     19  C   UNL     1      11.165  -3.953   0.978  0.00  0.00    +0.100 C 
ATOM     20  N   UNL     1      12.240  -4.182   1.264  0.00  0.00    -0.191 NA
ENDBRANCH  12  19
BRANCH   7  21
ATOM     21  S   UNL     1       4.221  -0.993  -1.752  0.00  0.00    -0.083 S 
BRANCH  21  22
ATOM     22  C   UNL     1       3.711  -0.707  -0.039  0.00  0.00    +0.112 C 
BRANCH  22  23
ATOM     23  C   UNL     1       2.396   0.029  -0.022  0.00  0.00    -0.037 A 
ATOM     24  C   UNL     1       1.208  -0.679  -0.014  0.00  0.00    +0.004 A 
ATOM     25  C   UNL     1       0.002  -0.004   0.002  0.00  0.00    +0.000 A 
ATOM     26  C   UNL     1      -0.017   1.378   0.010  0.00  0.00    +0.000 A 
ATOM     27  C   UNL     1       1.171   2.086   0.002  0.00  0.00    +0.000 A 
ATOM     28  C   UNL     1       2.377   1.411  -0.014  0.00  0.00    +0.004 A 
ENDBRANCH  22  23
ENDBRANCH  21  22
ENDBRANCH   7  21
TORSDOF 6
