REMARK  Name = ZINC05919330
REMARK  6 active torsions:
REMARK  status: ('A' for Active; 'I' for Inactive)
REMARK    1  A    between atoms: C_1  and  C_2
REMARK    2  A    between atoms: C_2  and  C_4
REMARK    3  A    between atoms: C_2  and  O_18
REMARK    4  A    between atoms: N_6  and  N_7
REMARK    5  A    between atoms: N_10  and  C_11
REMARK    6  A    between atoms: O_18  and  C_19
REMARK                            x       y       z     vdW  Elec       q    Type
REMARK                         _______ _______ _______ _____ _____    ______ ____
ROOT
ATOM      1  C   UNL     1      -1.170   1.861  -0.266  0.00  0.00    +0.270 C 
ATOM      2  O   UNL     1      -0.284   2.674  -0.427  0.00  0.00    -0.270 OA
ATOM      3  N   UNL     1      -0.895   0.543  -0.327  0.00  0.00    -0.230 N 
ATOM      4  H   UNL     1      -1.604  -0.106  -0.198  0.00  0.00    +0.173 HD
ENDROOT
BRANCH   3   5
ATOM      5  N   UNL     1       0.414   0.111  -0.576  0.00  0.00    -0.218 N 
ATOM      6  C   UNL     1       0.689  -1.207  -0.637  0.00  0.00    +0.320 C 
ATOM      7  O   UNL     1       1.825  -1.581  -0.853  0.00  0.00    -0.251 OA
ATOM      8  N   UNL     1      -0.296  -2.109  -0.457  0.00  0.00    -0.268 N 
ATOM      9  H   UNL     1       1.123   0.761  -0.705  0.00  0.00    +0.174 HD
ATOM     10  H   UNL     1      -1.188  -1.813  -0.217  0.00  0.00    +0.156 HD
BRANCH   8  11
ATOM     11  C   UNL     1      -0.031  -3.475  -0.618  0.00  0.00    +0.035 A 
ATOM     12  C   UNL     1      -0.997  -4.311  -1.163  0.00  0.00    +0.025 A 
ATOM     13  C   UNL     1      -0.732  -5.656  -1.325  0.00  0.00    +0.022 A 
ATOM     14  C   UNL     1       0.491  -6.174  -0.935  0.00  0.00    +0.041 A 
ATOM     15  C   UNL     1       1.453  -5.344  -0.387  0.00  0.00    +0.022 A 
ATOM     16  C   UNL     1       1.195  -3.996  -0.228  0.00  0.00    +0.025 A 
ATOM     17 CL   UNL     1       0.819  -7.867  -1.135  0.00  0.00    -0.084 Cl
ENDBRANCH   8  11
ENDBRANCH   3   5
BRANCH   1  19
ATOM     18  C   UNL     1      -3.478   1.913  -1.172  0.00  0.00    +0.062 C 
ATOM     19  C   UNL     1      -2.580   2.326  -0.004  0.00  0.00    +0.257 C 
BRANCH  19  20
ATOM     20  O   UNL     1      -2.595   3.748   0.129  0.00  0.00    -0.478 OA
BRANCH  20  21
ATOM     21  C   UNL     1      -3.604   4.288   0.863  0.00  0.00    +0.140 A 
ATOM     22  C   UNL     1      -4.619   3.478   1.351  0.00  0.00    +0.048 A 
ATOM     23  C   UNL     1      -5.641   4.028   2.100  0.00  0.00    +0.023 A 
ATOM     24  C   UNL     1      -5.658   5.388   2.357  0.00  0.00    +0.043 A 
ATOM     25  C   UNL     1      -4.650   6.199   1.868  0.00  0.00    +0.043 A 
ATOM     26  C   UNL     1      -3.623   5.652   1.121  0.00  0.00    +0.084 A 
ATOM     27 CL   UNL     1      -2.358   6.670   0.507  0.00  0.00    -0.080 Cl
ATOM     28 CL   UNL     1      -6.947   6.076   3.294  0.00  0.00    -0.083 Cl
ENDBRANCH  20  21
ENDBRANCH  19  20
ENDBRANCH   1  19
TORSDOF 5
