REMARK  Name = ZINC20913994
REMARK  11 active torsions:
REMARK  status: ('A' for Active; 'I' for Inactive)
REMARK    1  A    between atoms: C_1  and  O_2
REMARK    2  A    between atoms: O_2  and  C_3
REMARK    3  A    between atoms: C_3  and  C_5
REMARK    4  A    between atoms: C_8  and  C_11
REMARK    5  A    between atoms: N_12  and  N_13
REMARK    6  A    between atoms: C_17  and  S_20
REMARK    7  A    between atoms: N_18  and  N_19
REMARK    8  A    between atoms: S_20  and  C_21
REMARK    9  A    between atoms: C_21  and  C_22
REMARK   10  A    between atoms: C_22  and  C_23
REMARK   11  A    between atoms: N_25  and  C_26
REMARK                            x       y       z     vdW  Elec       q    Type
REMARK                         _______ _______ _______ _____ _____    ______ ____
ROOT
ATOM      1  N   UNL     1      -6.239   5.982   0.062  0.00  0.00    -0.204 N 
ATOM      2  C   UNL     1      -6.258   7.370   0.070  0.00  0.00    +0.254 A 
ATOM      3  N   UNL     1      -5.215   8.162   0.083  0.00  0.00    -0.109 NA
ATOM      4  N   UNL     1      -5.593   9.390   0.084  0.00  0.00    -0.119 NA
ATOM      5  C   UNL     1      -6.903   9.456   0.082  0.00  0.00    +0.210 A 
ATOM      6  N   UNL     1      -7.372   8.169   0.072  0.00  0.00    -0.211 N 
ATOM      7  H   UNL     1      -7.184   5.420   0.057  0.00  0.00    +0.177 HD
ENDROOT
BRANCH   6   8
ATOM      8  N   UNL     1      -8.678   7.766   0.066  0.00  0.00    -0.294 N 
ATOM      9  H   UNL     1      -9.484   8.515   0.069  0.00  0.00    +0.163 HD
ATOM     10  H   UNL     1      -8.922   6.694   0.059  0.00  0.00    +0.163 HD
ENDBRANCH   6   8
BRANCH   1  12
ATOM     11  C   UNL     1      -4.999   3.998   0.053  0.00  0.00    +0.138 C 
ATOM     12  N   UNL     1      -5.017   5.298   0.061  0.00  0.00    -0.188 NA
BRANCH  11  16
ATOM     13  C   UNL     1      -1.303   1.930   0.051  0.00  0.00    +0.059 A 
ATOM     14  C   UNL     1      -1.321   3.329   0.065  0.00  0.00    +0.015 A 
ATOM     15  C   UNL     1      -2.512   3.996   0.060  0.00  0.00    +0.010 A 
ATOM     16  C   UNL     1      -3.715   3.280   0.052  0.00  0.00    -0.005 A 
ATOM     17  C   UNL     1      -3.696   1.880   0.044  0.00  0.00    +0.010 A 
ATOM     18  C   UNL     1      -2.505   1.214   0.044  0.00  0.00    +0.015 A 
BRANCH  13  19
ATOM     19  C   UNL     1      -0.016   1.210   0.050  0.00  0.00    +0.339 C 
ATOM     20  O   UNL     1       0.000  -0.005   0.043  0.00  0.00    -0.245 OA
BRANCH  19  22
ATOM     21  C   UNL     1       2.370   1.125   0.045  0.00  0.00    +0.280 C 
ATOM     22  O   UNL     1       1.142   1.899   0.052  0.00  0.00    -0.464 OA
ENDBRANCH  19  22
ENDBRANCH  13  19
ENDBRANCH  11  16
ENDBRANCH   1  12
BRANCH   5  23
ATOM     23  S   UNL     1      -7.876  10.925   0.089  0.00  0.00    -0.084 S 
BRANCH  23  24
ATOM     24  C   UNL     1      -6.564  12.171   0.100  0.00  0.00    +0.086 C 
BRANCH  24  25
ATOM     25  C   UNL     1      -7.188  13.568   0.107  0.00  0.00    +0.107 C 
BRANCH  25  26
ATOM     26  C   UNL     1      -6.095  14.606   0.116  0.00  0.00    +0.218 C 
ATOM     27  O   UNL     1      -4.932  14.262   0.116  0.00  0.00    -0.275 OA
ATOM     28  N   UNL     1      -6.410  15.917   0.124  0.00  0.00    -0.285 N 
ATOM     29  H   UNL     1      -7.462  16.230   0.047  0.00  0.00    +0.155 HD
BRANCH  28  30
ATOM     30  C   UNL     1      -5.400  16.879   0.229  0.00  0.00    +0.034 A 
ATOM     31  C   UNL     1      -5.630  18.056   0.929  0.00  0.00    +0.023 A 
ATOM     32  C   UNL     1      -4.630  19.002   1.036  0.00  0.00    +0.003 A 
ATOM     33  C   UNL     1      -3.402  18.783   0.439  0.00  0.00    +0.015 A 
ATOM     34  C   UNL     1      -3.171  17.614  -0.264  0.00  0.00    +0.020 A 
ATOM     35  C   UNL     1      -4.166  16.661  -0.370  0.00  0.00    +0.038 A 
ATOM     36 BR   UNL     1      -1.490  17.319  -1.080  0.00  0.00    -0.050 Br
ENDBRANCH  28  30
ENDBRANCH  25  26
ENDBRANCH  24  25
ENDBRANCH  23  24
ENDBRANCH   5  23
TORSDOF 10
