REMARK  Name = ZINC13986794
REMARK  6 active torsions:
REMARK  status: ('A' for Active; 'I' for Inactive)
REMARK    1  A    between atoms: C_1  and  C_2
REMARK    2  A    between atoms: N_6  and  N_7
REMARK    3  A    between atoms: C_8  and  C_10
REMARK    4  A    between atoms: C_12  and  C_15
REMARK    5  A    between atoms: N_17  and  N_18
REMARK    6  A    between atoms: C_21  and  C_26
REMARK                            x       y       z     vdW  Elec       q    Type
REMARK                         _______ _______ _______ _____ _____    ______ ____
ROOT
ATOM      1  C   UNL     1       0.617  -6.347  -3.122  0.00  0.00    +0.192 A 
ATOM      2  O   UNL     1       1.123  -7.029  -2.079  0.00  0.00    -0.445 OA
ATOM      3  C   UNL     1       1.185  -8.337  -2.389  0.00  0.00    +0.192 A 
ATOM      4  C   UNL     1       0.709  -8.503  -3.658  0.00  0.00    +0.055 A 
ATOM      5  C   UNL     1       0.341  -7.235  -4.124  0.00  0.00    +0.055 A 
ENDROOT
BRANCH   1   7
ATOM      6  N   UNL     1       0.708  -4.125  -2.113  0.00  0.00    -0.200 N 
ATOM      7  C   UNL     1       0.392  -4.894  -3.174  0.00  0.00    +0.299 C 
ATOM      8  O   UNL     1      -0.079  -4.386  -4.174  0.00  0.00    -0.265 OA
ATOM      9  H   UNL     1       1.084  -4.530  -1.315  0.00  0.00    +0.178 HD
BRANCH   6  14
ATOM     10  C   UNL     1       0.069   1.554  -0.035  0.00  0.00    +0.008 C 
ATOM     11  C   UNL     1       0.061   0.025  -0.033  0.00  0.00    -0.009 C 
ATOM     12  C   UNL     1       0.782  -0.492  -1.282  0.00  0.00    +0.055 C 
ATOM     13  C   UNL     1       0.879  -1.999  -1.192  0.00  0.00    +0.037 C 
ATOM     14  N   UNL     1       0.495  -2.741  -2.162  0.00  0.00    -0.189 NA
ATOM     15  C   UNL     1       1.444  -2.607   0.073  0.00  0.00    +0.052 C 
ATOM     16  C   UNL     1       0.699  -2.014   1.273  0.00  0.00    +0.006 C 
ATOM     17  C   UNL     1       0.779  -0.487   1.217  0.00  0.00    +0.004 C 
ENDBRANCH   6  14
ENDBRANCH   1   7
BRANCH   3  18
ATOM     18  C   UNL     1       1.683  -9.408  -1.509  0.00  0.00    +0.299 C 
ATOM     19  O   UNL     1       1.692 -10.560  -1.899  0.00  0.00    -0.265 OA
ATOM     20  N   UNL     1       2.128  -9.111  -0.272  0.00  0.00    -0.200 N 
ATOM     21  H   UNL     1       2.121  -8.193   0.039  0.00  0.00    +0.178 HD
BRANCH  20  22
ATOM     22  N   UNL     1       2.601 -10.130   0.565  0.00  0.00    -0.189 NA
ATOM     23  C   UNL     1       2.929  -9.865   1.774  0.00  0.00    +0.037 C 
ATOM     24  C   UNL     1       3.343 -10.967   2.724  0.00  0.00    +0.055 C 
ATOM     25  C   UNL     1       2.519 -10.837   4.009  0.00  0.00    -0.009 C 
ATOM     26  C   UNL     1       2.676  -9.425   4.574  0.00  0.00    +0.004 C 
ATOM     27  C   UNL     1       2.102  -8.405   3.589  0.00  0.00    +0.006 C 
ATOM     28  C   UNL     1       2.917  -8.442   2.287  0.00  0.00    +0.052 C 
ATOM     29  C   UNL     1       3.013 -11.856   5.038  0.00  0.00    +0.008 C 
ENDBRANCH  20  22
ENDBRANCH   3  18
TORSDOF 4
