REMARK  Name = ZINC39967966
REMARK  9 active torsions:
REMARK  status: ('A' for Active; 'I' for Inactive)
REMARK    1  A    between atoms: C_1  and  O_2
REMARK    2  A    between atoms: O_2  and  C_3
REMARK    3  A    between atoms: C_5  and  C_13
REMARK    4  A    between atoms: C_6  and  O_12
REMARK    5  A    between atoms: C_7  and  N_9
REMARK    6  A    between atoms: C_13  and  C_14
REMARK    7  A    between atoms: C_13  and  C_27
REMARK    8  A    between atoms: CA_22  and  C_24
REMARK    9  A    between atoms: CA_35  and  C_37
REMARK                            x       y       z     vdW  Elec       q    Type
REMARK                         _______ _______ _______ _____ _____    ______ ____
ROOT
ATOM      1  C   UNL     1       1.323  -4.109  -2.285  0.00  0.00    +0.081 C 
ENDROOT
BRANCH   1   2
ATOM      2  C   UNL     1       2.317  -4.865  -1.442  0.00  0.00    -0.016 C 
ATOM      3  C   UNL     1       2.080  -5.481  -0.262  0.00  0.00    +0.001 A 
ATOM      4  C   UNL     1       0.873  -5.625   0.560  0.00  0.00    +0.010 A 
ATOM      5  C   UNL     1       0.948  -6.314   1.722  0.00  0.00    +0.001 A 
ATOM      6  C   UNL     1       2.147  -6.893   2.159  0.00  0.00    +0.002 A 
ATOM      7  C   UNL     1       3.297  -6.804   1.459  0.00  0.00    +0.026 A 
ATOM      8  C   UNL     1       3.334  -6.102   0.222  0.00  0.00    +0.043 A 
ATOM      9  N   UNL     1       4.308  -5.879  -0.626  0.00  0.00    -0.368 N 
ATOM     10  CA  UNL     1       3.780  -5.095  -1.749  0.00  0.00    +0.221 C 
ATOM     11  H   UNL     1       5.224  -6.184  -0.530  0.00  0.00    +0.161 HD
BRANCH  10  12
ATOM     12  C   UNL     1       4.504  -3.777  -1.844  0.00  0.00    +0.382 C 
ATOM     13  O   UNL     1       5.303  -3.457  -0.980  0.00  0.00    -0.244 OA
ATOM     14  OXT UNL     1       4.291  -3.031  -2.784  0.00  0.00    -0.244 OA
ENDBRANCH  10  12
ENDBRANCH   1   2
BRANCH   1  15
ATOM     15  C   UNL     1      -0.009  -4.812  -2.244  0.00  0.00    -0.016 C 
ATOM     16  C   UNL     1      -0.223  -6.148  -2.223  0.00  0.00    +0.001 A 
ATOM     17  C   UNL     1       0.686  -7.301  -2.233  0.00  0.00    +0.010 A 
ATOM     18  C   UNL     1       0.164  -8.548  -2.206  0.00  0.00    +0.001 A 
ATOM     19  C   UNL     1      -1.220  -8.767  -2.170  0.00  0.00    +0.002 A 
ATOM     20  C   UNL     1      -2.118  -7.758  -2.158  0.00  0.00    +0.026 A 
ATOM     21  C   UNL     1      -1.680  -6.406  -2.184  0.00  0.00    +0.043 A 
ATOM     22  N   UNL     1      -2.341  -5.274  -2.180  0.00  0.00    -0.368 N 
ATOM     23  CA  UNL     1      -1.377  -4.168  -2.211  0.00  0.00    +0.221 C 
ATOM     24  H   UNL     1      -3.307  -5.182  -2.157  0.00  0.00    +0.161 HD
BRANCH  23  25
ATOM     25  C   UNL     1      -1.588  -3.333  -3.448  0.00  0.00    +0.382 C 
ATOM     26  O   UNL     1      -2.385  -3.693  -4.298  0.00  0.00    -0.244 OA
ATOM     27  OXT UNL     1      -0.962  -2.298  -3.598  0.00  0.00    -0.244 OA
ENDBRANCH  23  25
ENDBRANCH   1  15
BRANCH   1  30
ATOM     28  C   UNL     1       0.586  -1.226   0.045  0.00  0.00    +0.123 A 
ATOM     29  C   UNL     1       0.727  -2.514  -0.452  0.00  0.00    +0.054 A 
ATOM     30  C   UNL     1       1.169  -2.710  -1.746  0.00  0.00    +0.011 A 
ATOM     31  C   UNL     1       1.471  -1.620  -2.548  0.00  0.00    +0.151 A 
ATOM     32  C   UNL     1       1.329  -0.333  -2.052  0.00  0.00    +0.171 A 
ATOM     33  C   UNL     1       0.881  -0.136  -0.760  0.00  0.00    +0.082 A 
BRANCH  32  34
ATOM     34  N   UNL     1       1.652   0.831  -2.908  0.00  0.00    +0.060 N 
ATOM     35  O   UNL     1       1.528   1.953  -2.476  0.00  0.00    -0.126 OA
ATOM     36  O   UNL     1       2.039   0.659  -4.041  0.00  0.00    -0.126 OA
ENDBRANCH  32  34
BRANCH  28  38
ATOM     37  C   UNL     1       0.022   0.320   1.762  0.00  0.00    +0.277 C 
ATOM     38  O   UNL     1       0.151  -1.033   1.319  0.00  0.00    -0.495 OA
ENDBRANCH  28  38
BRANCH  31  39
ATOM     39  O   UNL     1       1.906  -1.813  -3.822  0.00  0.00    -0.504 OA
ATOM     40  H   UNL     1       1.198  -1.850  -4.479  0.00  0.00    +0.292 HD
ENDBRANCH  31  39
ENDBRANCH   1  30
TORSDOF 8
