REMARK  Name = ZINC15885786
REMARK  13 active torsions:
REMARK  status: ('A' for Active; 'I' for Inactive)
REMARK    1  A    between atoms: C_1  and  C_2
REMARK    2  A    between atoms: C_2  and  C_3
REMARK    3  A    between atoms: C_2  and  C_4
REMARK    4  A    between atoms: C_7  and  N_10
REMARK    5  A    between atoms: N_10  and  C_11
REMARK    6  A    between atoms: C_11  and  N_13
REMARK    7  A    between atoms: N_13  and  N_14
REMARK    8  A    between atoms: C_15  and  C_17
REMARK    9  A    between atoms: C_20  and  S_23
REMARK   10  A    between atoms: S_23  and  N_26
REMARK   11  A    between atoms: N_26  and  C_27
REMARK   12  A    between atoms: C_27  and  C_28
REMARK   13  A    between atoms: C_27  and  C_29
REMARK                            x       y       z     vdW  Elec       q    Type
REMARK                         _______ _______ _______ _____ _____    ______ ____
ROOT
ATOM      1  N   UNL     1      -2.945   4.260   5.489  0.00  0.00    -0.231 N 
ATOM      2  C   UNL     1      -3.151   3.032   4.973  0.00  0.00    +0.260 C 
ATOM      3  O   UNL     1      -3.675   2.169   5.650  0.00  0.00    -0.269 OA
ATOM      4  H   UNL     1      -2.527   4.949   4.948  0.00  0.00    +0.173 HD
ENDROOT
BRANCH   2   5
ATOM      5  C   UNL     1      -2.741   2.735   3.584  0.00  0.00    +0.038 A 
ATOM      6  C   UNL     1      -2.954   1.464   3.047  0.00  0.00    +0.015 A 
ATOM      7  C   UNL     1      -2.569   1.193   1.750  0.00  0.00    +0.029 A 
ATOM      8  C   UNL     1      -1.974   2.178   0.982  0.00  0.00    +0.105 A 
ATOM      9  C   UNL     1      -1.755   3.438   1.510  0.00  0.00    +0.029 A 
ATOM     10  C   UNL     1      -2.140   3.723   2.804  0.00  0.00    +0.015 A 
BRANCH   8  11
ATOM     11  S   UNL     1      -1.486   1.824  -0.673  0.00  0.00    +0.059 S 
ATOM     12  O   UNL     1      -1.297   0.417  -0.749  0.00  0.00    -0.153 OA
ATOM     13  O   UNL     1      -0.458   2.749  -1.000  0.00  0.00    -0.153 OA
BRANCH  11  14
ATOM     14  N   UNL     1      -2.773   2.182  -1.651  0.00  0.00    -0.187 NA
ATOM     15  H   UNL     1      -3.219   1.476  -2.145  0.00  0.00    +0.148 HD
BRANCH  14  16
ATOM     16  C   UNL     1      -3.240   3.566  -1.770  0.00  0.00    +0.070 C 
ATOM     17  C   UNL     1      -3.730   3.818  -3.197  0.00  0.00    +0.025 C 
ATOM     18  C   UNL     1      -4.388   3.803  -0.787  0.00  0.00    +0.025 C 
ENDBRANCH  14  16
ENDBRANCH  11  14
ENDBRANCH   8  11
ENDBRANCH   2   5
BRANCH   1  19
ATOM     19  N   UNL     1      -3.333   4.542   6.805  0.00  0.00    -0.245 N 
ATOM     20  H   UNL     1      -3.751   3.853   7.345  0.00  0.00    +0.172 HD
BRANCH  19  21
ATOM     21  C   UNL     1      -3.127   5.769   7.320  0.00  0.00    +0.151 C 
ATOM     22  S   UNL     1      -3.602   6.114   8.929  0.00  0.00    -0.017 S 
BRANCH  21  23
ATOM     23  N   UNL     1      -2.546   6.726   6.570  0.00  0.00    -0.296 N 
ATOM     24  H   UNL     1      -2.221   6.515   5.681  0.00  0.00    +0.154 HD
BRANCH  23  28
ATOM     25  C   UNL     1      -2.148  10.594   8.067  0.00  0.00    -0.045 A 
ATOM     26  C   UNL     1      -1.821   9.510   8.860  0.00  0.00    +0.006 A 
ATOM     27  C   UNL     1      -1.952   8.226   8.367  0.00  0.00    +0.023 A 
ATOM     28  C   UNL     1      -2.413   8.025   7.072  0.00  0.00    +0.033 A 
ATOM     29  C   UNL     1      -2.736   9.116   6.276  0.00  0.00    +0.023 A 
ATOM     30  C   UNL     1      -2.608  10.397   6.777  0.00  0.00    +0.006 A 
BRANCH  25  32
ATOM     31  C   UNL     1      -1.018  12.777   7.740  0.00  0.00    +0.012 C 
ATOM     32  C   UNL     1      -2.005  11.993   8.608  0.00  0.00    +0.013 C 
ATOM     33  C   UNL     1      -3.367  12.689   8.589  0.00  0.00    +0.012 C 
ENDBRANCH  25  32
ENDBRANCH  23  28
ENDBRANCH  21  23
ENDBRANCH  19  21
ENDBRANCH   1  19
TORSDOF 9
