REMARK  Name = ZINC39361857
REMARK  11 active torsions:
REMARK  status: ('A' for Active; 'I' for Inactive)
REMARK    1  A    between atoms: C_1  and  C_2
REMARK    2  A    between atoms: C_5  and  N_9
REMARK    3  A    between atoms: C_6  and  C_8
REMARK    4  A    between atoms: C_10  and  C_12
REMARK    5  A    between atoms: C_12  and  S_13
REMARK    6  A    between atoms: S_13  and  C_14
REMARK    7  A    between atoms: C_17  and  C_28
REMARK    8  A    between atoms: N_19  and  C_20
REMARK    9  A    between atoms: C_22  and  C_27
REMARK   10  A    between atoms: C_25  and  C_26
REMARK   11  A    between atoms: C_28  and  C_29
REMARK                            x       y       z     vdW  Elec       q    Type
REMARK                         _______ _______ _______ _____ _____    ______ ____
ROOT
ATOM      1  C   UNL     1      -0.356  -8.692  -2.728  0.00  0.00    +0.180 C 
ATOM      2  N   UNL     1      -0.344  -9.312  -1.596  0.00  0.00    -0.162 NA
ATOM      3  N   UNL     1      -0.438 -10.698  -1.770  0.00  0.00    -0.246 N 
ATOM      4  C   UNL     1      -0.516 -10.925  -3.223  0.00  0.00    +0.187 C 
ATOM      5  N   UNL     1      -0.463  -9.570  -3.797  0.00  0.00    -0.258 N 
ATOM      6  H   UNL     1      -0.449 -11.373  -1.073  0.00  0.00    +0.170 HD
ENDROOT
BRANCH   5   7
ATOM      7  C   UNL     1      -0.509  -9.235  -5.152  0.00  0.00    +0.041 A 
ATOM      8  C   UNL     1       0.666  -9.148  -5.888  0.00  0.00    +0.027 A 
ATOM      9  C   UNL     1       0.618  -8.817  -7.228  0.00  0.00    -0.049 A 
ATOM     10  C   UNL     1      -0.600  -8.571  -7.837  0.00  0.00    +0.004 A 
ATOM     11  C   UNL     1      -1.771  -8.656  -7.108  0.00  0.00    +0.005 A 
ATOM     12  C   UNL     1      -1.730  -8.992  -5.769  0.00  0.00    -0.029 A 
ATOM     13  C   UNL     1      -3.008  -9.091  -4.976  0.00  0.00    +0.045 C 
ATOM     14  C   UNL     1       1.892  -8.723  -8.027  0.00  0.00    +0.044 C 
ENDBRANCH   5   7
BRANCH   1  15
ATOM     15  S   UNL     1      -0.255  -6.941  -2.895  0.00  0.00    -0.079 S 
BRANCH  15  16
ATOM     16  C   UNL     1      -0.134  -6.343  -1.187  0.00  0.00    +0.173 C 
BRANCH  16  18
ATOM     17  N   UNL     1       0.059  -4.170  -0.021  0.00  0.00    -0.285 N 
ATOM     18  C   UNL     1      -0.040  -4.839  -1.187  0.00  0.00    +0.227 C 
ATOM     19  O   UNL     1      -0.054  -4.230  -2.236  0.00  0.00    -0.275 OA
ATOM     20  H   UNL     1       0.135  -4.658   0.814  0.00  0.00    +0.155 HD
BRANCH  17  25
ATOM     21  C   UNL     1       0.025   1.503   0.005  0.00  0.00    +0.044 C 
ATOM     22  C   UNL     1       0.034  -0.004  -0.002  0.00  0.00    -0.050 A 
ATOM     23  C   UNL     1       0.632  -0.685  -1.046  0.00  0.00    +0.005 A 
ATOM     24  C   UNL     1       0.641  -2.066  -1.055  0.00  0.00    +0.024 A 
ATOM     25  C   UNL     1       0.051  -2.771  -0.014  0.00  0.00    +0.036 A 
ATOM     26  C   UNL     1      -0.548  -2.083   1.033  0.00  0.00    -0.029 A 
ATOM     27  C   UNL     1      -0.550  -0.702   1.039  0.00  0.00    +0.008 A 
ATOM     28  C   UNL     1      -1.190  -2.843   2.165  0.00  0.00    +0.045 C 
ENDBRANCH  17  25
ENDBRANCH  16  18
ENDBRANCH  15  16
ENDBRANCH   1  15
BRANCH   4  29
ATOM     29  C   UNL     1       0.670 -11.766  -3.699  0.00  0.00    +0.097 C 
BRANCH  29  30
ATOM     30  C   UNL     1       0.570 -13.152  -3.117  0.00  0.00    +0.029 A 
ATOM     31  N   UNL     1       1.056 -13.407  -1.863  0.00  0.00    -0.311 N 
ATOM     32  C   UNL     1       0.971 -14.641  -1.334  0.00  0.00    +0.327 A 
ATOM     33  O   UNL     1       1.409 -14.846  -0.218  0.00  0.00    -0.247 OA
ATOM     34  N   UNL     1       0.408 -15.652  -2.022  0.00  0.00    -0.275 N 
ATOM     35  C   UNL     1      -0.082 -15.441  -3.260  0.00  0.00    +0.254 A 
ATOM     36  O   UNL     1      -0.592 -16.355  -3.883  0.00  0.00    -0.268 OA
ATOM     37  C   UNL     1      -0.004 -14.146  -3.827  0.00  0.00    +0.091 A 
ATOM     38  H   UNL     1       0.355 -16.536  -1.625  0.00  0.00    +0.173 HD
ATOM     39  H   UNL     1       1.465 -12.692  -1.352  0.00  0.00    +0.170 HD
ENDBRANCH  29  30
ENDBRANCH   4  29
TORSDOF 7
