REMARK  Name = ZINC66210600
REMARK  8 active torsions:
REMARK  status: ('A' for Active; 'I' for Inactive)
REMARK    1  A    between atoms: C_1  and  C_2
REMARK    2  A    between atoms: C_4  and  C_28
REMARK    3  A    between atoms: C_6  and  N_8
REMARK    4  A    between atoms: N_8  and  C_9
REMARK    5  A    between atoms: C_9  and  C_10
REMARK    6  A    between atoms: N_12  and  C_13
REMARK    7  A    between atoms: C_16  and  C_19
REMARK    8  A    between atoms: N_21  and  C_22
REMARK                            x       y       z     vdW  Elec       q    Type
REMARK                         _______ _______ _______ _____ _____    ______ ____
ROOT
ATOM      1  C   UNL     1      -0.006  -3.493   7.163  0.00  0.00    +0.033 A 
ATOM      2  C   UNL     1       0.023  -4.868   6.953  0.00  0.00    +0.024 A 
ATOM      3  C   UNL     1      -0.049  -5.731   8.023  0.00  0.00    +0.015 A 
ATOM      4  C   UNL     1      -0.151  -5.224   9.322  0.00  0.00    +0.037 A 
ATOM      5  C   UNL     1      -0.179  -3.842   9.529  0.00  0.00    +0.015 A 
ATOM      6  C   UNL     1      -0.102  -2.985   8.455  0.00  0.00    +0.024 A 
ENDROOT
BRANCH   1   9
ATOM      7  C   UNL     1      -0.520  -2.950   4.909  0.00  0.00    +0.234 C 
ATOM      8  O   UNL     1      -1.040  -4.037   4.776  0.00  0.00    -0.274 OA
ATOM      9  N   UNL     1       0.067  -2.621   6.077  0.00  0.00    -0.284 N 
ATOM     10  H   UNL     1       0.540  -1.779   6.162  0.00  0.00    +0.155 HD
BRANCH   7  11
ATOM     11  C   UNL     1      -0.531  -1.965   3.768  0.00  0.00    +0.198 C 
BRANCH  11  12
ATOM     12  N   UNL     1      -1.223  -2.556   2.620  0.00  0.00    -0.335 N 
ATOM     13  H   UNL     1      -1.587  -3.453   2.682  0.00  0.00    +0.147 HD
BRANCH  12  19
ATOM     14  C   UNL     1      -0.415   1.571   0.076  0.00  0.00    +0.044 C 
ATOM     15  C   UNL     1      -0.978   0.177   0.175  0.00  0.00    -0.048 A 
ATOM     16  C   UNL     1      -1.632  -0.383  -0.908  0.00  0.00    +0.006 A 
ATOM     17  C   UNL     1      -2.151  -1.661  -0.822  0.00  0.00    -0.048 A 
ATOM     18  C   UNL     1      -2.017  -2.385   0.347  0.00  0.00    +0.026 A 
ATOM     19  C   UNL     1      -1.360  -1.827   1.436  0.00  0.00    +0.028 A 
ATOM     20  C   UNL     1      -0.836  -0.544   1.344  0.00  0.00    +0.026 A 
ATOM     21  C   UNL     1      -2.863  -2.266  -2.004  0.00  0.00    +0.044 C 
ENDBRANCH  12  19
ENDBRANCH  11  12
ENDBRANCH   7  11
ENDBRANCH   1   9
BRANCH   4  22
ATOM     22  C   UNL     1      -0.229  -6.146  10.472  0.00  0.00    +0.244 C 
ATOM     23  O   UNL     1      -0.204  -7.348  10.290  0.00  0.00    -0.270 OA
ATOM     24  N   UNL     1      -0.327  -5.656  11.723  0.00  0.00    -0.308 N 
ATOM     25  H   UNL     1      -0.347  -4.697  11.868  0.00  0.00    +0.149 HD
BRANCH  24  26
ATOM     26  C   UNL     1      -0.405  -6.571  12.864  0.00  0.00    +0.073 C 
ATOM     27  C   UNL     1      -1.858  -7.001  13.076  0.00  0.00    +0.022 C 
ATOM     28  C   UNL     1      -1.938  -7.957  14.268  0.00  0.00    +0.002 C 
ATOM     29  C   UNL     1      -1.428  -7.249  15.524  0.00  0.00    +0.000 C 
ATOM     30  C   UNL     1       0.025  -6.819  15.313  0.00  0.00    +0.002 C 
ATOM     31  C   UNL     1       0.106  -5.864  14.121  0.00  0.00    +0.022 C 
ENDBRANCH  24  26
ENDBRANCH   4  22
TORSDOF 6
