REMARK  Name = ZINC36783014
REMARK  9 active torsions:
REMARK  status: ('A' for Active; 'I' for Inactive)
REMARK    1  A    between atoms: C_1  and  C_2
REMARK    2  A    between atoms: C_2  and  C_4
REMARK    3  A    between atoms: C_2  and  N_7
REMARK    4  A    between atoms: N_7  and  C_8
REMARK    5  A    between atoms: N_7  and  C_9
REMARK    6  A    between atoms: C_9  and  C_11
REMARK    7  A    between atoms: C_9  and  C_12
REMARK    8  A    between atoms: N_14  and  C_15
REMARK    9  A    between atoms: C_18  and  N_22
REMARK                            x       y       z     vdW  Elec       q    Type
REMARK                         _______ _______ _______ _____ _____    ______ ____
ROOT
ATOM      1  C   UNL     1       2.914  -0.142   2.659  0.00  0.00    +0.203 C 
ATOM      2  O   UNL     1       2.324  -0.530   3.645  0.00  0.00    -0.277 OA
ATOM      3  N   UNL     1       4.262  -0.161   2.629  0.00  0.00    -0.284 N 
ATOM      4  H   UNL     1       4.735   0.195   1.861  0.00  0.00    +0.155 HD
ENDROOT
BRANCH   3   5
ATOM      5  C   UNL     1       4.980  -0.695   3.709  0.00  0.00    +0.070 A 
ATOM      6  C   UNL     1       4.567  -1.884   4.297  0.00  0.00    +0.065 A 
ATOM      7  C   UNL     1       5.275  -2.410   5.361  0.00  0.00    +0.044 A 
ATOM      8  C   UNL     1       6.398  -1.751   5.842  0.00  0.00    +0.027 A 
ATOM      9  C   UNL     1       6.811  -0.562   5.254  0.00  0.00    +0.044 A 
ATOM     10  C   UNL     1       6.107  -0.038   4.186  0.00  0.00    +0.065 A 
ATOM     11 CL   UNL     1       6.626   1.444   3.447  0.00  0.00    -0.082 Cl
ATOM     12 CL   UNL     1       3.163  -2.709   3.696  0.00  0.00    -0.082 Cl
BRANCH   8  13
ATOM     13  N   UNL     1       7.115  -2.283   6.919  0.00  0.00    -0.358 N 
ATOM     14  H   UNL     1       6.827  -3.114   7.330  0.00  0.00    +0.142 HD
ATOM     15  H   UNL     1       7.899  -1.823   7.255  0.00  0.00    +0.142 HD
ENDBRANCH   8  13
ENDBRANCH   3   5
BRANCH   1  16
ATOM     16  C   UNL     1       2.141   0.359   1.467  0.00  0.00    +0.016 C 
ATOM     17  C   UNL     1       2.600   1.778   1.121  0.00  0.00    -0.004 C 
BRANCH  16  18
ATOM     18  N   UNL     1       0.707   0.373   1.784  0.00  0.00    +0.387 N 
ATOM     19  C   UNL     1       0.468   1.251   2.937  0.00  0.00    -0.095 C 
ATOM     20  H   UNL     1       0.190   0.715   0.988  0.00  0.00    -0.081 HD
BRANCH  18  22
ATOM     21  C   UNL     1       0.614  -1.928   0.949  0.00  0.00    -0.013 C 
ATOM     22  C   UNL     1       0.264  -0.990   2.107  0.00  0.00    -0.068 C 
BRANCH  22  23
ATOM     23  C   UNL     1      -1.250  -0.996   2.328  0.00  0.00    -0.025 C 
ATOM     24  C   UNL     1      -1.755  -1.252   3.749  0.00  0.00    +0.002 C 
ATOM     25  C   UNL     1      -1.908  -2.332   2.677  0.00  0.00    +0.002 C 
ENDBRANCH  22  23
ENDBRANCH  18  22
ENDBRANCH  16  18
ENDBRANCH   1  16
TORSDOF 6
