REMARK  Name = ZINC59293797
REMARK  7 active torsions:
REMARK  status: ('A' for Active; 'I' for Inactive)
REMARK    1  A    between atoms: C_3  and  O_28
REMARK    2  A    between atoms: C_6  and  C_7
REMARK    3  A    between atoms: C_9  and  C_26
REMARK    4  A    between atoms: C_10  and  N_25
REMARK    5  A    between atoms: C_14  and  C_21
REMARK    6  A    between atoms: C_18  and  C_19
REMARK    7  A    between atoms: C_21  and  C_22
REMARK                            x       y       z     vdW  Elec       q    Type
REMARK                         _______ _______ _______ _____ _____    ______ ____
ROOT
ATOM      1  C   UNL     1      -1.293  -0.774   0.011  0.00  0.00    +0.105 C 
ATOM      2  C   UNL     1      -1.375  -1.617  -1.228  0.00  0.00    +0.078 C 
ATOM      3  C   UNL     1      -1.065  -2.936  -1.261  0.00  0.00    +0.110 C 
ATOM      4  N   UNL     1      -0.706  -3.583  -0.066  0.00  0.00    -0.219 N 
ATOM      5  C   UNL     1      -0.072  -4.757  -0.030  0.00  0.00    +0.239 C 
ATOM      6  O   UNL     1       0.282  -5.320  -1.043  0.00  0.00    -0.274 OA
ATOM      7  C   UNL     1       0.186  -5.352   1.346  0.00  0.00    +0.150 C 
ATOM      8  S   UNL     1      -0.779  -4.171   2.385  0.00  0.00    -0.095 S 
ATOM      9  C   UNL     1      -1.006  -2.933   1.135  0.00  0.00    +0.091 C 
ATOM     10  C   UNL     1      -1.351  -1.637   1.252  0.00  0.00    +0.070 C 
ENDROOT
BRANCH   1  16
ATOM     11  C   UNL     1      -0.017   1.378   0.010  0.00  0.00    +0.008 A 
ATOM     12  C   UNL     1       1.169   2.087   0.002  0.00  0.00    +0.046 A 
ATOM     13  C   UNL     1       2.380   1.409  -0.013  0.00  0.00    +0.117 A 
ATOM     14  C   UNL     1       2.396   0.022  -0.021  0.00  0.00    +0.046 A 
ATOM     15  C   UNL     1       1.207  -0.681  -0.013  0.00  0.00    +0.008 A 
ATOM     16  C   UNL     1       0.002  -0.004   0.002  0.00  0.00    -0.034 A 
BRANCH  13  17
ATOM     17  O   UNL     1       3.548   2.104  -0.021  0.00  0.00    -0.507 OA
ATOM     18  H   UNL     1       3.895   2.300   0.860  0.00  0.00    +0.292 HD
ENDBRANCH  13  17
ENDBRANCH   1  16
BRANCH   3  19
ATOM     19  N   UNL     1      -1.101  -3.631  -2.446  0.00  0.00    -0.345 N 
ATOM     20  H   UNL     1      -1.349  -3.178  -3.266  0.00  0.00    +0.144 HD
ATOM     21  H   UNL     1      -0.877  -4.574  -2.461  0.00  0.00    +0.144 HD
ENDBRANCH   3  19
BRANCH  10  22
ATOM     22  C   UNL     1      -1.759  -1.093   2.512  0.00  0.00    +0.098 C 
ATOM     23  N   UNL     1      -2.083  -0.661   3.512  0.00  0.00    -0.191 NA
ENDBRANCH  10  22
BRANCH   2  24
ATOM     24  C   UNL     1      -1.805  -0.993  -2.443  0.00  0.00    +0.099 C 
ATOM     25  N   UNL     1      -2.147  -0.498  -3.407  0.00  0.00    -0.191 NA
ENDBRANCH   2  24
BRANCH   7  26
ATOM     26  C   UNL     1       1.674  -5.317   1.698  0.00  0.00    +0.149 C 
BRANCH  26  27
ATOM     27  C   UNL     1       1.897  -6.026   3.010  0.00  0.00    +0.358 C 
ATOM     28  O   UNL     1       0.952  -6.513   3.607  0.00  0.00    -0.246 OA
ATOM     29  O   UNL     1       3.021  -6.111   3.473  0.00  0.00    -0.246 OA
ENDBRANCH  26  27
ENDBRANCH   7  26
TORSDOF 7
