REMARK  Name = ZINC25355171
REMARK  4 active torsions:
REMARK  status: ('A' for Active; 'I' for Inactive)
REMARK    1  A    between atoms: C_5  and  N_7
REMARK    2  A    between atoms: C_10  and  N_17
REMARK    3  A    between atoms: C_11  and  C_15
REMARK    4  A    between atoms: C_12  and  N_14
REMARK                            x       y       z     vdW  Elec       q    Type
REMARK                         _______ _______ _______ _____ _____    ______ ____
ROOT
ATOM      1  N   UNL     1       1.260   1.921   0.000  0.00  0.00    -0.221 N 
ATOM      2  C   UNL     1       2.159   0.861  -0.014  0.00  0.00    +0.140 A 
ATOM      3  C   UNL     1       1.473  -0.346  -0.014  0.00  0.00    +0.024 A 
ATOM      4  C   UNL     1       2.161  -1.548  -0.026  0.00  0.00    +0.052 A 
ATOM      5  C   UNL     1       3.573  -1.506  -0.039  0.00  0.00    +0.112 A 
ATOM      6  C   UNL     1       4.202  -0.250  -0.039  0.00  0.00    +0.138 A 
ATOM      7  N   UNL     1       3.493   0.864  -0.026  0.00  0.00    -0.215 NA
ATOM      8  C   UNL     1       0.002  -0.004   0.002  0.00  0.00    +0.137 C 
ATOM      9  C   UNL     1      -0.018   1.510   0.010  0.00  0.00    +0.230 C 
ATOM     10  O   UNL     1      -1.003   2.218   0.019  0.00  0.00    -0.274 OA
ENDROOT
BRANCH   1  15
ATOM     11  C   UNL     1       2.227   5.260   1.206  0.00  0.00    +0.002 A 
ATOM     12  C   UNL     1       2.405   5.931   0.009  0.00  0.00    +0.003 A 
ATOM     13  C   UNL     1       2.204   5.275  -1.191  0.00  0.00    +0.040 A 
ATOM     14  C   UNL     1       1.825   3.945  -1.198  0.00  0.00    +0.145 A 
ATOM     15  C   UNL     1       1.645   3.269   0.003  0.00  0.00    +0.078 A 
ATOM     16  C   UNL     1       1.843   3.934   1.206  0.00  0.00    +0.027 A 
ATOM     17  F   UNL     1       1.629   3.304  -2.371  0.00  0.00    -0.204 F 
ENDBRANCH   1  15
BRANCH   6  18
ATOM     18  N   UNL     1       5.584  -0.179  -0.051  0.00  0.00    -0.342 N 
ATOM     19  H   UNL     1       6.085   0.800  -0.051  0.00  0.00    +0.144 HD
ATOM     20  H   UNL     1       6.182  -1.102  -0.062  0.00  0.00    +0.144 HD
ENDBRANCH   6  18
BRANCH   4  21
ATOM     21  N   UNL     1       1.484  -2.758  -0.026  0.00  0.00    -0.357 N 
ATOM     22  H   UNL     1       2.046  -3.703  -0.036  0.00  0.00    +0.142 HD
ATOM     23  H   UNL     1       0.384  -2.772  -0.016  0.00  0.00    +0.142 HD
ENDBRANCH   4  21
BRANCH   5  24
ATOM     24  C   UNL     1       4.343  -2.713  -0.053  0.00  0.00    +0.104 C 
ATOM     25  N   UNL     1       4.954  -3.671  -0.064  0.00  0.00    -0.191 NA
ENDBRANCH   5  24
TORSDOF 4
