REMARK  Name = ZINC04677091
REMARK  7 active torsions:
REMARK  status: ('A' for Active; 'I' for Inactive)
REMARK    1  A    between atoms: C_1  and  C_2
REMARK    2  A    between atoms: C_2  and  C_3
REMARK    3  A    between atoms: C_7  and  C_26
REMARK    4  A    between atoms: C_8  and  N_9
REMARK    5  A    between atoms: C_10  and  C_25
REMARK    6  A    between atoms: C_12  and  C_15
REMARK    7  A    between atoms: C_13  and  C_14
REMARK                            x       y       z     vdW  Elec       q    Type
REMARK                         _______ _______ _______ _____ _____    ______ ____
ROOT
ATOM      1  N   UNL     1       0.076  -0.491  -0.536  0.00  0.00    -0.317 N 
ATOM      2  C   UNL     1       1.383  -0.866  -0.691  0.00  0.00    +0.022 A 
ATOM      3  C   UNL     1       2.149   0.231  -0.794  0.00  0.00    +0.031 A 
ATOM      4  C   UNL     1       1.241   1.384  -0.695  0.00  0.00    -0.003 A 
ATOM      5  C   UNL     1      -0.030   0.852  -0.535  0.00  0.00    +0.028 A 
ATOM      6  C   UNL     1      -1.308   1.638  -0.393  0.00  0.00    +0.064 C 
ATOM      7  C   UNL     1       1.882  -2.287  -0.738  0.00  0.00    +0.064 C 
ENDROOT
BRANCH   4   8
ATOM      8  C   UNL     1       1.592   2.754  -0.750  0.00  0.00    +0.028 C 
ATOM      9  C   UNL     1       2.691   3.216  -0.045  0.00  0.00    +0.100 C 
ATOM     10  C   UNL     1       3.398   2.362   0.926  0.00  0.00    +0.256 C 
ATOM     11  O   UNL     1       3.033   1.220   1.136  0.00  0.00    -0.270 OA
ATOM     12  N   UNL     1       4.464   2.878   1.572  0.00  0.00    -0.236 N 
ATOM     13  C   UNL     1       4.873   4.136   1.354  0.00  0.00    +0.313 C 
ATOM     14  O   UNL     1       5.838   4.542   1.972  0.00  0.00    -0.252 OA
ATOM     15  N   UNL     1       4.276   4.969   0.491  0.00  0.00    -0.236 N 
ATOM     16  C   UNL     1       3.201   4.588  -0.229  0.00  0.00    +0.256 C 
ATOM     17  O   UNL     1       2.668   5.354  -1.010  0.00  0.00    -0.270 OA
ATOM     18  H   UNL     1       4.942   2.328   2.212  0.00  0.00    +0.159 HD
ATOM     19  H   UNL     1       4.625   5.868   0.382  0.00  0.00    +0.159 HD
ENDBRANCH   4   8
BRANCH   1  25
ATOM     20  C   UNL     1      -1.764  -1.722  -1.504  0.00  0.00    -0.024 A 
ATOM     21  C   UNL     1      -2.820  -2.602  -1.366  0.00  0.00    +0.005 A 
ATOM     22  C   UNL     1      -3.123  -3.130  -0.125  0.00  0.00    +0.001 A 
ATOM     23  C   UNL     1      -2.368  -2.784   0.981  0.00  0.00    +0.005 A 
ATOM     24  C   UNL     1      -1.307  -1.910   0.848  0.00  0.00    -0.026 A 
ATOM     25  C   UNL     1      -1.000  -1.378  -0.398  0.00  0.00    +0.053 A 
ATOM     26  C   UNL     1      -0.485  -1.533   2.053  0.00  0.00    +0.046 C 
BRANCH  20  28
ATOM     27  C   UNL     1      -0.376  -2.008  -3.540  0.00  0.00    +0.009 C 
ATOM     28  C   UNL     1      -1.437  -1.143  -2.857  0.00  0.00    +0.034 C 
ENDBRANCH  20  28
ENDBRANCH   1  25
TORSDOF 3
