REMARK  Name = ZINC40348091
REMARK  5 active torsions:
REMARK  status: ('A' for Active; 'I' for Inactive)
REMARK    1  A    between atoms: C_3  and  N_21
REMARK    2  A    between atoms: C_4  and  S_8
REMARK    3  A    between atoms: S_8  and  N_11
REMARK    4  A    between atoms: N_14  and  S_17
REMARK    5  A    between atoms: S_17  and  N_20
REMARK                            x       y       z     vdW  Elec       q    Type
REMARK                         _______ _______ _______ _____ _____    ______ ____
ROOT
ATOM      1  S   UNL     1       4.127  -0.371  -0.518  0.00  0.00    +0.063 S 
ATOM      2  O   UNL     1       5.145   0.062   0.375  0.00  0.00    -0.153 OA
ATOM      3  O   UNL     1       3.760  -1.738  -0.648  0.00  0.00    -0.153 OA
ENDROOT
BRANCH   1   7
ATOM      4  C   UNL     1       0.361   1.878   0.622  0.00  0.00    +0.017 A 
ATOM      5  C   UNL     1       0.332   0.978  -0.425  0.00  0.00    +0.026 A 
ATOM      6  C   UNL     1       1.484   0.287  -0.777  0.00  0.00    +0.051 A 
ATOM      7  C   UNL     1       2.663   0.503  -0.075  0.00  0.00    +0.127 A 
ATOM      8  C   UNL     1       2.686   1.405   0.971  0.00  0.00    +0.045 A 
ATOM      9  C   UNL     1       1.537   2.091   1.320  0.00  0.00    +0.020 A 
ATOM     10 BR   UNL     1       1.572   3.325   2.753  0.00  0.00    -0.050 Br
BRANCH   6  11
ATOM     11  N   UNL     1       1.458  -0.625  -1.836  0.00  0.00    -0.356 N 
ATOM     12  H   UNL     1       0.675  -0.684  -2.405  0.00  0.00    +0.142 HD
ATOM     13  H   UNL     1       2.223  -1.198  -2.001  0.00  0.00    +0.142 HD
ENDBRANCH   6  11
ENDBRANCH   1   7
BRANCH   1  14
ATOM     14  N   UNL     1       4.569   0.147  -2.027  0.00  0.00    -0.174 NA
ATOM     15  C   UNL     1       4.187  -0.618  -3.222  0.00  0.00    +0.126 C 
ATOM     16  C   UNL     1       3.433   0.313  -4.180  0.00  0.00    +0.127 C 
ATOM     17  N   UNL     1       4.214   1.546  -4.348  0.00  0.00    -0.164 NA
ATOM     18  C   UNL     1       4.596   2.311  -3.153  0.00  0.00    +0.127 C 
ATOM     19  C   UNL     1       5.346   1.383  -2.196  0.00  0.00    +0.126 C 
BRANCH  17  20
ATOM     20  S   UNL     1       4.656   2.064  -5.858  0.00  0.00    +0.095 S 
ATOM     21  O   UNL     1       5.803   2.885  -5.686  0.00  0.00    -0.141 OA
ATOM     22  O   UNL     1       4.659   0.917  -6.696  0.00  0.00    -0.141 OA
BRANCH  20  23
ATOM     23  N   UNL     1       3.447   3.051  -6.410  0.00  0.00    -0.193 NA
ATOM     24  H   UNL     1       2.668   3.220  -5.857  0.00  0.00    +0.145 HD
ATOM     25  H   UNL     1       3.517   3.461  -7.287  0.00  0.00    +0.145 HD
ENDBRANCH  20  23
ENDBRANCH  17  20
ENDBRANCH   1  14
TORSDOF 5
