REMARK  Name = ZINC36599119
REMARK  18 active torsions:
REMARK  status: ('A' for Active; 'I' for Inactive)
REMARK    1  A    between atoms: C_1  and  C_2
REMARK    2  A    between atoms: C_5  and  C_7
REMARK    3  A    between atoms: C_7  and  N_8
REMARK    4  A    between atoms: N_8  and  C_9
REMARK    5  A    between atoms: C_9  and  C_11
REMARK    6  A    between atoms: C_9  and  C_20
REMARK    7  A    between atoms: C_12  and  O_19
REMARK    8  A    between atoms: C_14  and  O_18
REMARK    9  A    between atoms: C_16  and  O_17
REMARK   10  A    between atoms: N_22  and  C_23
REMARK   11  A    between atoms: C_23  and  C_24
REMARK   12  A    between atoms: C_23  and  C_25
REMARK   13  A    between atoms: C_23  and  C_26
REMARK   14  A    between atoms: C_26  and  C_27
REMARK   15  A    between atoms: C_27  and  C_28
REMARK   16  A    between atoms: C_27  and  C_29
REMARK   17  A    between atoms: C_27  and  C_30
REMARK   18  A    between atoms: C_31  and  C_33
REMARK                            x       y       z     vdW  Elec       q    Type
REMARK                         _______ _______ _______ _____ _____    ______ ____
ROOT
ATOM      1  C   UNL     1       3.857  -2.291  -3.216  0.00  0.00    +0.200 C 
ENDROOT
BRANCH   1   2
ATOM      2  C   UNL     1       3.399  -1.210  -4.160  0.00  0.00    +0.065 A 
ATOM      3  C   UNL     1       2.683  -0.125  -3.678  0.00  0.00    +0.129 A 
ATOM      4  C   UNL     1       2.262   0.870  -4.547  0.00  0.00    +0.091 A 
ATOM      5  C   UNL     1       2.558   0.780  -5.899  0.00  0.00    +0.124 A 
ATOM      6  C   UNL     1       3.275  -0.304  -6.382  0.00  0.00    +0.091 A 
ATOM      7  C   UNL     1       3.700  -1.297  -5.511  0.00  0.00    +0.129 A 
BRANCH   7   8
ATOM      8  O   UNL     1       4.407  -2.357  -5.984  0.00  0.00    -0.506 OA
ATOM      9  H   UNL     1       3.859  -3.059  -6.360  0.00  0.00    +0.292 HD
ENDBRANCH   7   8
BRANCH   5  10
ATOM     10  O   UNL     1       2.145   1.755  -6.751  0.00  0.00    -0.507 OA
ATOM     11  H   UNL     1       2.780   2.476  -6.862  0.00  0.00    +0.292 HD
ENDBRANCH   5  10
BRANCH   3  12
ATOM     12  O   UNL     1       2.393  -0.037  -2.353  0.00  0.00    -0.506 OA
ATOM     13  H   UNL     1       3.010   0.511  -1.851  0.00  0.00    +0.292 HD
ENDBRANCH   3  12
ENDBRANCH   1   2
BRANCH   1  14
ATOM     14  C   UNL     1       4.237  -3.519  -4.003  0.00  0.00    +0.239 C 
ATOM     15  O   UNL     1       3.503  -4.485  -4.012  0.00  0.00    -0.273 OA
ATOM     16  N   UNL     1       5.391  -3.543  -4.698  0.00  0.00    -0.308 N 
ATOM     17  H   UNL     1       5.981  -2.773  -4.686  0.00  0.00    +0.149 HD
BRANCH  16  18
ATOM     18  C   UNL     1       5.755  -4.732  -5.473  0.00  0.00    +0.030 C 
ATOM     19  C   UNL     1       5.729  -5.961  -4.562  0.00  0.00    +0.031 C 
ATOM     20  C   UNL     1       4.756  -4.922  -6.616  0.00  0.00    +0.031 C 
BRANCH  18  21
ATOM     21  C   UNL     1       7.162  -4.555  -6.049  0.00  0.00    +0.031 C 
BRANCH  21  22
ATOM     22  C   UNL     1       8.142  -4.249  -4.915  0.00  0.00    -0.036 C 
ATOM     23  C   UNL     1       8.303  -5.488  -4.032  0.00  0.00    +0.010 C 
ATOM     24  C   UNL     1       9.500  -3.863  -5.505  0.00  0.00    +0.010 C 
ATOM     25  C   UNL     1       7.604  -3.090  -4.074  0.00  0.00    +0.010 C 
ENDBRANCH  21  22
ENDBRANCH  18  21
ENDBRANCH  16  18
ENDBRANCH   1  14
BRANCH   1  26
ATOM     26  N   UNL     1       2.771  -2.622  -2.290  0.00  0.00    -0.274 N 
ATOM     27  C   UNL     1       1.565  -2.986  -2.768  0.00  0.00    +0.248 C 
ATOM     28  O   UNL     1       0.680  -3.314  -2.001  0.00  0.00    -0.270 OA
BRANCH  27  29
ATOM     29  C   UNL     1       1.317  -2.988  -4.226  0.00  0.00    +0.037 A 
ATOM     30  C   UNL     1       2.380  -2.831  -5.117  0.00  0.00    +0.013 A 
ATOM     31  C   UNL     1       2.142  -2.834  -6.476  0.00  0.00    +0.001 A 
ATOM     32  C   UNL     1       0.854  -2.992  -6.956  0.00  0.00    +0.000 A 
ATOM     33  C   UNL     1      -0.204  -3.147  -6.078  0.00  0.00    +0.001 A 
ATOM     34  C   UNL     1       0.021  -3.152  -4.716  0.00  0.00    +0.013 A 
ENDBRANCH  27  29
BRANCH  26  35
ATOM     35  C   UNL     1       2.996  -2.557  -0.844  0.00  0.00    +0.183 C 
BRANCH  35  40
ATOM     36  C   UNL     1       3.023   2.206   0.816  0.00  0.00    +0.086 C 
ATOM     37  C   UNL     1       2.530   0.844   0.402  0.00  0.00    +0.102 A 
ATOM     38  C   UNL     1       1.249   0.433   0.417  0.00  0.00    +0.045 A 
ATOM     39  C   UNL     1       1.241  -0.902  -0.048  0.00  0.00    +0.046 A 
ATOM     40  C   UNL     1       2.518  -1.227  -0.320  0.00  0.00    +0.122 A 
ATOM     41  O   UNL     1       3.293  -0.164  -0.051  0.00  0.00    -0.463 OA
ENDBRANCH  35  40
ENDBRANCH  26  35
ENDBRANCH   1  26
TORSDOF 12
