REMARK  Name = ZINC31848422
REMARK  7 active torsions:
REMARK  status: ('A' for Active; 'I' for Inactive)
REMARK    1  A    between atoms: C_1  and  C_2
REMARK    2  A    between atoms: C_10  and  C_12
REMARK    3  A    between atoms: C_19  and  C_22
REMARK    4  A    between atoms: C_20  and  N_21
REMARK    5  A    between atoms: C_22  and  C_24
REMARK    6  A    between atoms: C_27  and  O_30
REMARK    7  A    between atoms: O_30  and  C_31
REMARK                            x       y       z     vdW  Elec       q    Type
REMARK                         _______ _______ _______ _____ _____    ______ ____
ROOT
ATOM      1  C   UNL     1      -2.797   3.539   0.030  0.00  0.00    +0.064 A 
ATOM      2  C   UNL     1      -3.449   2.290   0.091  0.00  0.00    +0.059 A 
ATOM      3  C   UNL     1      -4.808   1.948   0.135  0.00  0.00    +0.027 A 
ATOM      4  C   UNL     1      -5.167   0.633   0.191  0.00  0.00    +0.003 A 
ATOM      5  C   UNL     1      -4.171  -0.353   0.204  0.00  0.00    +0.018 A 
ATOM      6  C   UNL     1      -2.866  -0.003   0.161  0.00  0.00    +0.092 A 
ATOM      7  N   UNL     1      -2.497   1.309   0.105  0.00  0.00    -0.311 N 
ATOM      8  C   UNL     1      -1.245   1.903   0.053  0.00  0.00    +0.116 A 
ATOM      9  C   UNL     1      -1.415   3.287   0.012  0.00  0.00    +0.065 A 
ENDROOT
BRANCH   1  19
ATOM     10  C   UNL     1      -4.818  10.666  -0.343  0.00  0.00    +0.044 C 
ATOM     11  C   UNL     1      -4.870   9.167  -0.202  0.00  0.00    -0.048 A 
ATOM     12  C   UNL     1      -6.087   8.537   0.012  0.00  0.00    +0.005 A 
ATOM     13  C   UNL     1      -6.152   7.168   0.143  0.00  0.00    +0.030 A 
ATOM     14  C   UNL     1      -4.983   6.406   0.059  0.00  0.00    +0.089 A 
ATOM     15  C   UNL     1      -3.752   7.050  -0.158  0.00  0.00    +0.067 A 
ATOM     16  C   UNL     1      -3.707   8.430  -0.288  0.00  0.00    +0.031 A 
ATOM     17  N   UNL     1      -2.793   6.052  -0.194  0.00  0.00    -0.338 N 
ATOM     18  H   UNL     1      -1.736   6.310  -0.355  0.00  0.00    +0.167 HD
ATOM     19  C   UNL     1      -3.443   4.859  -0.003  0.00  0.00    +0.143 A 
ATOM     20  N   UNL     1      -4.732   5.075   0.140  0.00  0.00    -0.228 NA
ENDBRANCH   1  19
BRANCH   9  21
ATOM     21  N   UNL     1      -0.406   4.239  -0.040  0.00  0.00    -0.356 N 
ATOM     22  H   UNL     1       0.648   3.923  -0.049  0.00  0.00    +0.142 HD
ATOM     23  H   UNL     1      -0.659   5.309  -0.071  0.00  0.00    +0.142 HD
ENDBRANCH   9  21
BRANCH   8  24
ATOM     24  C   UNL     1      -0.011   1.225   0.050  0.00  0.00    +0.212 C 
ATOM     25  O   UNL     1       0.542   0.971  -1.007  0.00  0.00    -0.285 OA
BRANCH  24  26
ATOM     26  C   UNL     1       0.617   0.825   1.327  0.00  0.00    +0.024 A 
ATOM     27  C   UNL     1       0.045   1.215   2.540  0.00  0.00    +0.015 A 
ATOM     28  C   UNL     1       0.629   0.835   3.728  0.00  0.00    +0.046 A 
ATOM     29  C   UNL     1       1.793   0.076   3.721  0.00  0.00    +0.120 A 
ATOM     30  C   UNL     1       2.369  -0.308   2.516  0.00  0.00    +0.046 A 
ATOM     31  C   UNL     1       1.787   0.062   1.323  0.00  0.00    +0.015 A 
BRANCH  29  32
ATOM     32  O   UNL     1       2.369  -0.291   4.894  0.00  0.00    -0.495 OA
ATOM     33  C   UNL     1       1.725   0.138   6.095  0.00  0.00    +0.277 C 
ENDBRANCH  29  32
ENDBRANCH  24  26
ENDBRANCH   8  24
TORSDOF 5
