REMARK  Name = ZINC47487863
REMARK  8 active torsions:
REMARK  status: ('A' for Active; 'I' for Inactive)
REMARK    1  A    between atoms: C_1  and  C_2
REMARK    2  A    between atoms: C_2  and  C_3
REMARK    3  A    between atoms: N_5  and  C_6
REMARK    4  A    between atoms: C_10  and  N_12
REMARK    5  A    between atoms: N_15  and  C_16
REMARK    6  A    between atoms: C_16  and  C_17
REMARK    7  A    between atoms: C_22  and  O_23
REMARK    8  A    between atoms: O_23  and  C_24
REMARK                            x       y       z     vdW  Elec       q    Type
REMARK                         _______ _______ _______ _____ _____    ______ ____
ROOT
ATOM      1  N   UNL     1       2.561  -5.368   4.290  0.00  0.00    -0.269 N 
ATOM      2  C   UNL     1       3.063  -5.768   5.475  0.00  0.00    +0.304 C 
ATOM      3  O   UNL     1       3.415  -4.942   6.295  0.00  0.00    -0.252 OA
ATOM      4  N   UNL     1       3.176  -7.082   5.750  0.00  0.00    -0.295 N 
ATOM      5  H   UNL     1       2.342  -6.024   3.610  0.00  0.00    +0.156 HD
ATOM      6  H   UNL     1       2.896  -7.740   5.095  0.00  0.00    +0.151 HD
ENDROOT
BRANCH   1  11
ATOM      7  C   UNL     1       1.073  -2.245   3.030  0.00  0.00    +0.035 A 
ATOM      8  C   UNL     1       1.956  -1.308   3.551  0.00  0.00    +0.023 A 
ATOM      9  C   UNL     1       3.032  -1.719   4.313  0.00  0.00    +0.004 A 
ATOM     10  C   UNL     1       3.234  -3.064   4.559  0.00  0.00    +0.023 A 
ATOM     11  C   UNL     1       2.355  -4.006   4.040  0.00  0.00    +0.037 A 
ATOM     12  C   UNL     1       1.270  -3.595   3.279  0.00  0.00    +0.046 A 
BRANCH   7  15
ATOM     13  C   UNL     1      -1.189  -2.487   2.335  0.00  0.00    +0.217 C 
ATOM     14  O   UNL     1      -1.277  -3.490   3.010  0.00  0.00    -0.275 OA
ATOM     15  N   UNL     1      -0.016  -1.827   2.258  0.00  0.00    -0.285 N 
ATOM     16  H   UNL     1       0.072  -1.063   1.667  0.00  0.00    +0.155 HD
BRANCH  13  18
ATOM     17  C   UNL     1      -3.583  -2.901   1.840  0.00  0.00    +0.013 C 
ATOM     18  C   UNL     1      -2.392  -1.977   1.583  0.00  0.00    +0.093 C 
ENDBRANCH  13  18
ENDBRANCH   7  15
ENDBRANCH   1  11
BRANCH   4  19
ATOM     19  C   UNL     1       3.722  -7.517   7.037  0.00  0.00    +0.144 C 
BRANCH  19  20
ATOM     20  C   UNL     1       3.741  -9.023   7.093  0.00  0.00    +0.011 A 
ATOM     21  C   UNL     1       2.744  -9.703   7.765  0.00  0.00    +0.009 A 
ATOM     22  C   UNL     1       2.761 -11.084   7.816  0.00  0.00    +0.001 A 
ATOM     23  C   UNL     1       3.775 -11.789   7.195  0.00  0.00    +0.004 A 
ATOM     24  C   UNL     1       4.774 -11.114   6.521  0.00  0.00    +0.046 A 
ATOM     25  C   UNL     1       4.757  -9.728   6.464  0.00  0.00    +0.126 A 
BRANCH  25  26
ATOM     26  O   UNL     1       5.736  -9.062   5.796  0.00  0.00    -0.488 OA
BRANCH  26  27
ATOM     27  C   UNL     1       6.686  -9.853   5.079  0.00  0.00    +0.173 C 
ATOM     28  C   UNL     1       7.850 -10.252   6.009  0.00  0.00    +0.044 C 
ATOM     29  C   UNL     1       9.101 -10.191   5.098  0.00  0.00    +0.004 C 
ATOM     30  C   UNL     1       8.816  -8.956   4.208  0.00  0.00    +0.004 C 
ATOM     31  C   UNL     1       7.300  -9.028   3.934  0.00  0.00    +0.044 C 
ENDBRANCH  26  27
ENDBRANCH  25  26
ENDBRANCH  19  20
ENDBRANCH   4  19
TORSDOF 7
