REMARK  Name = ZINC20477901
REMARK  8 active torsions:
REMARK  status: ('A' for Active; 'I' for Inactive)
REMARK    1  A    between atoms: C_1  and  C_2
REMARK    2  A    between atoms: C_5  and  S_8
REMARK    3  A    between atoms: S_8  and  C_9
REMARK    4  A    between atoms: C_9  and  C_10
REMARK    5  A    between atoms: C_15  and  N_17
REMARK    6  A    between atoms: N_20  and  C_21
REMARK    7  A    between atoms: C_24  and  C_28
REMARK    8  A    between atoms: C_26  and  C_27
REMARK                            x       y       z     vdW  Elec       q    Type
REMARK                         _______ _______ _______ _____ _____    ______ ____
ROOT
ATOM      1  C   UNL     1      -0.389  -6.580   3.152  0.00  0.00    +0.034 A 
ATOM      2  C   UNL     1       0.597  -7.254   3.782  0.00  0.00    +0.094 A 
ATOM      3  C   UNL     1       0.624  -8.671   3.703  0.00  0.00    +0.275 A 
ATOM      4  O   UNL     1       1.507  -9.300   4.266  0.00  0.00    -0.266 OA
ATOM      5  N   UNL     1      -0.323  -9.313   3.010  0.00  0.00    -0.173 NA
ATOM      6  C   UNL     1      -1.285  -8.640   2.397  0.00  0.00    +0.234 A 
ATOM      7  N   UNL     1      -1.339  -7.276   2.460  0.00  0.00    -0.327 N 
ATOM      8  H   UNL     1      -2.053  -6.800   2.009  0.00  0.00    +0.169 HD
ENDROOT
BRANCH   6   9
ATOM      9  N   UNL     1      -2.224  -9.308   1.708  0.00  0.00    -0.179 NA
ATOM     10  C   UNL     1      -2.113 -10.614   1.533  0.00  0.00    +0.203 C 
ATOM     11  N   UNL     1      -0.972 -11.259   1.918  0.00  0.00    -0.369 N 
ATOM     12  N   UNL     1      -3.139 -11.318   0.967  0.00  0.00    -0.326 N 
ATOM     13  H   UNL     1      -1.023 -12.154   2.288  0.00  0.00    +0.159 HD
ATOM     14  H   UNL     1      -3.024 -12.257   0.755  0.00  0.00    +0.169 HD
ATOM     15  H   UNL     1      -0.112 -10.822   1.821  0.00  0.00    +0.159 HD
BRANCH  12  16
ATOM     16  C   UNL     1      -4.355 -10.683   0.693  0.00  0.00    +0.045 A 
ATOM     17  C   UNL     1      -4.726  -9.552   1.408  0.00  0.00    +0.026 A 
ATOM     18  C   UNL     1      -5.927  -8.927   1.135  0.00  0.00    +0.005 A 
ATOM     19  C   UNL     1      -6.760  -9.427   0.151  0.00  0.00    -0.050 A 
ATOM     20  C   UNL     1      -6.394 -10.553  -0.563  0.00  0.00    +0.008 A 
ATOM     21  C   UNL     1      -5.191 -11.179  -0.299  0.00  0.00    -0.027 A 
ATOM     22  C   UNL     1      -4.789 -12.403  -1.081  0.00  0.00    +0.046 C 
ATOM     23  C   UNL     1      -8.070  -8.744  -0.144  0.00  0.00    +0.044 C 
ENDBRANCH  12  16
ENDBRANCH   6   9
BRANCH   1  24
ATOM     24  C   UNL     1      -0.444  -5.076   3.217  0.00  0.00    +0.127 C 
BRANCH  24  25
ATOM     25  S   UNL     1       0.094  -4.382   1.629  0.00  0.00    -0.119 S 
BRANCH  25  30
ATOM     26  C   UNL     1      -0.317   1.587   2.430  0.00  0.00    +0.044 C 
ATOM     27  C   UNL     1      -0.214   0.097   2.231  0.00  0.00    -0.050 A 
ATOM     28  C   UNL     1       0.220  -0.409   1.018  0.00  0.00    +0.004 A 
ATOM     29  C   UNL     1       0.315  -1.773   0.832  0.00  0.00    +0.015 A 
ATOM     30  C   UNL     1      -0.026  -2.640   1.863  0.00  0.00    +0.008 A 
ATOM     31  C   UNL     1      -0.461  -2.128   3.080  0.00  0.00    +0.015 A 
ATOM     32  C   UNL     1      -0.548  -0.762   3.262  0.00  0.00    +0.004 A 
ENDBRANCH  25  30
ENDBRANCH  24  25
ENDBRANCH   1  24
TORSDOF 5
