REMARK  Name = ZINC24709871
REMARK  6 active torsions:
REMARK  status: ('A' for Active; 'I' for Inactive)
REMARK    1  A    between atoms: C_1  and  C_2
REMARK    2  A    between atoms: N_10  and  N_14
REMARK    3  A    between atoms: C_15  and  C_17
REMARK    4  A    between atoms: C_17  and  N_18
REMARK    5  A    between atoms: C_21  and  C_25
REMARK    6  A    between atoms: C_21  and  C_26
REMARK                            x       y       z     vdW  Elec       q    Type
REMARK                         _______ _______ _______ _____ _____    ______ ____
ROOT
ATOM      1  N   UNL     1      -6.554   5.370  -3.829  0.00  0.00    -0.222 N 
ATOM      2  C   UNL     1      -5.691   5.182  -2.811  0.00  0.00    +0.248 C 
ATOM      3  O   UNL     1      -6.083   5.239  -1.665  0.00  0.00    -0.273 OA
ATOM      4  H   UNL     1      -6.198   5.319  -4.869  0.00  0.00    +0.174 HD
ENDROOT
BRANCH   1  14
ATOM      5  C   UNL     1     -14.314   6.315  -2.482  0.00  0.00    +0.007 C 
ATOM      6  C   UNL     1     -13.049   5.561  -2.896  0.00  0.00    -0.014 C 
ATOM      7  C   UNL     1     -12.074   5.515  -1.717  0.00  0.00    +0.006 C 
ATOM      8  C   UNL     1     -10.813   4.751  -2.128  0.00  0.00    +0.035 C 
ATOM      9  C   UNL     1     -10.163   5.445  -3.320  0.00  0.00    +0.114 C 
ATOM     10  C   UNL     1     -11.131   5.517  -4.497  0.00  0.00    +0.035 C 
ATOM     11  C   UNL     1     -12.391   6.278  -4.076  0.00  0.00    +0.006 C 
ATOM     12  C   UNL     1      -8.896   4.729  -3.727  0.00  0.00    +0.263 C 
ATOM     13  O   UNL     1      -8.792   3.585  -4.117  0.00  0.00    -0.271 OA
ATOM     14  N   UNL     1      -7.905   5.629  -3.563  0.00  0.00    -0.137 N 
ATOM     15  C   UNL     1      -8.373   6.803  -3.121  0.00  0.00    +0.326 C 
ATOM     16  O   UNL     1      -7.671   7.770  -2.901  0.00  0.00    -0.251 OA
ATOM     17  N   UNL     1      -9.708   6.790  -2.946  0.00  0.00    -0.284 N 
ATOM     18  H   UNL     1     -10.435   7.542  -2.605  0.00  0.00    +0.151 HD
ENDBRANCH   1  14
BRANCH   2  19
ATOM     19  C   UNL     1      -4.237   4.903  -3.097  0.00  0.00    +0.215 C 
BRANCH  19  20
ATOM     20  N   UNL     1      -3.514   4.739  -1.834  0.00  0.00    -0.215 N 
ATOM     21  C   UNL     1      -3.354   3.560  -1.201  0.00  0.00    +0.251 C 
ATOM     22  O   UNL     1      -3.766   2.477  -1.556  0.00  0.00    -0.272 OA
ATOM     23  C   UNL     1      -2.553   3.871   0.048  0.00  0.00    +0.136 C 
ATOM     24  N   UNL     1      -2.333   5.325  -0.030  0.00  0.00    -0.281 N 
ATOM     25  C   UNL     1      -2.931   5.741  -1.166  0.00  0.00    +0.310 C 
ATOM     26  O   UNL     1      -2.941   6.898  -1.539  0.00  0.00    -0.252 OA
ATOM     27  C   UNL     1      -3.352   3.514   1.303  0.00  0.00    +0.047 C 
ATOM     28  H   UNL     1      -1.770   5.840   0.762  0.00  0.00    +0.152 HD
BRANCH  23  29
ATOM     29  C   UNL     1      -1.238   3.135   0.031  0.00  0.00    +0.003 A 
ATOM     30  C   UNL     1      -0.050   3.842   0.024  0.00  0.00    +0.009 A 
ATOM     31  C   UNL     1       1.156   3.167   0.008  0.00  0.00    +0.020 A 
ATOM     32  C   UNL     1       1.175   1.784   0.000  0.00  0.00    +0.042 A 
ATOM     33  C   UNL     1      -0.013   1.076   0.008  0.00  0.00    +0.040 A 
ATOM     34  C   UNL     1      -1.220   1.752   0.017  0.00  0.00    +0.048 A 
ATOM     35 CL   UNL     1      -2.712   0.864   0.019  0.00  0.00    -0.083 Cl
ATOM     36 CL   UNL     1       2.691   0.937  -0.018  0.00  0.00    -0.083 Cl
ENDBRANCH  23  29
ENDBRANCH  19  20
ENDBRANCH   2  19
TORSDOF 4
