REMARK  Name = ZINC59456844
REMARK  6 active torsions:
REMARK  status: ('A' for Active; 'I' for Inactive)
REMARK    1  A    between atoms: C_15  and  S_18
REMARK    2  A    between atoms: S_18  and  C_19
REMARK    3  A    between atoms: C_19  and  C_20
REMARK    4  A    between atoms: N_22  and  C_23
REMARK    5  A    between atoms: C_26  and  S_29
REMARK    6  A    between atoms: S_29  and  N_32
REMARK                            x       y       z     vdW  Elec       q    Type
REMARK                         _______ _______ _______ _____ _____    ______ ____
ROOT
ATOM      1  S   UNL     1      -0.459  -6.347  -0.033  0.00  0.00    -0.075 S 
ENDROOT
BRANCH   1  16
ATOM      2  C   UNL     1      -0.015   1.375   0.019  0.00  0.00    +0.001 A 
ATOM      3  C   UNL     1       1.174   2.086   0.004  0.00  0.00    +0.002 A 
ATOM      4  C   UNL     1       2.385   1.427  -0.021  0.00  0.00    +0.026 A 
ATOM      5  C   UNL     1       2.425   0.036  -0.032  0.00  0.00    +0.050 A 
ATOM      6  C   UNL     1       1.220  -0.681  -0.017  0.00  0.00    +0.029 A 
ATOM      7  C   UNL     1       0.003  -0.004   0.009  0.00  0.00    +0.012 A 
ATOM      8  C   UNL     1       1.578  -2.112  -0.034  0.00  0.00    +0.136 A 
ATOM      9  C   UNL     1       3.046  -2.153  -0.060  0.00  0.00    +0.163 A 
ATOM     10  N   UNL     1       3.492  -0.852  -0.058  0.00  0.00    -0.338 N 
ATOM     11  H   UNL     1       4.425  -0.589  -0.072  0.00  0.00    +0.167 HD
ATOM     12  N   UNL     1       3.665  -3.316  -0.080  0.00  0.00    -0.190 NA
ATOM     13  C   UNL     1       2.969  -4.459  -0.077  0.00  0.00    +0.275 A 
ATOM     14  N   UNL     1       3.333  -5.732  -0.093  0.00  0.00    -0.106 NA
ATOM     15  N   UNL     1       2.289  -6.483  -0.082  0.00  0.00    -0.119 NA
ATOM     16  C   UNL     1       1.199  -5.751  -0.057  0.00  0.00    +0.214 A 
ATOM     17  N   UNL     1       1.589  -4.445  -0.053  0.00  0.00    -0.170 N 
ATOM     18  N   UNL     1       0.894  -3.230  -0.031  0.00  0.00    -0.158 NA
ENDBRANCH   1  16
BRANCH   1  19
ATOM     19  C   UNL     1      -0.277  -8.151  -0.050  0.00  0.00    +0.173 C 
BRANCH  19  20
ATOM     20  C   UNL     1      -1.640  -8.794  -0.032  0.00  0.00    +0.227 C 
ATOM     21  O   UNL     1      -2.636  -8.102  -0.009  0.00  0.00    -0.275 OA
ATOM     22  N   UNL     1      -1.752 -10.137  -0.040  0.00  0.00    -0.285 N 
ATOM     23  H   UNL     1      -0.960 -10.689  -0.126  0.00  0.00    +0.155 HD
BRANCH  22  24
ATOM     24  C   UNL     1      -3.013 -10.734   0.074  0.00  0.00    +0.034 A 
ATOM     25  C   UNL     1      -3.156 -11.928   0.770  0.00  0.00    +0.025 A 
ATOM     26  C   UNL     1      -4.401 -12.515   0.881  0.00  0.00    +0.030 A 
ATOM     27  C   UNL     1      -5.504 -11.916   0.301  0.00  0.00    +0.105 A 
ATOM     28  C   UNL     1      -5.365 -10.728  -0.393  0.00  0.00    +0.030 A 
ATOM     29  C   UNL     1      -4.123 -10.132  -0.502  0.00  0.00    +0.025 A 
BRANCH  27  30
ATOM     30  S   UNL     1      -7.091 -12.668   0.445  0.00  0.00    +0.056 S 
ATOM     31  O   UNL     1      -7.866 -12.195  -0.647  0.00  0.00    -0.153 OA
ATOM     32  O   UNL     1      -6.865 -14.052   0.676  0.00  0.00    -0.153 OA
BRANCH  30  33
ATOM     33  N   UNL     1      -7.794 -12.068   1.819  0.00  0.00    -0.204 NA
ATOM     34  H   UNL     1      -7.319 -11.423   2.365  0.00  0.00    +0.144 HD
ATOM     35  H   UNL     1      -8.682 -12.362   2.078  0.00  0.00    +0.144 HD
ENDBRANCH  30  33
ENDBRANCH  27  30
ENDBRANCH  22  24
ENDBRANCH  19  20
ENDBRANCH   1  19
TORSDOF 6
