REMARK  Name = ZINC39217903
REMARK  4 active torsions:
REMARK  status: ('A' for Active; 'I' for Inactive)
REMARK    1  A    between atoms: C_1  and  S_2
REMARK    2  A    between atoms: S_2  and  C_3
REMARK    3  A    between atoms: C_12  and  N_26
REMARK    4  A    between atoms: C_13  and  C_24
REMARK                            x       y       z     vdW  Elec       q    Type
REMARK                         _______ _______ _______ _____ _____    ______ ____
ROOT
ATOM      1  C   UNL     1       0.848  -0.411  -1.489  0.00  0.00    +0.182 C 
ATOM      2  N   UNL     1       1.285   0.569  -2.269  0.00  0.00    -0.154 NA
ATOM      3  C   UNL     1       1.901   0.330  -3.416  0.00  0.00    +0.250 C 
ATOM      4  O   UNL     1       2.297   1.266  -4.082  0.00  0.00    -0.273 OA
ATOM      5  C   UNL     1       2.124  -1.068  -3.913  0.00  0.00    +0.167 C 
ATOM      6  C   UNL     1       1.629  -2.069  -2.895  0.00  0.00    +0.137 C 
ATOM      7  N   UNL     1       1.037  -1.700  -1.799  0.00  0.00    -0.211 NA
ATOM      8  N   UNL     1       1.852  -3.391  -3.169  0.00  0.00    -0.185 NA
ATOM      9  C   UNL     1       3.050  -3.727  -3.764  0.00  0.00    +0.106 C 
ATOM     10  C   UNL     1       3.889  -2.796  -4.233  0.00  0.00    +0.085 C 
ATOM     11  C   UNL     1       3.614  -1.325  -4.136  0.00  0.00    +0.129 C 
ATOM     12  C   UNL     1       4.434  -0.691  -3.057  0.00  0.00    -0.005 A 
ATOM     13  C   UNL     1       4.473  -0.901  -1.696  0.00  0.00    +0.007 A 
ATOM     14  C   UNL     1       5.370  -0.131  -0.963  0.00  0.00    +0.000 A 
ATOM     15  C   UNL     1       6.183   0.802  -1.575  0.00  0.00    +0.002 A 
ATOM     16  C   UNL     1       6.149   1.020  -2.943  0.00  0.00    +0.023 A 
ATOM     17  C   UNL     1       5.253   0.253  -3.690  0.00  0.00    +0.038 A 
ATOM     18  N   UNL     1       5.014   0.261  -5.052  0.00  0.00    -0.284 N 
ATOM     19  C   UNL     1       4.067  -0.632  -5.405  0.00  0.00    +0.234 C 
ATOM     20  O   UNL     1       3.656  -0.843  -6.527  0.00  0.00    -0.274 OA
ATOM     21  H   UNL     1       5.472   0.842  -5.680  0.00  0.00    +0.155 HD
ENDROOT
BRANCH   9  22
ATOM     22  N   UNL     1       3.396  -5.076  -3.882  0.00  0.00    -0.403 NA
ATOM     23  H   UNL     1       2.665  -5.647  -3.485  0.00  0.00    +0.122 HD
ATOM     24  H   UNL     1       3.513  -5.309  -4.857  0.00  0.00    +0.122 HD
ATOM     25  H   UNL     1       4.260  -5.245  -3.390  0.00  0.00    +0.122 HD
ENDBRANCH   9  22
BRANCH   1  27
ATOM     26  C   UNL     1      -0.022   1.810   0.012  0.00  0.00    +0.093 C 
ATOM     27  S   UNL     1       0.002  -0.004   0.002  0.00  0.00    -0.092 S 
ENDBRANCH   1  27
BRANCH  10  28
ATOM     28  C   UNL     1       5.107  -3.224  -4.851  0.00  0.00    +0.099 C 
ATOM     29  N   UNL     1       6.074  -3.564  -5.342  0.00  0.00    -0.191 NA
ENDBRANCH  10  28
TORSDOF 3
