REMARK  Name = ZINC40556209
REMARK  3 active torsions:
REMARK  status: ('A' for Active; 'I' for Inactive)
REMARK    1  A    between atoms: C_4  and  N_7
REMARK    2  A    between atoms: C_8  and  C_10
REMARK    3  A    between atoms: N_18  and  C_19
REMARK                            x       y       z     vdW  Elec       q    Type
REMARK                         _______ _______ _______ _____ _____    ______ ____
ROOT
ATOM      1  C   UNL     1       4.962  -2.721   0.153  0.00  0.00    +0.174 C 
ATOM      2  C   UNL     1       5.808  -2.371  -1.096  0.00  0.00    +0.102 C 
ATOM      3  S   UNL     1       6.607  -4.009  -1.409  0.00  0.00    -0.139 S 
ATOM      4  C   UNL     1       5.240  -5.041  -0.718  0.00  0.00    +0.179 C 
ATOM      5  N   UNL     1       4.695  -4.140   0.316  0.00  0.00    -0.264 N 
ATOM      6  C   UNL     1       3.987  -4.613   1.360  0.00  0.00    +0.304 C 
ATOM      7  O   UNL     1       3.552  -3.845   2.197  0.00  0.00    -0.253 OA
ATOM      8  N   UNL     1       3.760  -5.936   1.477  0.00  0.00    -0.296 N 
ATOM      9  H   UNL     1       4.107  -6.548   0.809  0.00  0.00    +0.151 HD
ENDROOT
BRANCH   8  10
ATOM     10  C   UNL     1       2.990  -6.450   2.612  0.00  0.00    +0.074 C 
ATOM     11  C   UNL     1       1.496  -6.372   2.293  0.00  0.00    +0.022 C 
ATOM     12  C   UNL     1       0.692  -6.908   3.478  0.00  0.00    +0.002 C 
ATOM     13  C   UNL     1       1.081  -8.364   3.741  0.00  0.00    +0.000 C 
ATOM     14  C   UNL     1       2.575  -8.443   4.061  0.00  0.00    +0.002 C 
ATOM     15  C   UNL     1       3.379  -7.906   2.875  0.00  0.00    +0.022 C 
ENDBRANCH   8  10
BRANCH   1  17
ATOM     16  N   UNL     1       3.622  -0.651  -0.037  0.00  0.00    -0.284 N 
ATOM     17  C   UNL     1       3.645  -1.995   0.057  0.00  0.00    +0.239 C 
ATOM     18  O   UNL     1       2.606  -2.620   0.064  0.00  0.00    -0.273 OA
ATOM     19  H   UNL     1       4.452  -0.155  -0.111  0.00  0.00    +0.155 HD
BRANCH  16  23
ATOM     20  C   UNL     1      -0.018   1.377  -0.014  0.00  0.00    +0.000 A 
ATOM     21  C   UNL     1       1.092   1.944   0.586  0.00  0.00    +0.002 A 
ATOM     22  C   UNL     1       2.300   1.274   0.580  0.00  0.00    +0.023 A 
ATOM     23  C   UNL     1       2.399   0.030  -0.029  0.00  0.00    +0.033 A 
ATOM     24  C   UNL     1       1.283  -0.536  -0.631  0.00  0.00    +0.023 A 
ATOM     25  C   UNL     1       0.078   0.139  -0.622  0.00  0.00    +0.002 A 
ENDBRANCH  16  23
ENDBRANCH   1  17
TORSDOF 3
