REMARK  Name = ZINC36589433
REMARK  21 active torsions:
REMARK  status: ('A' for Active; 'I' for Inactive)
REMARK    1  A    between atoms: C_1  and  C_2
REMARK    2  A    between atoms: C_2  and  C_3
REMARK    3  A    between atoms: C_3  and  C_4
REMARK    4  A    between atoms: N_6  and  C_7
REMARK    5  A    between atoms: N_6  and  C_29
REMARK    6  A    between atoms: C_7  and  C_9
REMARK    7  A    between atoms: C_7  and  C_18
REMARK    8  A    between atoms: C_10  and  O_17
REMARK    9  A    between atoms: C_12  and  O_16
REMARK   10  A    between atoms: C_14  and  O_15
REMARK   11  A    between atoms: N_20  and  C_21
REMARK   12  A    between atoms: C_21  and  C_22
REMARK   13  A    between atoms: C_21  and  C_23
REMARK   14  A    between atoms: C_21  and  C_24
REMARK   15  A    between atoms: C_24  and  C_25
REMARK   16  A    between atoms: C_25  and  C_26
REMARK   17  A    between atoms: C_25  and  C_27
REMARK   18  A    between atoms: C_25  and  C_28
REMARK   19  A    between atoms: C_29  and  C_30
REMARK   20  A    between atoms: C_29  and  C_31
REMARK   21  A    between atoms: C_29  and  C_32
REMARK                            x       y       z     vdW  Elec       q    Type
REMARK                         _______ _______ _______ _____ _____    ______ ____
ROOT
ATOM      1  C   UNL     1       1.435  -3.836  -4.742  0.00  0.00    +0.200 C 
ENDROOT
BRANCH   1   2
ATOM      2  C   UNL     1       2.745  -3.127  -4.517  0.00  0.00    +0.065 A 
ATOM      3  C   UNL     1       3.142  -2.795  -3.230  0.00  0.00    +0.129 A 
ATOM      4  C   UNL     1       4.348  -2.144  -3.023  0.00  0.00    +0.091 A 
ATOM      5  C   UNL     1       5.158  -1.824  -4.102  0.00  0.00    +0.124 A 
ATOM      6  C   UNL     1       4.762  -2.157  -5.389  0.00  0.00    +0.091 A 
ATOM      7  C   UNL     1       3.558  -2.813  -5.596  0.00  0.00    +0.129 A 
BRANCH   7   8
ATOM      8  O   UNL     1       3.172  -3.143  -6.856  0.00  0.00    -0.506 OA
ATOM      9  H   UNL     1       2.653  -2.459  -7.301  0.00  0.00    +0.292 HD
ENDBRANCH   7   8
BRANCH   5  10
ATOM     10  O   UNL     1       6.340  -1.185  -3.899  0.00  0.00    -0.507 OA
ATOM     11  H   UNL     1       7.091  -1.779  -3.764  0.00  0.00    +0.292 HD
ENDBRANCH   5  10
BRANCH   3  12
ATOM     12  O   UNL     1       2.348  -3.108  -2.173  0.00  0.00    -0.506 OA
ATOM     13  H   UNL     1       2.582  -3.939  -1.737  0.00  0.00    +0.292 HD
ENDBRANCH   3  12
ENDBRANCH   1   2
BRANCH   1  14
ATOM     14  C   UNL     1       0.301  -2.947  -4.300  0.00  0.00    +0.239 C 
ATOM     15  O   UNL     1       0.012  -2.873  -3.124  0.00  0.00    -0.273 OA
ATOM     16  N   UNL     1      -0.392  -2.235  -5.210  0.00  0.00    -0.308 N 
ATOM     17  H   UNL     1      -0.161  -2.294  -6.150  0.00  0.00    +0.149 HD
BRANCH  16  18
ATOM     18  C   UNL     1      -1.494  -1.371  -4.780  0.00  0.00    +0.030 C 
ATOM     19  C   UNL     1      -2.744  -2.220  -4.538  0.00  0.00    +0.031 C 
ATOM     20  C   UNL     1      -1.105  -0.655  -3.485  0.00  0.00    +0.031 C 
BRANCH  18  21
ATOM     21  C   UNL     1      -1.784  -0.335  -5.868  0.00  0.00    +0.031 C 
BRANCH  21  22
ATOM     22  C   UNL     1      -0.643   0.683  -5.920  0.00  0.00    -0.036 C 
ATOM     23  C   UNL     1       0.686  -0.028  -5.658  0.00  0.00    +0.010 C 
ATOM     24  C   UNL     1      -0.607   1.338  -7.302  0.00  0.00    +0.010 C 
ATOM     25  C   UNL     1      -0.867   1.756  -4.853  0.00  0.00    +0.010 C 
ENDBRANCH  21  22
ENDBRANCH  18  21
ENDBRANCH  16  18
ENDBRANCH   1  14
BRANCH   1  28
ATOM     26  C   UNL     1       0.272  -5.481  -3.372  0.00  0.00    +0.217 C 
ATOM     27  O   UNL     1       0.258  -6.498  -2.711  0.00  0.00    -0.276 OA
ATOM     28  N   UNL     1       1.412  -5.079  -3.967  0.00  0.00    -0.281 N 
BRANCH  28  29
ATOM     29  C   UNL     1       2.628  -5.885  -3.840  0.00  0.00    +0.030 C 
ATOM     30  C   UNL     1       2.325  -7.331  -4.239  0.00  0.00    +0.031 C 
ATOM     31  C   UNL     1       3.713  -5.320  -4.759  0.00  0.00    +0.031 C 
ATOM     32  C   UNL     1       3.116  -5.847  -2.391  0.00  0.00    +0.031 C 
ENDBRANCH  28  29
BRANCH  26  33
ATOM     33  C   UNL     1      -0.987  -4.667  -3.526  0.00  0.00    +0.096 C 
BRANCH  33  35
ATOM     34  C   UNL     1      -3.475  -4.775  -3.732  0.00  0.00    +0.004 C 
ATOM     35  C   UNL     1      -2.197  -5.602  -3.575  0.00  0.00    +0.006 C 
ENDBRANCH  33  35
ENDBRANCH  26  33
ENDBRANCH   1  28
TORSDOF 12
