REMARK  Name = ZINC17175279
REMARK  5 active torsions:
REMARK  status: ('A' for Active; 'I' for Inactive)
REMARK    1  A    between atoms: C_1  and  O_17
REMARK    2  A    between atoms: C_5  and  O_15
REMARK    3  A    between atoms: C_7  and  O_14
REMARK    4  A    between atoms: C_9  and  O_13
REMARK    5  A    between atoms: C_10  and  O_12
REMARK                            x       y       z     vdW  Elec       q    Type
REMARK                         _______ _______ _______ _____ _____    ______ ____
ROOT
ATOM      1  C   UNL     1      -0.013   1.086   0.008  0.00  0.00    +0.166 C 
ATOM      2  C   UNL     1      -0.729   1.579   1.267  0.00  0.00    +0.142 C 
ATOM      3  C   UNL     1       0.011   1.072   2.506  0.00  0.00    +0.166 C 
ATOM      4  C   UNL     1       1.446   1.602   2.495  0.00  0.00    +0.175 C 
ATOM      5  C   UNL     1       2.163   1.109   1.237  0.00  0.00    +0.176 C 
ATOM      6  C   UNL     1       1.423   1.615  -0.003  0.00  0.00    +0.175 C 
ATOM      7 CL   UNL     1      -0.753   3.382   1.277  0.00  0.00    -0.116 Cl
ENDROOT
BRANCH   6   8
ATOM      8  O   UNL     1       2.091   1.155  -1.179  0.00  0.00    -0.387 OA
ATOM      9  H   UNL     1       1.676   1.439  -2.004  0.00  0.00    +0.210 HD
ENDBRANCH   6   8
BRANCH   5  10
ATOM     10  O   UNL     1       3.503   1.603   1.226  0.00  0.00    -0.386 OA
ATOM     11  H   UNL     1       4.018   1.329   0.455  0.00  0.00    +0.210 HD
ENDBRANCH   5  10
BRANCH   4  12
ATOM     12  O   UNL     1       2.138   1.129   3.653  0.00  0.00    -0.387 OA
ATOM     13  H   UNL     1       1.738   1.404   4.490  0.00  0.00    +0.210 HD
ENDBRANCH   4  12
BRANCH   3  14
ATOM     14  O   UNL     1      -0.658   1.533   3.682  0.00  0.00    -0.388 OA
ATOM     15  H   UNL     1      -1.575   1.235   3.755  0.00  0.00    +0.210 HD
ENDBRANCH   3  14
BRANCH   1  16
ATOM     16  O   UNL     1      -0.704   1.559  -1.150  0.00  0.00    -0.388 OA
ATOM     17  H   UNL     1      -1.622   1.262  -1.209  0.00  0.00    +0.210 HD
ENDBRANCH   1  16
TORSDOF 5
