REMARK  Name = ZINC20159611
REMARK  7 active torsions:
REMARK  status: ('A' for Active; 'I' for Inactive)
REMARK    1  A    between atoms: C_1  and  C_2
REMARK    2  A    between atoms: C_2  and  C_16
REMARK    3  A    between atoms: N_3  and  N_4
REMARK    4  A    between atoms: N_4  and  S_5
REMARK    5  A    between atoms: S_5  and  C_8
REMARK    6  A    between atoms: C_18  and  O_23
REMARK    7  A    between atoms: C_20  and  O_22
REMARK                            x       y       z     vdW  Elec       q    Type
REMARK                         _______ _______ _______ _____ _____    ______ ____
ROOT
ATOM      1  C   UNL     1      -1.385   6.063   0.047  0.00  0.00    +0.068 C 
ATOM      2  C   UNL     1      -0.070   5.327   0.031  0.00  0.00    +0.065 C 
ATOM      3  N   UNL     1       1.044   5.991   0.025  0.00  0.00    -0.171 NA
ENDROOT
BRANCH   2   4
ATOM      4  C   UNL     1      -0.050   3.852   0.023  0.00  0.00    +0.004 A 
ATOM      5  C   UNL     1       1.167   3.168   0.008  0.00  0.00    +0.055 A 
ATOM      6  C   UNL     1       1.181   1.784   0.000  0.00  0.00    +0.121 A 
ATOM      7  C   UNL     1      -0.013   1.076   0.008  0.00  0.00    +0.090 A 
ATOM      8  C   UNL     1      -1.225   1.751   0.017  0.00  0.00    +0.121 A 
ATOM      9  C   UNL     1      -1.248   3.136   0.030  0.00  0.00    +0.055 A 
BRANCH   8  10
ATOM     10  O   UNL     1      -2.390   1.052   0.019  0.00  0.00    -0.507 OA
ATOM     11  H   UNL     1      -3.352   1.587   0.027  0.00  0.00    +0.292 HD
ENDBRANCH   8  10
BRANCH   6  12
ATOM     12  O   UNL     1       2.365   1.117  -0.014  0.00  0.00    -0.507 OA
ATOM     13  H   UNL     1       2.377   0.017  -0.020  0.00  0.00    +0.292 HD
ENDBRANCH   6  12
ENDBRANCH   2   4
BRANCH   3  14
ATOM     14  N   UNL     1       1.025   7.392   0.033  0.00  0.00    -0.136 N 
ATOM     15  H   UNL     1       0.179   7.865   0.044  0.00  0.00    +0.197 HD
BRANCH  14  16
ATOM     16  S   UNL     1       2.448   8.239   0.025  0.00  0.00    +0.088 S 
ATOM     17  O   UNL     1       2.103   9.611  -0.109  0.00  0.00    -0.149 OA
ATOM     18  O   UNL     1       3.218   7.751   1.115  0.00  0.00    -0.149 OA
BRANCH  16  19
ATOM     19  C   UNL     1       3.313   7.791  -1.443  0.00  0.00    +0.130 A 
ATOM     20  C   UNL     1       3.540   8.735  -2.427  0.00  0.00    +0.050 A 
ATOM     21  C   UNL     1       4.224   8.385  -3.577  0.00  0.00    +0.043 A 
ATOM     22  C   UNL     1       4.672   7.086  -3.747  0.00  0.00    +0.021 A 
ATOM     23  C   UNL     1       4.440   6.141  -2.766  0.00  0.00    +0.023 A 
ATOM     24  C   UNL     1       3.760   6.493  -1.613  0.00  0.00    +0.068 A 
ATOM     25 CL   UNL     1       3.470   5.306  -0.380  0.00  0.00    -0.082 Cl
ATOM     26 CL   UNL     1       4.515   9.572  -4.810  0.00  0.00    -0.083 Cl
ENDBRANCH  16  19
ENDBRANCH  14  16
ENDBRANCH   3  14
TORSDOF 6
