REMARK  Name = ZINC65815989
REMARK  5 active torsions:
REMARK  status: ('A' for Active; 'I' for Inactive)
REMARK    1  A    between atoms: C_1  and  C_2
REMARK    2  A    between atoms: C_6  and  O_18
REMARK    3  A    between atoms: C_7  and  N_8
REMARK    4  A    between atoms: N_11  and  C_12
REMARK    5  A    between atoms: O_18  and  C_19
REMARK                            x       y       z     vdW  Elec       q    Type
REMARK                         _______ _______ _______ _____ _____    ______ ____
ROOT
ATOM      1  N   UNL     1       0.025  -0.011   2.418  0.00  0.00    -0.266 N 
ATOM      2  C   UNL     1      -0.355  -0.637   3.549  0.00  0.00    +0.304 C 
ATOM      3  O   UNL     1      -0.612  -1.825   3.530  0.00  0.00    -0.252 OA
ATOM      4  N   UNL     1      -0.451   0.054   4.702  0.00  0.00    -0.296 N 
ATOM      5  H   UNL     1       0.300   0.919   2.447  0.00  0.00    +0.156 HD
ATOM      6  H   UNL     1      -0.246   1.002   4.718  0.00  0.00    +0.151 HD
ENDROOT
BRANCH   1  13
ATOM      7  C   UNL     1       2.439  -1.254   1.572  0.00  0.00    +0.046 C 
ATOM      8  C   UNL     1       1.178  -1.324   0.750  0.00  0.00    -0.025 A 
ATOM      9  C   UNL     1       1.173  -2.011  -0.450  0.00  0.00    +0.020 A 
ATOM     10  C   UNL     1       0.017  -2.077  -1.207  0.00  0.00    +0.022 A 
ATOM     11  C   UNL     1      -1.138  -1.456  -0.768  0.00  0.00    +0.062 A 
ATOM     12  C   UNL     1      -1.140  -0.765   0.433  0.00  0.00    +0.143 A 
ATOM     13  C   UNL     1       0.022  -0.704   1.199  0.00  0.00    +0.080 A 
ATOM     14 BR   UNL     1       0.017  -3.018  -2.847  0.00  0.00    -0.050 Br
BRANCH  12  15
ATOM     15  O   UNL     1      -2.275  -0.154   0.866  0.00  0.00    -0.493 OA
ATOM     16  C   UNL     1      -3.430  -0.264   0.032  0.00  0.00    +0.277 C 
ENDBRANCH  12  15
ENDBRANCH   1  13
BRANCH   4  17
ATOM     17  C   UNL     1      -0.864  -0.627   5.932  0.00  0.00    +0.079 C 
ATOM     18  C   UNL     1      -2.393  -0.661   6.010  0.00  0.00    +0.050 C 
ATOM     19  C   UNL     1      -2.815  -1.303   7.334  0.00  0.00    +0.161 C 
ATOM     20  O   UNL     1      -2.249  -0.567   8.421  0.00  0.00    -0.380 OA
ATOM     21  C   UNL     1      -0.821  -0.540   8.426  0.00  0.00    +0.161 C 
ATOM     22  C   UNL     1      -0.319   0.133   7.146  0.00  0.00    +0.050 C 
ENDBRANCH   4  17
TORSDOF 3
