REMARK  Name = ZINC01712900
REMARK  6 active torsions:
REMARK  status: ('A' for Active; 'I' for Inactive)
REMARK    1  A    between atoms: C_1  and  C_2
REMARK    2  A    between atoms: C_2  and  C_12
REMARK    3  A    between atoms: C_3  and  C_9
REMARK    4  A    between atoms: C_3  and  C_10
REMARK    5  A    between atoms: C_6  and  C_7
REMARK    6  A    between atoms: C_6  and  N_29
REMARK                            x       y       z     vdW  Elec       q    Type
REMARK                         _______ _______ _______ _____ _____    ______ ____
ROOT
ATOM      1  C   UNL     1      -1.495   3.737  -1.294  0.00  0.00    +0.011 C 
ATOM      2  C   UNL     1      -1.631   2.541  -0.351  0.00  0.00    -0.019 C 
ATOM      3  C   UNL     1      -1.013   2.877   1.022  0.00  0.00    +0.073 C 
ATOM      4  C   UNL     1      -0.345   1.553   1.475  0.00  0.00    +0.017 C 
ATOM      5  C   UNL     1       0.225   0.989   0.150  0.00  0.00    -0.000 C 
ATOM      6  C   UNL     1      -0.844   1.340  -0.905  0.00  0.00    +0.039 C 
ATOM      7  C   UNL     1       0.036   3.982   0.881  0.00  0.00    +0.023 C 
ATOM      8  C   UNL     1      -3.106   2.168  -0.185  0.00  0.00    +0.011 C 
ENDROOT
BRANCH   6  11
ATOM      9  H   UNL     1       0.342   0.934  -2.539  0.00  0.00    -0.088 HD
ATOM     10  H   UNL     1      -0.878   2.022  -2.848  0.00  0.00    -0.088 HD
ATOM     11  N   UNL     1      -0.183   1.723  -2.165  0.00  0.00    +0.389 N 
ATOM     12  H   UNL     1       0.464   2.500  -1.985  0.00  0.00    -0.088 HD
ENDBRANCH   6  11
BRANCH   6  13
ATOM     13  C   UNL     1      -1.768   0.169  -1.114  0.00  0.00    +0.346 C 
ATOM     14  O   UNL     1      -1.927  -0.640  -0.230  0.00  0.00    -0.248 OA
ATOM     15  O   UNL     1      -2.414   0.023  -2.281  0.00  0.00    -0.248 OA
ENDBRANCH   6  13
BRANCH   3  16
ATOM     16  C   UNL     1      -2.086   3.291   1.996  0.00  0.00    +0.362 C 
ATOM     17  O   UNL     1      -2.330   2.599   2.956  0.00  0.00    -0.246 OA
ATOM     18  O   UNL     1      -2.770   4.429   1.797  0.00  0.00    -0.246 OA
ENDBRANCH   3  16
TORSDOF 3
