REMARK  Name = ZINC00174716
REMARK  3 active torsions:
REMARK  status: ('A' for Active; 'I' for Inactive)
REMARK    1  A    between atoms: C_7  and  C_11
REMARK    2  A    between atoms: C_7  and  O_22
REMARK    3  A    between atoms: C_11  and  O_21
REMARK                            x       y       z     vdW  Elec       q    Type
REMARK                         _______ _______ _______ _____ _____    ______ ____
ROOT
ATOM      1  C   UNL     1      -3.613  -1.074   0.833  0.00  0.00    +0.000 A 
ATOM      2  C   UNL     1      -3.827  -1.806  -0.321  0.00  0.00    +0.002 A 
ATOM      3  C   UNL     1      -2.835  -1.914  -1.273  0.00  0.00    +0.024 A 
ATOM      4  C   UNL     1      -1.607  -1.285  -1.078  0.00  0.00    +0.040 A 
ATOM      5  C   UNL     1      -1.403  -0.553   0.089  0.00  0.00    +0.018 A 
ATOM      6  C   UNL     1      -2.396  -0.447   1.034  0.00  0.00    +0.009 A 
ATOM      7  C   UNL     1       0.002  -0.004   0.002  0.00  0.00    +0.210 C 
ATOM      8  C   UNL     1       0.521  -0.520  -1.323  0.00  0.00    +0.257 C 
ATOM      9  O   UNL     1       1.619  -0.317  -1.795  0.00  0.00    -0.272 OA
ATOM     10  N   UNL     1      -0.465  -1.246  -1.878  0.00  0.00    -0.282 N 
ATOM     11  H   UNL     1      -0.391  -1.691  -2.736  0.00  0.00    +0.155 HD
ENDROOT
BRANCH   7  12
ATOM     12  C   UNL     1      -0.019   1.526   0.010  0.00  0.00    +0.210 C 
ATOM     13  C   UNL     1      -0.617   2.040   1.299  0.00  0.00    +0.018 A 
ATOM     14  C   UNL     1      -0.248   1.912   2.620  0.00  0.00    +0.009 A 
ATOM     15  C   UNL     1      -1.010   2.508   3.610  0.00  0.00    +0.000 A 
ATOM     16  C   UNL     1      -2.140   3.229   3.268  0.00  0.00    +0.002 A 
ATOM     17  C   UNL     1      -2.511   3.359   1.946  0.00  0.00    +0.024 A 
ATOM     18  C   UNL     1      -1.749   2.762   0.944  0.00  0.00    +0.040 A 
ATOM     19  N   UNL     1      -1.915   2.748  -0.442  0.00  0.00    -0.282 N 
ATOM     20  C   UNL     1      -0.950   2.050  -1.062  0.00  0.00    +0.257 C 
ATOM     21  O   UNL     1      -0.844   1.872  -2.258  0.00  0.00    -0.272 OA
ATOM     22  H   UNL     1      -2.643   3.192  -0.904  0.00  0.00    +0.155 HD
BRANCH  12  23
ATOM     23  O   UNL     1       1.301   2.044  -0.171  0.00  0.00    -0.372 OA
ATOM     24  H   UNL     1       1.347   3.010  -0.174  0.00  0.00    +0.211 HD
ENDBRANCH  12  23
ENDBRANCH   7  12
BRANCH   7  25
ATOM     25  O   UNL     1       0.800  -0.499   1.079  0.00  0.00    -0.372 OA
ATOM     26  H   UNL     1       0.849  -1.464   1.122  0.00  0.00    +0.211 HD
ENDBRANCH   7  25
TORSDOF 3
