REMARK  Name = ZINC03148388
REMARK  5 active torsions:
REMARK  status: ('A' for Active; 'I' for Inactive)
REMARK    1  A    between atoms: C_6  and  N_7
REMARK    2  A    between atoms: C_8  and  C_10
REMARK    3  A    between atoms: N_12  and  N_13
REMARK    4  A    between atoms: C_14  and  C_15
REMARK    5  A    between atoms: C_20  and  O_21
REMARK                            x       y       z     vdW  Elec       q    Type
REMARK                         _______ _______ _______ _____ _____    ______ ____
ROOT
ATOM      1  C   UNL     1      -2.464  -2.819  -0.203  0.00  0.00    +0.318 C 
ATOM      2  O   UNL     1      -3.522  -2.223  -0.189  0.00  0.00    -0.263 OA
ATOM      3  N   UNL     1      -2.447  -4.162  -0.312  0.00  0.00    -0.199 N 
ATOM      4  H   UNL     1      -1.602  -4.638  -0.323  0.00  0.00    +0.178 HD
ENDROOT
BRANCH   1   6
ATOM      5  N   UNL     1      -1.198  -0.721   0.010  0.00  0.00    -0.278 N 
ATOM      6  C   UNL     1      -1.182  -2.064  -0.099  0.00  0.00    +0.305 C 
ATOM      7  O   UNL     1      -0.124  -2.659  -0.113  0.00  0.00    -0.265 OA
ATOM      8  H   UNL     1      -2.043  -0.251   0.098  0.00  0.00    +0.155 HD
BRANCH   5  14
ATOM      9  C   UNL     1       1.072  -0.453  -0.767  0.00  0.00    +0.026 A 
ATOM     10  C   UNL     1       2.256   0.257  -0.780  0.00  0.00    +0.040 A 
ATOM     11  C   UNL     1       2.377   1.416  -0.032  0.00  0.00    +0.124 A 
ATOM     12  C   UNL     1       1.312   1.866   0.730  0.00  0.00    +0.040 A 
ATOM     13  C   UNL     1       0.126   1.159   0.746  0.00  0.00    +0.026 A 
ATOM     14  C   UNL     1       0.002  -0.004  -0.004  0.00  0.00    +0.034 A 
ATOM     15  F   UNL     1       3.537   2.109  -0.046  0.00  0.00    -0.205 F 
ENDBRANCH   5  14
ENDBRANCH   1   6
BRANCH   3  16
ATOM     16  N   UNL     1      -3.652  -4.872  -0.409  0.00  0.00    -0.187 NA
ATOM     17  C   UNL     1      -3.636  -6.167  -0.514  0.00  0.00    +0.142 C 
BRANCH  17  18
ATOM     18  C   UNL     1      -4.902  -6.912  -0.617  0.00  0.00    +0.037 A 
ATOM     19  C   UNL     1      -4.890  -8.306  -0.724  0.00  0.00    +0.028 A 
ATOM     20  C   UNL     1      -6.079  -8.998  -0.820  0.00  0.00    +0.019 A 
ATOM     21  C   UNL     1      -7.286  -8.317  -0.810  0.00  0.00    +0.019 A 
ATOM     22  C   UNL     1      -7.311  -6.939  -0.704  0.00  0.00    +0.047 A 
ATOM     23  C   UNL     1      -6.126  -6.229  -0.601  0.00  0.00    +0.126 A 
ATOM     24 BR   UNL     1      -6.063 -10.883  -0.966  0.00  0.00    -0.050 Br
BRANCH  23  25
ATOM     25  O   UNL     1      -6.150  -4.876  -0.491  0.00  0.00    -0.506 OA
ATOM     26  H   UNL     1      -6.128  -4.412  -1.340  0.00  0.00    +0.292 HD
ENDBRANCH  23  25
ENDBRANCH  17  18
ENDBRANCH   3  16
TORSDOF 5
