REMARK  Name = ZINC67066690
REMARK  4 active torsions:
REMARK  status: ('A' for Active; 'I' for Inactive)
REMARK    1  A    between atoms: C_1  and  N_2
REMARK    2  A    between atoms: C_3  and  C_5
REMARK    3  A    between atoms: C_8  and  N_11
REMARK    4  A    between atoms: C_18  and  C_21
REMARK                            x       y       z     vdW  Elec       q    Type
REMARK                         _______ _______ _______ _____ _____    ______ ____
ROOT
ATOM      1  N   UNL     1      -0.069  -6.189  -2.291  0.00  0.00    -0.296 N 
ATOM      2  C   UNL     1       0.027  -6.855  -3.458  0.00  0.00    +0.303 C 
ATOM      3  O   UNL     1       0.005  -6.245  -4.510  0.00  0.00    -0.253 OA
ATOM      4  N   UNL     1       0.146  -8.198  -3.460  0.00  0.00    -0.281 N 
ATOM      5  C   UNL     1       0.372  -8.936  -4.712  0.00  0.00    +0.137 C 
ATOM      6  C   UNL     1      -0.652 -10.074  -4.794  0.00  0.00    +0.179 C 
ATOM      7  O   UNL     1      -0.603 -10.839  -3.588  0.00  0.00    -0.369 OA
ATOM      8  C   UNL     1      -0.953 -10.104  -2.413  0.00  0.00    +0.166 C 
ATOM      9  C   UNL     1       0.061  -8.967  -2.208  0.00  0.00    +0.145 C 
ATOM     10  H   UNL     1      -0.124  -6.679  -1.455  0.00  0.00    +0.151 HD
ENDROOT
BRANCH   8  11
ATOM     11  C   UNL     1      -0.928 -11.021  -1.218  0.00  0.00    -0.015 A 
ATOM     12  C   UNL     1       0.073 -11.967  -1.094  0.00  0.00    +0.006 A 
ATOM     13  C   UNL     1       0.098 -12.810   0.001  0.00  0.00    +0.003 A 
ATOM     14  C   UNL     1      -0.878 -12.708   0.974  0.00  0.00    +0.038 A 
ATOM     15  C   UNL     1      -1.881 -11.761   0.852  0.00  0.00    +0.124 A 
ATOM     16  C   UNL     1      -1.901 -10.914  -0.243  0.00  0.00    +0.044 A 
ATOM     17  F   UNL     1      -2.836 -11.661   1.802  0.00  0.00    -0.205 F 
ENDBRANCH   8  11
BRANCH   1  21
ATOM     18  C   UNL     1       0.614  -2.170  -1.030  0.00  0.00    +0.075 C 
ATOM     19  C   UNL     1      -0.821  -2.700  -1.014  0.00  0.00    +0.014 C 
ATOM     20  C   UNL     1      -0.800  -4.230  -1.022  0.00  0.00    +0.023 C 
ATOM     21  C   UNL     1      -0.089  -4.724  -2.283  0.00  0.00    +0.074 C 
ATOM     22  C   UNL     1       1.346  -4.194  -2.300  0.00  0.00    +0.023 C 
ATOM     23  C   UNL     1       1.325  -2.664  -2.292  0.00  0.00    +0.014 C 
BRANCH  18  26
ATOM     24  C   UNL     1      -0.006   1.462   0.007  0.00  0.00    +0.128 C 
ATOM     25  N   UNL     1       0.014  -0.003  -0.000  0.00  0.00    -0.318 N 
ATOM     26  C   UNL     1       0.593  -0.663  -1.022  0.00  0.00    +0.216 C 
ATOM     27  O   UNL     1       1.097  -0.045  -1.936  0.00  0.00    -0.276 OA
ATOM     28  H   UNL     1      -0.390  -0.497   0.730  0.00  0.00    +0.148 HD
ENDBRANCH  18  26
ENDBRANCH   1  21
TORSDOF 3
