REMARK  Name = ZINC15303359
REMARK  5 active torsions:
REMARK  status: ('A' for Active; 'I' for Inactive)
REMARK    1  A    between atoms: C_1  and  C_2
REMARK    2  A    between atoms: C_2  and  C_3
REMARK    3  A    between atoms: C_2  and  C_4
REMARK    4  A    between atoms: C_4  and  C_5
REMARK    5  A    between atoms: N_13  and  C_16
REMARK                            x       y       z     vdW  Elec       q    Type
REMARK                         _______ _______ _______ _____ _____    ______ ____
ROOT
ATOM      1  C   UNL     1      -1.416  -2.058  -0.121  0.00  0.00    +0.068 C 
ATOM      2  C   UNL     1      -2.835  -2.595  -0.206  0.00  0.00    +0.107 C 
ATOM      3  C   UNL     1      -3.136  -2.712   1.338  0.00  0.00    +0.127 C 
ATOM      4  C   UNL     1      -4.573  -2.846   1.342  0.00  0.00    +0.233 C 
ATOM      5  O   UNL     1      -5.251  -3.495   2.109  0.00  0.00    -0.274 OA
ATOM      6  N   UNL     1      -5.006  -2.077   0.290  0.00  0.00    -0.210 N 
ATOM      7  C   UNL     1      -3.987  -1.707  -0.559  0.00  0.00    +0.232 C 
ATOM      8  O   UNL     1      -4.011  -0.844  -1.410  0.00  0.00    -0.274 OA
ATOM      9  C   UNL     1      -1.936  -3.398   1.828  0.00  0.00    +0.186 C 
ATOM     10  N   UNL     1      -0.824  -2.678   1.104  0.00  0.00    -0.292 NA
ATOM     11  C   UNL     1      -1.714  -3.132   3.299  0.00  0.00    +0.251 C 
ATOM     12  O   UNL     1      -1.726  -2.006   3.748  0.00  0.00    -0.273 OA
ATOM     13  N   UNL     1      -1.501  -4.206   4.094  0.00  0.00    -0.238 N 
ATOM     14  C   UNL     1      -1.487  -5.452   3.605  0.00  0.00    +0.312 C 
ATOM     15  O   UNL     1      -1.289  -6.358   4.389  0.00  0.00    -0.252 OA
ATOM     16  N   UNL     1      -1.674  -5.778   2.321  0.00  0.00    -0.238 N 
ATOM     17  C   UNL     1      -1.901  -4.838   1.374  0.00  0.00    +0.251 C 
ATOM     18  O   UNL     1      -2.069  -5.139   0.212  0.00  0.00    -0.273 OA
ATOM     19  H   UNL     1      -0.082  -3.317   0.864  0.00  0.00    +0.124 HD
ATOM     20  H   UNL     1      -1.353  -4.070   5.043  0.00  0.00    +0.159 HD
ATOM     21  H   UNL     1      -1.646  -6.712   2.062  0.00  0.00    +0.159 HD
ENDROOT
BRANCH   6  22
ATOM     22  C   UNL     1      -6.346  -1.716   0.092  0.00  0.00    +0.044 A 
ATOM     23  C   UNL     1      -7.319  -2.133   0.990  0.00  0.00    +0.025 A 
ATOM     24  C   UNL     1      -8.638  -1.775   0.793  0.00  0.00    +0.022 A 
ATOM     25  C   UNL     1      -8.991  -1.002  -0.299  0.00  0.00    +0.041 A 
ATOM     26  C   UNL     1      -8.023  -0.585  -1.196  0.00  0.00    +0.022 A 
ATOM     27  C   UNL     1      -6.701  -0.935  -1.000  0.00  0.00    +0.025 A 
ATOM     28 CL   UNL     1     -10.650  -0.554  -0.544  0.00  0.00    -0.084 Cl
ENDBRANCH   6  22
BRANCH   1  29
ATOM     29  C   UNL     1      -1.433  -0.534   0.013  0.00  0.00    +0.022 C 
BRANCH  29  31
ATOM     30  C   UNL     1      -0.019   1.526   0.010  0.00  0.00    +0.007 C 
ATOM     31  C   UNL     1       0.002  -0.004   0.002  0.00  0.00    -0.016 C 
ATOM     32  C   UNL     1       0.742  -0.511   1.242  0.00  0.00    +0.007 C 
ENDBRANCH  29  31
ENDBRANCH   1  29
TORSDOF 3
