REMARK  Name = ZINC41044147
REMARK  5 active torsions:
REMARK  status: ('A' for Active; 'I' for Inactive)
REMARK    1  A    between atoms: C_1  and  N_2
REMARK    2  A    between atoms: N_2  and  S_3
REMARK    3  A    between atoms: S_3  and  C_6
REMARK    4  A    between atoms: C_11  and  N_12
REMARK    5  A    between atoms: N_12  and  N_13
REMARK                            x       y       z     vdW  Elec       q    Type
REMARK                         _______ _______ _______ _____ _____    ______ ____
ROOT
ATOM      1  C   UNL     1      -0.156  -0.634   2.736  0.00  0.00    +0.147 A 
ATOM      2  C   UNL     1      -0.712  -1.732   3.368  0.00  0.00    +0.048 A 
ATOM      3  C   UNL     1      -1.399  -1.534   4.559  0.00  0.00    +0.038 A 
ATOM      4  C   UNL     1      -1.505  -0.256   5.074  0.00  0.00    +0.128 A 
ATOM      5  N   UNL     1      -0.965   0.772   4.449  0.00  0.00    -0.236 NA
ATOM      6  C   UNL     1      -0.297   0.623   3.315  0.00  0.00    +0.159 A 
ATOM      7 BR   UNL     1      -2.180  -2.997   5.466  0.00  0.00    -0.049 Br
ENDROOT
BRANCH   1   8
ATOM      8  S   UNL     1       0.726  -0.826   1.223  0.00  0.00    +0.062 S 
ATOM      9  O   UNL     1       0.201   0.138   0.321  0.00  0.00    -0.153 OA
ATOM     10  O   UNL     1       0.734  -2.217   0.931  0.00  0.00    -0.153 OA
BRANCH   8  12
ATOM     11  C   UNL     1       3.107  -1.169   2.460  0.00  0.00    +0.127 C 
ATOM     12  N   UNL     1       2.298  -0.395   1.514  0.00  0.00    -0.193 NA
ATOM     13  H   UNL     1       2.684   0.369   1.059  0.00  0.00    +0.148 HD
ENDBRANCH   8  12
ENDBRANCH   1   8
BRANCH   6  14
ATOM     14  N   UNL     1       0.263   1.734   2.693  0.00  0.00    -0.266 N 
ATOM     15  H   UNL     1       0.691   1.641   1.828  0.00  0.00    +0.167 HD
BRANCH  14  16
ATOM     16  N   UNL     1       0.209   2.956   3.302  0.00  0.00    -0.255 NA
ATOM     17  H   UNL     1       0.621   2.920   4.223  0.00  0.00    +0.140 HD
ATOM     18  H   UNL     1       0.654   3.662   2.735  0.00  0.00    +0.140 HD
ENDBRANCH  14  16
ENDBRANCH   6  14
TORSDOF 4
