REMARK  Name = ZINC04868607
REMARK  4 active torsions:
REMARK  status: ('A' for Active; 'I' for Inactive)
REMARK    1  A    between atoms: C_3  and  N_21
REMARK    2  A    between atoms: C_4  and  N_18
REMARK    3  A    between atoms: C_6  and  N_7
REMARK    4  A    between atoms: C_8  and  C_10
REMARK                            x       y       z     vdW  Elec       q    Type
REMARK                         _______ _______ _______ _____ _____    ______ ____
ROOT
ATOM      1  C   UNL     1      -3.471   1.708  -0.771  0.00  0.00    +0.025 A 
ATOM      2  C   UNL     1      -4.659   1.010  -0.861  0.00  0.00    +0.027 A 
ATOM      3  C   UNL     1      -4.773  -0.244  -0.274  0.00  0.00    +0.055 A 
ATOM      4  C   UNL     1      -3.691  -0.796   0.399  0.00  0.00    +0.148 A 
ATOM      5  C   UNL     1      -2.502  -0.100   0.485  0.00  0.00    +0.058 A 
ATOM      6  C   UNL     1      -2.388   1.153  -0.102  0.00  0.00    +0.036 A 
ENDROOT
BRANCH   6   7
ATOM      7  N   UNL     1      -1.182   1.860  -0.015  0.00  0.00    -0.281 N 
ATOM      8  C   UNL     1      -0.009   1.197  -0.045  0.00  0.00    +0.255 C 
ATOM      9  O   UNL     1       0.002  -0.019  -0.067  0.00  0.00    -0.269 OA
ATOM     10  H   UNL     1      -1.191   2.827   0.066  0.00  0.00    +0.155 HD
BRANCH   8  11
ATOM     11  C   UNL     1       1.254   1.942  -0.055  0.00  0.00    +0.075 A 
ATOM     12  C   UNL     1       2.547   1.462  -0.089  0.00  0.00    +0.024 A 
ATOM     13  C   UNL     1       3.593   2.385  -0.093  0.00  0.00    -0.036 A 
ATOM     14  C   UNL     1       3.248   3.700  -0.061  0.00  0.00    -0.006 A 
ATOM     15  S   UNL     1       1.520   3.705  -0.036  0.00  0.00    -0.088 S 
ATOM     16  C   UNL     1       4.455   4.598  -0.064  0.00  0.00    +0.043 C 
ATOM     17  C   UNL     1       5.627   3.675   0.335  0.00  0.00    +0.010 C 
ATOM     18  C   UNL     1       5.121   2.296  -0.129  0.00  0.00    +0.036 C 
ENDBRANCH   8  11
ENDBRANCH   6   7
BRANCH   4  19
ATOM     19  N   UNL     1      -3.813  -2.133   1.024  0.00  0.00    +0.058 N 
ATOM     20  O   UNL     1      -2.902  -2.572   1.704  0.00  0.00    -0.126 OA
ATOM     21  O   UNL     1      -4.823  -2.792   0.860  0.00  0.00    -0.126 OA
ENDBRANCH   4  19
BRANCH   3  22
ATOM     22  N   UNL     1      -5.978  -0.949  -0.360  0.00  0.00    -0.356 N 
ATOM     23  H   UNL     1      -6.200  -1.614   0.310  0.00  0.00    +0.142 HD
ATOM     24  H   UNL     1      -6.592  -0.773  -1.091  0.00  0.00    +0.142 HD
ENDBRANCH   3  22
TORSDOF 4
