REMARK  Name = ZINC21965160
REMARK  9 active torsions:
REMARK  status: ('A' for Active; 'I' for Inactive)
REMARK    1  A    between atoms: C_1  and  C_2
REMARK    2  A    between atoms: C_2  and  C_3
REMARK    3  A    between atoms: C_2  and  C_4
REMARK    4  A    between atoms: C_4  and  C_6
REMARK    5  A    between atoms: C_4  and  N_19
REMARK    6  A    between atoms: N_8  and  N_9
REMARK    7  A    between atoms: C_10  and  C_12
REMARK    8  A    between atoms: N_16  and  C_17
REMARK    9  A    between atoms: C_20  and  C_22
REMARK                            x       y       z     vdW  Elec       q    Type
REMARK                         _______ _______ _______ _____ _____    ______ ____
ROOT
ATOM      1  C   UNL     1       1.116   3.369   1.094  0.00  0.00    +0.250 C 
ATOM      2  O   UNL     1       0.059   3.962   1.044  0.00  0.00    -0.272 OA
ATOM      3  N   UNL     1       1.149   2.035   0.907  0.00  0.00    -0.233 N 
ATOM      4  H   UNL     1       2.108   1.497   0.953  0.00  0.00    +0.173 HD
ENDROOT
BRANCH   3   5
ATOM      5  N   UNL     1      -0.037   1.333   0.655  0.00  0.00    -0.229 N 
ATOM      6  C   UNL     1      -0.003  -0.002   0.469  0.00  0.00    +0.277 C 
ATOM      7  O   UNL     1       1.065  -0.582   0.417  0.00  0.00    -0.267 OA
ATOM      8  H   UNL     1      -0.995   1.871   0.610  0.00  0.00    +0.173 HD
BRANCH   6   9
ATOM      9  C   UNL     1      -1.255  -0.754   0.328  0.00  0.00    +0.107 A 
ATOM     10  C   UNL     1      -2.525  -0.221   0.277  0.00  0.00    +0.047 A 
ATOM     11  C   UNL     1      -3.415  -1.290   0.136  0.00  0.00    +0.036 A 
ATOM     12  C   UNL     1      -2.689  -2.434   0.114  0.00  0.00    +0.101 A 
ATOM     13  N   UNL     1      -1.375  -2.122   0.230  0.00  0.00    -0.345 N 
ATOM     14  C   UNL     1      -0.267  -3.080   0.248  0.00  0.00    +0.149 C 
ATOM     15 BR   UNL     1      -5.297  -1.163   0.007  0.00  0.00    -0.049 Br
ENDBRANCH   6   9
ENDBRANCH   3   5
BRANCH   1  16
ATOM     16  C   UNL     1       2.392   4.124   1.365  0.00  0.00    +0.163 C 
BRANCH  16  17
ATOM     17  N   UNL     1       2.090   5.548   1.530  0.00  0.00    -0.297 N 
ATOM     18  C   UNL     1       3.040   6.471   1.281  0.00  0.00    +0.280 C 
ATOM     19  O   UNL     1       4.148   6.122   0.919  0.00  0.00    -0.267 OA
ATOM     20  H   UNL     1       1.089   5.864   1.857  0.00  0.00    +0.150 HD
BRANCH  18  21
ATOM     21  C   UNL     1       2.739   7.897   1.446  0.00  0.00    +0.189 A 
ATOM     22  C   UNL     1       3.604   8.931   1.229  0.00  0.00    +0.054 A 
ATOM     23  C   UNL     1       2.899  10.112   1.507  0.00  0.00    +0.042 A 
ATOM     24  C   UNL     1       1.650   9.753   1.877  0.00  0.00    +0.196 A 
ATOM     25  O   UNL     1       1.556   8.417   1.834  0.00  0.00    -0.458 OA
ENDBRANCH  18  21
ENDBRANCH  16  17
BRANCH  16  27
ATOM     26  C   UNL     1       4.335   4.355   2.918  0.00  0.00    +0.009 C 
ATOM     27  C   UNL     1       3.040   3.588   2.643  0.00  0.00    +0.012 C 
ATOM     28  C   UNL     1       2.078   3.773   3.818  0.00  0.00    +0.009 C 
ENDBRANCH  16  27
ENDBRANCH   1  16
TORSDOF 6
