REMARK  Name = ZINC39939754
REMARK  7 active torsions:
REMARK  status: ('A' for Active; 'I' for Inactive)
REMARK    1  A    between atoms: C_1  and  C_2
REMARK    2  A    between atoms: C_9  and  C_15
REMARK    3  A    between atoms: C_11  and  O_14
REMARK    4  A    between atoms: N_16  and  C_17
REMARK    5  A    between atoms: C_19  and  C_37
REMARK    6  A    between atoms: N_21  and  C_31
REMARK    7  A    between atoms: N_22  and  C_25
REMARK                            x       y       z     vdW  Elec       q    Type
REMARK                         _______ _______ _______ _____ _____    ______ ____
ROOT
ATOM      1  C   UNL     1       2.826  -6.075   4.827  0.00  0.00    +0.214 C 
ATOM      2  C   UNL     1       2.679  -5.464   6.232  0.00  0.00    +0.125 C 
ATOM      3  N   UNL     1       2.065  -6.532   7.034  0.00  0.00    -0.239 N 
ATOM      4  N   UNL     1       1.861  -7.652   6.232  0.00  0.00    -0.186 N 
ATOM      5  C   UNL     1       2.268  -7.474   4.964  0.00  0.00    +0.263 C 
ATOM      6  O   UNL     1       2.199  -8.297   4.075  0.00  0.00    -0.271 OA
ATOM      7  C   UNL     1       4.050  -5.088   6.797  0.00  0.00    +0.032 C 
ENDROOT
BRANCH   4   8
ATOM      8  C   UNL     1       1.292  -8.842   6.698  0.00  0.00    +0.056 A 
ATOM      9  C   UNL     1       0.105  -8.810   7.419  0.00  0.00    +0.025 A 
ATOM     10  C   UNL     1      -0.455  -9.986   7.879  0.00  0.00    +0.002 A 
ATOM     11  C   UNL     1       0.166 -11.195   7.622  0.00  0.00    +0.000 A 
ATOM     12  C   UNL     1       1.347 -11.230   6.904  0.00  0.00    +0.002 A 
ATOM     13  C   UNL     1       1.909 -10.058   6.437  0.00  0.00    +0.025 A 
ENDBRANCH   4   8
BRANCH   3  14
ATOM     14  C   UNL     1       1.739  -6.438   8.389  0.00  0.00    +0.049 A 
ATOM     15  C   UNL     1       2.125  -7.441   9.269  0.00  0.00    +0.025 A 
ATOM     16  C   UNL     1       1.801  -7.345  10.608  0.00  0.00    +0.002 A 
ATOM     17  C   UNL     1       1.093  -6.252  11.073  0.00  0.00    +0.000 A 
ATOM     18  C   UNL     1       0.707  -5.252  10.200  0.00  0.00    +0.002 A 
ATOM     19  C   UNL     1       1.032  -5.339   8.861  0.00  0.00    +0.025 A 
ENDBRANCH   3  14
BRANCH   1  21
ATOM     20  C   UNL     1       2.631  -4.783   2.839  0.00  0.00    +0.099 C 
ATOM     21  N   UNL     1       2.049  -5.308   3.850  0.00  0.00    -0.280 NA
BRANCH  20  30
ATOM     22  C   UNL     1       4.109   1.400  -0.342  0.00  0.00    +0.044 C 
ATOM     23  C   UNL     1       3.661  -0.038  -0.356  0.00  0.00    -0.050 A 
ATOM     24  C   UNL     1       3.748  -0.768  -1.537  0.00  0.00    +0.005 A 
ATOM     25  C   UNL     1       3.357  -2.072  -1.606  0.00  0.00    +0.024 A 
ATOM     26  C   UNL     1       2.850  -2.714  -0.464  0.00  0.00    +0.044 A 
ATOM     27  N   UNL     1       2.467  -3.995  -0.534  0.00  0.00    -0.284 N 
ATOM     28  C   UNL     1       1.981  -4.667   0.490  0.00  0.00    +0.233 C 
ATOM     29  O   UNL     1       1.653  -5.831   0.353  0.00  0.00    -0.274 OA
ATOM     30  C   UNL     1       1.832  -3.994   1.835  0.00  0.00    +0.181 C 
ATOM     31  C   UNL     1       2.260  -2.542   1.938  0.00  0.00    +0.120 C 
ATOM     32  C   UNL     1       2.758  -1.944   0.779  0.00  0.00    +0.035 A 
ATOM     33  C   UNL     1       3.183  -0.599   0.789  0.00  0.00    +0.016 A 
ATOM     34  H   UNL     1       2.551  -4.454  -1.385  0.00  0.00    +0.155 HD
BRANCH  31  35
ATOM     35  O   UNL     1       2.163  -1.866   3.088  0.00  0.00    -0.509 OA
ATOM     36  H   UNL     1       2.466  -0.949   3.031  0.00  0.00    +0.292 HD
ENDBRANCH  31  35
ENDBRANCH  20  30
ENDBRANCH   1  21
TORSDOF 5
