REMARK  Name = ZINC14737079
REMARK  6 active torsions:
REMARK  status: ('A' for Active; 'I' for Inactive)
REMARK    1  A    between atoms: C_1  and  C_2
REMARK    2  A    between atoms: C_2  and  C_4
REMARK    3  A    between atoms: C_2  and  O_14
REMARK    4  A    between atoms: N_6  and  C_7
REMARK    5  A    between atoms: O_14  and  C_15
REMARK    6  A    between atoms: C_20  and  C_21
REMARK                            x       y       z     vdW  Elec       q    Type
REMARK                         _______ _______ _______ _____ _____    ______ ____
ROOT
ATOM      1  C   UNL     1       3.774  -0.906   1.417  0.00  0.00    +0.062 C 
ATOM      2  C   UNL     1       3.557  -0.810  -0.094  0.00  0.00    +0.256 C 
ENDROOT
BRANCH   2   3
ATOM      3  C   UNL     1       4.700  -0.052  -0.719  0.00  0.00    +0.258 C 
ATOM      4  O   UNL     1       4.498   1.020  -1.250  0.00  0.00    -0.271 OA
ATOM      5  N   UNL     1       5.946  -0.565  -0.687  0.00  0.00    -0.282 N 
ATOM      6  H   UNL     1       6.095  -1.454  -0.331  0.00  0.00    +0.155 HD
BRANCH   5   7
ATOM      7  C   UNL     1       7.024   0.186  -1.169  0.00  0.00    +0.034 A 
ATOM      8  C   UNL     1       8.100  -0.450  -1.774  0.00  0.00    +0.024 A 
ATOM      9  C   UNL     1       9.160   0.294  -2.254  0.00  0.00    +0.017 A 
ATOM     10  C   UNL     1       9.156   1.671  -2.121  0.00  0.00    +0.018 A 
ATOM     11  C   UNL     1       8.089   2.307  -1.512  0.00  0.00    +0.017 A 
ATOM     12  C   UNL     1       7.023   1.569  -1.036  0.00  0.00    +0.024 A 
ATOM     13 BR   UNL     1      10.613   2.686  -2.772  0.00  0.00    -0.050 Br
ENDBRANCH   5   7
ENDBRANCH   2   3
BRANCH   2  14
ATOM     14  O   UNL     1       2.331  -0.124  -0.357  0.00  0.00    -0.479 OA
BRANCH  14  15
ATOM     15  C   UNL     1       1.195  -0.866  -0.340  0.00  0.00    +0.134 A 
ATOM     16  C   UNL     1       1.239  -2.200   0.035  0.00  0.00    +0.048 A 
ATOM     17  C   UNL     1       0.084  -2.955   0.046  0.00  0.00    +0.023 A 
ATOM     18  C   UNL     1      -1.129  -2.387  -0.312  0.00  0.00    +0.042 A 
ATOM     19  C   UNL     1      -1.192  -1.060  -0.683  0.00  0.00    +0.036 A 
ATOM     20  C   UNL     1      -0.029  -0.285  -0.698  0.00  0.00    +0.079 A 
ATOM     21 CL   UNL     1      -2.574  -3.349  -0.294  0.00  0.00    -0.084 Cl
BRANCH  20  22
ATOM     22  C   UNL     1      -0.090   1.135  -1.094  0.00  0.00    +0.245 C 
ATOM     23  O   UNL     1       0.924   1.806  -1.105  0.00  0.00    -0.270 OA
ATOM     24  N   UNL     1      -1.267   1.686  -1.448  0.00  0.00    -0.325 N 
ATOM     25  H   UNL     1      -2.075   1.150  -1.442  0.00  0.00    +0.145 HD
ATOM     26  H   UNL     1      -1.307   2.620  -1.708  0.00  0.00    +0.145 HD
ENDBRANCH  20  22
ENDBRANCH  14  15
ENDBRANCH   2  14
TORSDOF 5
