REMARK  Name = ZINC06243682
REMARK  1 active torsions:
REMARK  status: ('A' for Active; 'I' for Inactive)
REMARK    1  A    between atoms: C_7  and  C_20
REMARK                            x       y       z     vdW  Elec       q    Type
REMARK                         _______ _______ _______ _____ _____    ______ ____
ROOT
ATOM      1  C   UNL     1       4.180   1.859   2.545  0.00  0.00    +0.001 A 
ATOM      2  C   UNL     1       3.492   1.713   3.735  0.00  0.00    +0.004 A 
ATOM      3  C   UNL     1       2.123   1.536   3.721  0.00  0.00    +0.046 A 
ATOM      4  C   UNL     1       1.434   1.503   2.513  0.00  0.00    +0.127 A 
ATOM      5  C   UNL     1       2.123   1.660   1.324  0.00  0.00    -0.000 A 
ATOM      6  C   UNL     1       3.498   1.833   1.344  0.00  0.00    +0.007 A 
ATOM      7  C   UNL     1       1.413   1.648  -0.003  0.00  0.00    +0.060 C 
ATOM      8  C   UNL     1       0.037   0.985   0.127  0.00  0.00    +0.143 C 
ATOM      9  C   UNL     1      -0.659   1.534   1.375  0.00  0.00    +0.276 C 
ATOM     10  O   UNL     1       0.093   1.299   2.534  0.00  0.00    -0.470 OA
ATOM     11  N   UNL     1      -0.956   2.950   1.192  0.00  0.00    -0.263 N 
ATOM     12  C   UNL     1      -1.360   3.400  -0.013  0.00  0.00    +0.309 C 
ATOM     13  O   UNL     1      -1.693   4.562  -0.134  0.00  0.00    -0.252 OA
ATOM     14  N   UNL     1      -1.402   2.586  -1.082  0.00  0.00    -0.240 N 
ATOM     15  C   UNL     1      -0.780   1.385  -1.085  0.00  0.00    +0.229 C 
ATOM     16  O   UNL     1      -0.885   0.634  -2.030  0.00  0.00    -0.275 OA
ATOM     17  H   UNL     1      -0.863   3.566   1.935  0.00  0.00    +0.154 HD
ATOM     18  H   UNL     1      -1.879   2.872  -1.876  0.00  0.00    +0.159 HD
ENDROOT
BRANCH   7  19
ATOM     19  C   UNL     1       2.255   0.870  -1.017  0.00  0.00    +0.170 C 
ATOM     20  C   UNL     1       1.712   1.161  -2.403  0.00  0.00    +0.233 C 
ATOM     21  O   UNL     1       1.656   2.294  -2.831  0.00  0.00    -0.275 OA
ATOM     22  N   UNL     1       1.294   0.118  -3.145  0.00  0.00    -0.239 N 
ATOM     23  C   UNL     1       1.345  -1.139  -2.689  0.00  0.00    +0.312 C 
ATOM     24  O   UNL     1       0.945  -2.020  -3.423  0.00  0.00    -0.252 OA
ATOM     25  N   UNL     1       1.804  -1.496  -1.484  0.00  0.00    -0.239 N 
ATOM     26  C   UNL     1       2.268  -0.589  -0.599  0.00  0.00    +0.233 C 
ATOM     27  O   UNL     1       2.680  -0.927   0.490  0.00  0.00    -0.275 OA
ATOM     28  H   UNL     1       0.943   0.282  -4.034  0.00  0.00    +0.159 HD
ATOM     29  H   UNL     1       1.802  -2.434  -1.239  0.00  0.00    +0.159 HD
ENDBRANCH   7  19
TORSDOF 1
