REMARK  Name = ZINC60380706
REMARK  8 active torsions:
REMARK  status: ('A' for Active; 'I' for Inactive)
REMARK    1  A    between atoms: C_1  and  C_2
REMARK    2  A    between atoms: C_2  and  C_4
REMARK    3  A    between atoms: C_2  and  O_19
REMARK    4  A    between atoms: N_6  and  C_7
REMARK    5  A    between atoms: C_8  and  C_17
REMARK    6  A    between atoms: O_19  and  C_20
REMARK    7  A    between atoms: C_20  and  C_22
REMARK    8  A    between atoms: C_24  and  N_29
REMARK                            x       y       z     vdW  Elec       q    Type
REMARK                         _______ _______ _______ _____ _____    ______ ____
ROOT
ATOM      1  C   UNL     1      -1.412  -0.526   0.013  0.00  0.00    +0.258 C 
ATOM      2  O   UNL     1      -1.818  -1.157   0.965  0.00  0.00    -0.271 OA
ATOM      3  N   UNL     1      -2.225  -0.290  -1.036  0.00  0.00    -0.276 N 
ATOM      4  H   UNL     1      -1.900   0.215  -1.798  0.00  0.00    +0.155 HD
ENDROOT
BRANCH   3   5
ATOM      5  C   UNL     1      -3.527  -0.771  -1.026  0.00  0.00    +0.090 A 
ATOM      6  C   UNL     1      -4.492  -0.632  -2.007  0.00  0.00    +0.084 A 
ATOM      7  C   UNL     1      -5.795  -1.233  -1.756  0.00  0.00    -0.018 A 
ATOM      8  C   UNL     1      -5.888  -1.857  -0.563  0.00  0.00    -0.004 A 
ATOM      9  S   UNL     1      -4.290  -1.660   0.175  0.00  0.00    -0.077 S 
ATOM     10  C   UNL     1      -7.080  -2.556   0.013  0.00  0.00    +0.043 C 
ATOM     11  C   UNL     1      -7.661  -3.510  -1.039  0.00  0.00    +0.005 C 
ATOM     12  C   UNL     1      -8.688  -2.749  -1.872  0.00  0.00    +0.001 C 
ATOM     13  C   UNL     1      -8.274  -1.286  -2.013  0.00  0.00    +0.005 C 
ATOM     14  C   UNL     1      -6.944  -1.177  -2.752  0.00  0.00    +0.037 C 
BRANCH   6  15
ATOM     15  C   UNL     1      -4.221   0.075  -3.223  0.00  0.00    +0.102 C 
ATOM     16  N   UNL     1      -4.007   0.636  -4.187  0.00  0.00    -0.191 NA
ENDBRANCH   6  15
ENDBRANCH   3   5
BRANCH   1  18
ATOM     17  C   UNL     1      -0.019   1.526   0.010  0.00  0.00    +0.062 C 
ATOM     18  C   UNL     1       0.002  -0.004   0.002  0.00  0.00    +0.259 C 
BRANCH  18  19
ATOM     19  O   UNL     1       0.693  -0.477   1.160  0.00  0.00    -0.449 OA
BRANCH  19  20
ATOM     20  C   UNL     1       2.023  -0.663   1.045  0.00  0.00    +0.341 C 
ATOM     21  O   UNL     1       2.580  -0.429  -0.009  0.00  0.00    -0.245 OA
BRANCH  20  22
ATOM     22  C   UNL     1       2.803  -1.150   2.201  0.00  0.00    +0.079 A 
ATOM     23  C   UNL     1       2.164  -1.425   3.411  0.00  0.00    +0.039 A 
ATOM     24  C   UNL     1       2.902  -1.883   4.490  0.00  0.00    +0.025 A 
ATOM     25  C   UNL     1       4.275  -2.067   4.367  0.00  0.00    +0.024 A 
ATOM     26  C   UNL     1       4.909  -1.795   3.170  0.00  0.00    +0.022 A 
ATOM     27  C   UNL     1       4.182  -1.343   2.085  0.00  0.00    +0.055 A 
ATOM     28 CL   UNL     1       4.982  -1.010   0.581  0.00  0.00    -0.083 Cl
BRANCH  24  29
ATOM     29  N   UNL     1       2.267  -2.159   5.705  0.00  0.00    -0.358 N 
ATOM     30  H   UNL     1       1.310  -2.031   5.791  0.00  0.00    +0.142 HD
ATOM     31  H   UNL     1       2.784  -2.479   6.460  0.00  0.00    +0.142 HD
ENDBRANCH  24  29
ENDBRANCH  20  22
ENDBRANCH  19  20
ENDBRANCH  18  19
ENDBRANCH   1  18
TORSDOF 7
