REMARK  Name = ZINC03423305
REMARK  11 active torsions:
REMARK  status: ('A' for Active; 'I' for Inactive)
REMARK    1  A    between atoms: C_1  and  C_2
REMARK    2  A    between atoms: C_2  and  C_3
REMARK    3  A    between atoms: C_2  and  C_4
REMARK    4  A    between atoms: C_9  and  N_10
REMARK    5  A    between atoms: N_10  and  C_11
REMARK    6  A    between atoms: C_11  and  N_13
REMARK    7  A    between atoms: N_13  and  N_14
REMARK    8  A    between atoms: C_15  and  C_17
REMARK    9  A    between atoms: C_22  and  N_23
REMARK   10  A    between atoms: N_23  and  S_24
REMARK   11  A    between atoms: S_24  and  C_27
REMARK                            x       y       z     vdW  Elec       q    Type
REMARK                         _______ _______ _______ _____ _____    ______ ____
ROOT
ATOM      1  N   UNL     1      -3.664   4.504   3.126  0.00  0.00    -0.231 N 
ATOM      2  C   UNL     1      -2.636   3.733   2.720  0.00  0.00    +0.262 C 
ATOM      3  O   UNL     1      -1.492   4.122   2.857  0.00  0.00    -0.269 OA
ATOM      4  H   UNL     1      -4.576   4.194   3.017  0.00  0.00    +0.173 HD
ENDROOT
BRANCH   2   5
ATOM      5  C   UNL     1      -2.898   2.417   2.108  0.00  0.00    +0.060 A 
ATOM      6  C   UNL     1      -4.211   1.966   1.948  0.00  0.00    +0.015 A 
ATOM      7  C   UNL     1      -4.450   0.736   1.375  0.00  0.00    +0.001 A 
ATOM      8  C   UNL     1      -3.394  -0.058   0.956  0.00  0.00    +0.002 A 
ATOM      9  C   UNL     1      -2.092   0.375   1.103  0.00  0.00    +0.025 A 
ATOM     10  C   UNL     1      -1.831   1.611   1.683  0.00  0.00    +0.060 A 
BRANCH  10  11
ATOM     11  N   UNL     1      -0.522   2.048   1.837  0.00  0.00    -0.215 N 
ATOM     12  H   UNL     1      -0.270   2.557   2.623  0.00  0.00    +0.174 HD
BRANCH  11  13
ATOM     13  S   UNL     1       0.608   1.699   0.678  0.00  0.00    +0.079 S 
ATOM     14  O   UNL     1       0.599   0.288   0.513  0.00  0.00    -0.149 OA
ATOM     15  O   UNL     1       1.783   2.418   1.027  0.00  0.00    -0.149 OA
BRANCH  13  16
ATOM     16  C   UNL     1       0.029   2.387  -0.838  0.00  0.00    +0.146 A 
ATOM     17  C   UNL     1       0.249   3.621  -1.355  0.00  0.00    +0.036 A 
ATOM     18  C   UNL     1      -0.311   3.946  -2.575  0.00  0.00    +0.010 A 
ATOM     19  C   UNL     1      -1.065   3.022  -3.220  0.00  0.00    +0.047 A 
ATOM     20  S   UNL     1      -0.993   1.637  -2.095  0.00  0.00    -0.077 S 
ENDBRANCH  13  16
ENDBRANCH  11  13
ENDBRANCH  10  11
ENDBRANCH   2   5
BRANCH   1  21
ATOM     21  N   UNL     1      -3.415   5.755   3.707  0.00  0.00    -0.245 N 
ATOM     22  H   UNL     1      -2.502   6.065   3.817  0.00  0.00    +0.172 HD
BRANCH  21  23
ATOM     23  C   UNL     1      -4.442   6.526   4.114  0.00  0.00    +0.151 C 
ATOM     24  S   UNL     1      -4.138   8.053   4.824  0.00  0.00    -0.017 S 
BRANCH  23  25
ATOM     25  N   UNL     1      -5.710   6.094   3.961  0.00  0.00    -0.296 N 
ATOM     26  H   UNL     1      -5.881   5.202   3.620  0.00  0.00    +0.154 HD
BRANCH  25  32
ATOM     27  C   UNL     1      -7.900   6.412   4.929  0.00  0.00    -0.024 A 
ATOM     28  C   UNL     1      -8.954   7.243   5.257  0.00  0.00    +0.006 A 
ATOM     29  C   UNL     1      -8.893   8.591   4.955  0.00  0.00    +0.000 A 
ATOM     30  C   UNL     1      -7.779   9.112   4.324  0.00  0.00    +0.002 A 
ATOM     31  C   UNL     1      -6.720   8.288   3.998  0.00  0.00    +0.023 A 
ATOM     32  C   UNL     1      -6.779   6.933   4.295  0.00  0.00    +0.036 A 
BRANCH  27  34
ATOM     33  C   UNL     1      -8.154   4.768   6.767  0.00  0.00    +0.012 C 
ATOM     34  C   UNL     1      -7.966   4.944   5.259  0.00  0.00    +0.015 C 
ATOM     35  C   UNL     1      -9.146   4.308   4.520  0.00  0.00    +0.012 C 
ENDBRANCH  27  34
ENDBRANCH  25  32
ENDBRANCH  23  25
ENDBRANCH  21  23
ENDBRANCH   1  21
TORSDOF 9
