REMARK  Name = ZINC01473221
REMARK  6 active torsions:
REMARK  status: ('A' for Active; 'I' for Inactive)
REMARK    1  A    between atoms: C_10  and  O_11
REMARK    2  A    between atoms: O_11  and  C_12
REMARK    3  A    between atoms: C_12  and  C_13
REMARK    4  A    between atoms: N_15  and  C_16
REMARK    5  A    between atoms: C_19  and  S_22
REMARK    6  A    between atoms: S_22  and  N_25
REMARK                            x       y       z     vdW  Elec       q    Type
REMARK                         _______ _______ _______ _____ _____    ______ ____
ROOT
ATOM      1  C   UNL     1       7.228   0.256  -0.067  0.00  0.00    +0.255 C 
ATOM      2  O   UNL     1       7.050   1.456  -0.068  0.00  0.00    -0.272 OA
ATOM      3  N   UNL     1       8.481  -0.240  -0.080  0.00  0.00    -0.283 N 
ATOM      4  H   UNL     1       8.625  -1.197  -0.011  0.00  0.00    +0.155 HD
ENDROOT
BRANCH   3   5
ATOM      5  C   UNL     1       9.575   0.626  -0.192  0.00  0.00    +0.034 A 
ATOM      6  C   UNL     1      10.700   0.236  -0.905  0.00  0.00    +0.025 A 
ATOM      7  C   UNL     1      11.778   1.093  -1.014  0.00  0.00    +0.030 A 
ATOM      8  C   UNL     1      11.738   2.337  -0.413  0.00  0.00    +0.105 A 
ATOM      9  C   UNL     1      10.618   2.728   0.299  0.00  0.00    +0.030 A 
ATOM     10  C   UNL     1       9.535   1.879   0.406  0.00  0.00    +0.025 A 
BRANCH   8  11
ATOM     11  S   UNL     1      13.115   3.427  -0.554  0.00  0.00    +0.056 S 
ATOM     12  O   UNL     1      13.046   4.314   0.554  0.00  0.00    -0.153 OA
ATOM     13  O   UNL     1      14.252   2.614  -0.809  0.00  0.00    -0.153 OA
BRANCH  11  14
ATOM     14  N   UNL     1      12.876   4.346  -1.911  0.00  0.00    -0.204 NA
ATOM     15  H   UNL     1      12.080   4.215  -2.451  0.00  0.00    +0.144 HD
ATOM     16  H   UNL     1      13.530   5.014  -2.165  0.00  0.00    +0.144 HD
ENDBRANCH  11  14
ENDBRANCH   8  11
ENDBRANCH   3   5
BRANCH   1  17
ATOM     17  C   UNL     1       6.047  -0.680  -0.052  0.00  0.00    +0.324 C 
BRANCH  17  18
ATOM     18  O   UNL     1       4.837   0.079  -0.040  0.00  0.00    -0.482 OA
BRANCH  18  28
ATOM     19  C   UNL     1      -0.017   1.356   0.011  0.00  0.00    +0.001 A 
ATOM     20  C   UNL     1       1.168   2.090  -0.004  0.00  0.00    +0.001 A 
ATOM     21  C   UNL     1       2.378   1.466  -0.016  0.00  0.00    +0.012 A 
ATOM     22  C   UNL     1       2.437   0.063  -0.014  0.00  0.00    +0.024 A 
ATOM     23  C   UNL     1       1.233  -0.683   0.001  0.00  0.00    -0.014 A 
ATOM     24  C   UNL     1       0.002  -0.005   0.013  0.00  0.00    +0.008 A 
ATOM     25  C   UNL     1       1.292  -2.087   0.003  0.00  0.00    +0.009 A 
ATOM     26  C   UNL     1       2.502  -2.713  -0.008  0.00  0.00    +0.004 A 
ATOM     27  C   UNL     1       3.687  -1.984  -0.023  0.00  0.00    +0.046 A 
ATOM     28  C   UNL     1       3.671  -0.618  -0.026  0.00  0.00    +0.129 A 
ENDBRANCH  18  28
ENDBRANCH  17  18
ENDBRANCH   1  17
TORSDOF 6
