REMARK  Name = ZINC67172965
REMARK  3 active torsions:
REMARK  status: ('A' for Active; 'I' for Inactive)
REMARK    1  A    between atoms: C_2  and  C_11
REMARK    2  A    between atoms: C_5  and  S_6
REMARK    3  A    between atoms: S_6  and  N_9
REMARK                            x       y       z     vdW  Elec       q    Type
REMARK                         _______ _______ _______ _____ _____    ______ ____
ROOT
ATOM      1  C   UNL     1      -0.016   1.342   0.009  0.00  0.00    +0.052 A 
ATOM      2  C   UNL     1       1.276   1.988   0.001  0.00  0.00    +0.086 A 
ATOM      3  C   UNL     1       2.383   1.163  -0.015  0.00  0.00    +0.071 A 
ATOM      4  S   UNL     1       1.740  -0.387  -0.017  0.00  0.00    -0.061 S 
ATOM      5  C   UNL     1       0.002  -0.004   0.002  0.00  0.00    +0.144 A 
ATOM      6 BR   UNL     1       4.207   1.664  -0.030  0.00  0.00    -0.042 Br
ENDROOT
BRANCH   5   7
ATOM      7  S   UNL     1      -1.364  -1.117   0.010  0.00  0.00    +0.062 S 
ATOM      8  O   UNL     1      -0.886  -2.342   0.549  0.00  0.00    -0.153 OA
ATOM      9  O   UNL     1      -2.460  -0.411   0.576  0.00  0.00    -0.153 OA
BRANCH   7  10
ATOM     10  N   UNL     1      -1.760  -1.418  -1.570  0.00  0.00    -0.203 NA
ATOM     11  H   UNL     1      -1.256  -0.998  -2.284  0.00  0.00    +0.144 HD
ATOM     12  H   UNL     1      -2.495  -2.014  -1.780  0.00  0.00    +0.144 HD
ENDBRANCH   7  10
ENDBRANCH   5   7
BRANCH   2  13
ATOM     13  C   UNL     1       1.406   3.449   0.007  0.00  0.00    +0.388 C 
ATOM     14  O   UNL     1       0.404   4.152   0.020  0.00  0.00    -0.241 OA
ATOM     15  O   UNL     1       2.516   3.965  -0.001  0.00  0.00    -0.241 OA
ENDBRANCH   2  13
TORSDOF 3
