REMARK  Name = ZINC33773583
REMARK  9 active torsions:
REMARK  status: ('A' for Active; 'I' for Inactive)
REMARK    1  A    between atoms: C_7  and  O_11
REMARK    2  A    between atoms: O_11  and  C_12
REMARK    3  A    between atoms: C_12  and  C_13
REMARK    4  A    between atoms: C_16  and  C_19
REMARK    5  A    between atoms: N_21  and  C_22
REMARK    6  A    between atoms: C_22  and  C_24
REMARK    7  A    between atoms: C_22  and  C_32
REMARK    8  A    between atoms: C_24  and  C_25
REMARK    9  A    between atoms: C_28  and  O_31
REMARK                            x       y       z     vdW  Elec       q    Type
REMARK                         _______ _______ _______ _____ _____    ______ ____
ROOT
ATOM      1  C   UNL     1       5.602   4.732  -0.519  0.00  0.00    -0.010 A 
ATOM      2  C   UNL     1       4.575   5.516  -1.012  0.00  0.00    +0.008 A 
ATOM      3  C   UNL     1       3.278   5.045  -1.006  0.00  0.00    +0.013 A 
ATOM      4  C   UNL     1       3.004   3.773  -0.500  0.00  0.00    +0.037 A 
ATOM      5  C   UNL     1       4.044   2.989   0.002  0.00  0.00    +0.013 A 
ATOM      6  C   UNL     1       5.337   3.470  -0.016  0.00  0.00    +0.008 A 
ENDROOT
BRANCH   4   7
ATOM      7  C   UNL     1       1.617   3.261  -0.489  0.00  0.00    +0.245 C 
ATOM      8  O   UNL     1       0.713   3.948  -0.922  0.00  0.00    -0.270 OA
ATOM      9  N   UNL     1       1.356   2.033   0.000  0.00  0.00    -0.300 N 
ATOM     10  H   UNL     1       2.174   1.411   0.392  0.00  0.00    +0.150 HD
BRANCH   9  11
ATOM     11  C   UNL     1      -0.019   1.526   0.010  0.00  0.00    +0.163 C 
BRANCH  11  12
ATOM     12  C   UNL     1      -0.724   2.012   1.250  0.00  0.00    +0.231 C 
ATOM     13  O   UNL     1      -0.137   2.713   2.047  0.00  0.00    -0.274 OA
ATOM     14  N   UNL     1      -2.008   1.667   1.474  0.00  0.00    -0.328 N 
ATOM     15  H   UNL     1      -2.523   2.022   2.379  0.00  0.00    +0.145 HD
ATOM     16  H   UNL     1      -2.541   1.032   0.751  0.00  0.00    +0.145 HD
ENDBRANCH  11  12
BRANCH  11  17
ATOM     17  C   UNL     1       0.002  -0.004   0.002  0.00  0.00    +0.067 C 
BRANCH  17  18
ATOM     18  C   UNL     1       0.597  -0.491  -1.294  0.00  0.00    -0.045 A 
ATOM     19  C   UNL     1      -0.222  -0.732  -2.382  0.00  0.00    +0.007 A 
ATOM     20  C   UNL     1       0.322  -1.173  -3.573  0.00  0.00    +0.045 A 
ATOM     21  C   UNL     1       1.689  -1.386  -3.673  0.00  0.00    +0.117 A 
ATOM     22  C   UNL     1       2.508  -1.149  -2.579  0.00  0.00    +0.045 A 
ATOM     23  C   UNL     1       1.960  -0.702  -1.392  0.00  0.00    +0.007 A 
BRANCH  21  24
ATOM     24  O   UNL     1       2.226  -1.825  -4.842  0.00  0.00    -0.507 OA
ATOM     25  H   UNL     1       3.310  -1.993  -4.921  0.00  0.00    +0.292 HD
ENDBRANCH  21  24
ENDBRANCH  17  18
ENDBRANCH  11  17
ENDBRANCH   9  11
ENDBRANCH   4   7
BRANCH   1  26
ATOM     26  C   UNL     1       7.016   5.253  -0.530  0.00  0.00    +0.264 C 
BRANCH  26  27
ATOM     27  O   UNL     1       7.278   5.946   0.692  0.00  0.00    -0.485 OA
BRANCH  27  34
ATOM     28  C   UNL     1       9.518   8.542   4.304  0.00  0.00    +0.020 A 
ATOM     29  C   UNL     1      10.474   8.427   3.335  0.00  0.00    +0.013 A 
ATOM     30  C   UNL     1      10.146   7.730   2.157  0.00  0.00    +0.022 A 
ATOM     31  C   UNL     1      11.078   7.571   1.117  0.00  0.00    +0.050 A 
ATOM     32  C   UNL     1      10.724   6.890  -0.008  0.00  0.00    +0.024 A 
ATOM     33  C   UNL     1       9.449   6.347  -0.145  0.00  0.00    +0.049 A 
ATOM     34  C   UNL     1       8.517   6.482   0.844  0.00  0.00    +0.147 A 
ATOM     35  C   UNL     1       8.846   7.185   2.022  0.00  0.00    +0.114 A 
ATOM     36  N   UNL     1       7.958   7.328   3.010  0.00  0.00    -0.251 NA
ATOM     37  C   UNL     1       8.260   7.977   4.109  0.00  0.00    +0.111 A 
ATOM     38 CL   UNL     1      12.673   8.240   1.266  0.00  0.00    -0.083 Cl
ENDBRANCH  27  34
ENDBRANCH  26  27
ENDBRANCH   1  26
TORSDOF 9
