REMARK  Name = ZINC20228674
REMARK  10 active torsions:
REMARK  status: ('A' for Active; 'I' for Inactive)
REMARK    1  A    between atoms: C_1  and  O_2
REMARK    2  A    between atoms: O_2  and  C_3
REMARK    3  A    between atoms: C_5  and  C_21
REMARK    4  A    between atoms: C_8  and  O_9
REMARK    5  A    between atoms: O_9  and  C_10
REMARK    6  A    between atoms: C_10  and  C_11
REMARK    7  A    between atoms: N_22  and  N_23
REMARK    8  A    between atoms: C_24  and  C_26
REMARK    9  A    between atoms: C_29  and  O_33
REMARK   10  A    between atoms: C_31  and  O_32
REMARK                            x       y       z     vdW  Elec       q    Type
REMARK                         _______ _______ _______ _____ _____    ______ ____
ROOT
ATOM      1  C   UNL     1      -5.325   7.696   0.090  0.00  0.00    +0.162 A 
ATOM      2  C   UNL     1      -5.527   9.063   0.098  0.00  0.00    +0.059 A 
ATOM      3  C   UNL     1      -4.430   9.928   0.092  0.00  0.00    -0.002 A 
ATOM      4  C   UNL     1      -3.134   9.406   0.078  0.00  0.00    +0.013 A 
ATOM      5  C   UNL     1      -2.940   8.041   0.075  0.00  0.00    +0.050 A 
ATOM      6  C   UNL     1      -4.030   7.183   0.075  0.00  0.00    +0.162 A 
ENDROOT
BRANCH   1   8
ATOM      7  C   UNL     1      -7.690   7.446   0.112  0.00  0.00    +0.277 C 
ATOM      8  O   UNL     1      -6.391   6.851   0.097  0.00  0.00    -0.491 OA
ENDBRANCH   1   8
BRANCH   3   9
ATOM      9  C   UNL     1      -4.639  11.387   0.100  0.00  0.00    +0.138 C 
ATOM     10  N   UNL     1      -3.618  12.189   0.094  0.00  0.00    -0.187 NA
BRANCH  10  11
ATOM     11  N   UNL     1      -3.817  13.576   0.102  0.00  0.00    -0.203 N 
ATOM     12  C   UNL     1      -2.757  14.409   0.096  0.00  0.00    +0.267 C 
ATOM     13  O   UNL     1      -1.628  13.956   0.084  0.00  0.00    -0.268 OA
ATOM     14  H   UNL     1      -4.838  13.985   0.113  0.00  0.00    +0.178 HD
BRANCH  12  15
ATOM     15  C   UNL     1      -2.966  15.867   0.104  0.00  0.00    +0.080 A 
ATOM     16  C   UNL     1      -4.263  16.390   0.118  0.00  0.00    +0.020 A 
ATOM     17  C   UNL     1      -4.454  17.752   0.126  0.00  0.00    +0.046 A 
ATOM     18  C   UNL     1      -3.360  18.613   0.120  0.00  0.00    +0.120 A 
ATOM     19  C   UNL     1      -2.070  18.105   0.107  0.00  0.00    +0.091 A 
ATOM     20  C   UNL     1      -1.864  16.736   0.103  0.00  0.00    +0.132 A 
BRANCH  20  21
ATOM     21  O   UNL     1      -0.603  16.237   0.095  0.00  0.00    -0.506 OA
ATOM     22  H   UNL     1       0.259  16.920   0.095  0.00  0.00    +0.292 HD
ENDBRANCH  20  21
BRANCH  18  23
ATOM     23  O   UNL     1      -3.557  19.956   0.129  0.00  0.00    -0.507 OA
ATOM     24  H   UNL     1      -2.695  20.639   0.124  0.00  0.00    +0.292 HD
ENDBRANCH  18  23
ENDBRANCH  12  15
ENDBRANCH  10  11
ENDBRANCH   3   9
BRANCH   6  25
ATOM     25  O   UNL     1      -3.834   5.838   0.067  0.00  0.00    -0.484 OA
BRANCH  25  26
ATOM     26  C   UNL     1      -2.480   5.380   0.052  0.00  0.00    +0.265 C 
BRANCH  26  27
ATOM     27  C   UNL     1      -2.460   3.873   0.045  0.00  0.00    -0.003 A 
ATOM     28  C   UNL     1      -3.627   3.173   0.053  0.00  0.00    +0.007 A 
ATOM     29  C   UNL     1      -3.628   1.779   0.047  0.00  0.00    +0.001 A 
ATOM     30  C   UNL     1      -2.462   1.078   0.032  0.00  0.00    +0.008 A 
ATOM     31  C   UNL     1      -1.237   1.766   0.018  0.00  0.00    -0.018 A 
ATOM     32  C   UNL     1      -1.236   3.183   0.030  0.00  0.00    -0.011 A 
ATOM     33  C   UNL     1      -0.011   3.871   0.021  0.00  0.00    +0.009 A 
ATOM     34  C   UNL     1       1.155   3.170   0.007  0.00  0.00    +0.001 A 
ATOM     35  C   UNL     1       1.155   1.776   0.001  0.00  0.00    +0.001 A 
ATOM     36  C   UNL     1      -0.013   1.076   0.008  0.00  0.00    +0.008 A 
ENDBRANCH  26  27
ENDBRANCH  25  26
ENDBRANCH   6  25
TORSDOF 9
