REMARK  Name = ZINC58990159
REMARK  10 active torsions:
REMARK  status: ('A' for Active; 'I' for Inactive)
REMARK    1  A    between atoms: C_4  and  C_7
REMARK    2  A    between atoms: C_7  and  C_8
REMARK    3  A    between atoms: C_8  and  C_9
REMARK    4  A    between atoms: C_12  and  S_15
REMARK    5  A    between atoms: N_13  and  N_14
REMARK    6  A    between atoms: S_15  and  C_16
REMARK    7  A    between atoms: C_16  and  C_17
REMARK    8  A    between atoms: N_19  and  N_20
REMARK    9  A    between atoms: C_21  and  C_22
REMARK   10  A    between atoms: C_27  and  O_28
REMARK                            x       y       z     vdW  Elec       q    Type
REMARK                         _______ _______ _______ _____ _____    ______ ____
ROOT
ATOM      1  S   UNL     1       9.370  -2.064   1.345  0.00  0.00    -0.075 S 
ENDROOT
BRANCH   1   5
ATOM      2  C   UNL     1       5.487  -1.699   1.381  0.00  0.00    +0.151 A 
ATOM      3  N   UNL     1       5.648  -2.992   1.368  0.00  0.00    -0.132 NA
ATOM      4  N   UNL     1       6.900  -3.280   1.354  0.00  0.00    -0.121 NA
ATOM      5  C   UNL     1       7.612  -2.177   1.359  0.00  0.00    +0.209 A 
ATOM      6  N   UNL     1       6.731  -1.133   1.371  0.00  0.00    -0.228 N 
BRANCH   6   7
ATOM      7  N   UNL     1       7.032   0.199   1.375  0.00  0.00    -0.295 N 
ATOM      8  H   UNL     1       7.122   0.547   2.318  0.00  0.00    +0.163 HD
ATOM      9  H   UNL     1       7.868   0.383   0.841  0.00  0.00    +0.163 HD
ENDBRANCH   6   7
BRANCH   2  10
ATOM     10  C   UNL     1       4.171  -0.963   1.399  0.00  0.00    +0.082 C 
BRANCH  10  11
ATOM     11  C   UNL     1       3.711  -0.707  -0.038  0.00  0.00    +0.043 C 
BRANCH  11  15
ATOM     12  C   UNL     1      -0.017   1.378   0.010  0.00  0.00    +0.000 A 
ATOM     13  C   UNL     1       1.171   2.086   0.002  0.00  0.00    +0.000 A 
ATOM     14  C   UNL     1       2.377   1.411  -0.013  0.00  0.00    +0.003 A 
ATOM     15  C   UNL     1       2.396   0.029  -0.020  0.00  0.00    -0.047 A 
ATOM     16  C   UNL     1       1.208  -0.679  -0.012  0.00  0.00    +0.003 A 
ATOM     17  C   UNL     1       0.002  -0.004   0.002  0.00  0.00    +0.000 A 
ENDBRANCH  11  15
ENDBRANCH  10  11
ENDBRANCH   2  10
ENDBRANCH   1   5
BRANCH   1  18
ATOM     18  C   UNL     1       9.921  -3.792   1.323  0.00  0.00    +0.174 C 
BRANCH  18  19
ATOM     19  C   UNL     1      11.427  -3.840   1.310  0.00  0.00    +0.242 C 
ATOM     20  O   UNL     1      12.066  -2.809   1.315  0.00  0.00    -0.273 OA
ATOM     21  N   UNL     1      12.064  -5.027   1.292  0.00  0.00    -0.206 N 
ATOM     22  H   UNL     1      11.552  -5.852   1.288  0.00  0.00    +0.177 HD
BRANCH  21  23
ATOM     23  N   UNL     1      13.464  -5.071   1.280  0.00  0.00    -0.188 NA
ATOM     24  C   UNL     1      14.077  -6.215   1.263  0.00  0.00    +0.142 C 
BRANCH  24  25
ATOM     25  C   UNL     1      15.550  -6.262   1.250  0.00  0.00    +0.037 A 
ATOM     26  C   UNL     1      16.214  -7.490   1.226  0.00  0.00    +0.028 A 
ATOM     27  C   UNL     1      17.593  -7.527   1.214  0.00  0.00    +0.019 A 
ATOM     28  C   UNL     1      18.322  -6.349   1.226  0.00  0.00    +0.019 A 
ATOM     29  C   UNL     1      17.677  -5.127   1.250  0.00  0.00    +0.047 A 
ATOM     30  C   UNL     1      16.292  -5.073   1.256  0.00  0.00    +0.126 A 
ATOM     31 BR   UNL     1      18.491  -9.190   1.182  0.00  0.00    -0.050 Br
BRANCH  30  32
ATOM     32  O   UNL     1      15.657  -3.873   1.274  0.00  0.00    -0.506 OA
ATOM     33  H   UNL     1      15.481  -3.534   2.163  0.00  0.00    +0.292 HD
ENDBRANCH  30  32
ENDBRANCH  24  25
ENDBRANCH  21  23
ENDBRANCH  18  19
ENDBRANCH   1  18
TORSDOF 10
