REMARK  Name = ZINC37538759
REMARK  15 active torsions:
REMARK  status: ('A' for Active; 'I' for Inactive)
REMARK    1  A    between atoms: C_1  and  C_2
REMARK    2  A    between atoms: C_4  and  O_20
REMARK    3  A    between atoms: C_6  and  C_17
REMARK    4  A    between atoms: C_10  and  C_16
REMARK    5  A    between atoms: C_11  and  O_15
REMARK    6  A    between atoms: C_17  and  C_18
REMARK    7  A    between atoms: C_17  and  C_19
REMARK    8  A    between atoms: O_20  and  C_21
REMARK    9  A    between atoms: C_23  and  O_39
REMARK   10  A    between atoms: C_25  and  O_38
REMARK   11  A    between atoms: C_27  and  O_37
REMARK   12  A    between atoms: C_29  and  C_32
REMARK   13  A    between atoms: C_32  and  O_33
REMARK   14  A    between atoms: O_33  and  C_34
REMARK   15  A    between atoms: C_34  and  C_36
REMARK                            x       y       z     vdW  Elec       q    Type
REMARK                         _______ _______ _______ _____ _____    ______ ____
ROOT
ATOM      1  O   UNL     1      -0.495   0.944  -2.706  0.00  0.00    -0.341 OA
ENDROOT
BRANCH   1   5
ATOM      2  C   UNL     1      -0.018   1.493   0.010  0.00  0.00    +0.039 C 
ATOM      3  C   UNL     1       0.002  -0.004   0.002  0.00  0.00    -0.074 C 
ATOM      4  C   UNL     1      -0.103  -0.781  -1.023  0.00  0.00    +0.003 C 
ATOM      5  C   UNL     1      -0.517  -0.448  -2.422  0.00  0.00    +0.148 C 
ATOM      6  C   UNL     1      -1.960  -0.997  -2.561  0.00  0.00    +0.028 C 
ATOM      7  C   UNL     1      -2.773  -0.523  -1.360  0.00  0.00    +0.034 C 
ATOM      8  C   UNL     1      -3.551  -1.615  -0.701  0.00  0.00    -0.025 C 
ATOM      9  C   UNL     1      -3.131  -2.406   0.245  0.00  0.00    -0.048 C 
ATOM     10  C   UNL     1      -1.756  -2.404   0.841  0.00  0.00    +0.140 C 
ATOM     11  C   UNL     1      -1.434  -1.139   1.626  0.00  0.00    +0.040 C 
ATOM     12  C   UNL     1       0.025  -0.721   1.352  0.00  0.00    +0.033 C 
ATOM     13  C   UNL     1      -4.131  -3.420   0.784  0.00  0.00    +0.041 C 
BRANCH   6  14
ATOM     14  C   UNL     1      -2.582  -0.467  -3.854  0.00  0.00    -0.011 C 
ATOM     15  C   UNL     1      -1.744  -0.925  -5.049  0.00  0.00    +0.007 C 
ATOM     16  C   UNL     1      -4.007  -1.007  -3.994  0.00  0.00    +0.007 C 
ENDBRANCH   6  14
BRANCH  10  17
ATOM     17  O   UNL     1      -1.653  -3.525   1.733  0.00  0.00    -0.388 OA
ATOM     18  H   UNL     1      -1.790  -4.382   1.306  0.00  0.00    +0.210 HD
ENDBRANCH  10  17
ENDBRANCH   1   5
BRANCH   1  19
ATOM     19  C   UNL     1       0.755   1.414  -3.213  0.00  0.00    +0.282 C 
ATOM     20  C   UNL     1       0.749   2.945  -3.247  0.00  0.00    +0.201 C 
ATOM     21  C   UNL     1       2.069   3.439  -3.848  0.00  0.00    +0.179 C 
ATOM     22  C   UNL     1       2.244   2.828  -5.242  0.00  0.00    +0.178 C 
ATOM     23  C   UNL     1       2.192   1.302  -5.131  0.00  0.00    +0.190 C 
ATOM     24  O   UNL     1       0.953   0.910  -4.536  0.00  0.00    -0.339 OA
BRANCH  22  25
ATOM     25  O   UNL     1       1.193   3.282  -6.098  0.00  0.00    -0.386 OA
ATOM     26  H   UNL     1       1.164   4.242  -6.210  0.00  0.00    +0.210 HD
ENDBRANCH  22  25
BRANCH  21  27
ATOM     27  O   UNL     1       2.043   4.865  -3.950  0.00  0.00    -0.386 OA
ATOM     28  H   UNL     1       1.928   5.317  -3.103  0.00  0.00    +0.210 HD
ENDBRANCH  21  27
BRANCH  20  29
ATOM     29  O   UNL     1      -0.343   3.401  -4.049  0.00  0.00    -0.384 OA
ATOM     30  H   UNL     1      -1.210   3.119  -3.728  0.00  0.00    +0.210 HD
ENDBRANCH  20  29
BRANCH  23  31
ATOM     31  C   UNL     1       2.306   0.685  -6.526  0.00  0.00    +0.266 C 
BRANCH  31  32
ATOM     32  O   UNL     1       2.374  -0.738  -6.413  0.00  0.00    -0.462 OA
BRANCH  32  33
ATOM     33  C   UNL     1       2.478  -1.436  -7.555  0.00  0.00    +0.304 C 
ATOM     34  O   UNL     1       2.510  -0.857  -8.616  0.00  0.00    -0.251 OA
ATOM     35  C   UNL     1       2.555  -2.940  -7.515  0.00  0.00    +0.136 C 
ENDBRANCH  32  33
ENDBRANCH  31  32
ENDBRANCH  23  31
ENDBRANCH   1  19
TORSDOF 10
