REMARK  Name = ZINC04863374
REMARK  6 active torsions:
REMARK  status: ('A' for Active; 'I' for Inactive)
REMARK    1  A    between atoms: C_4  and  C_20
REMARK    2  A    between atoms: C_6  and  N_7
REMARK    3  A    between atoms: C_8  and  C_10
REMARK    4  A    between atoms: C_10  and  S_11
REMARK    5  A    between atoms: S_11  and  C_12
REMARK    6  A    between atoms: C_14  and  N_19
REMARK                            x       y       z     vdW  Elec       q    Type
REMARK                         _______ _______ _______ _____ _____    ______ ____
ROOT
ATOM      1  N   UNL     1      -5.131   0.342   0.028  0.00  0.00    -0.285 N 
ATOM      2  C   UNL     1      -4.130   1.228  -0.138  0.00  0.00    +0.227 C 
ATOM      3  O   UNL     1      -4.380   2.406  -0.284  0.00  0.00    -0.275 OA
ATOM      4  H   UNL     1      -4.911  -0.735   0.074  0.00  0.00    +0.155 HD
ENDROOT
BRANCH   1  10
ATOM      5  C   UNL     1      -6.723   2.004   0.761  0.00  0.00    +0.025 A 
ATOM      6  C   UNL     1      -8.026   2.448   0.868  0.00  0.00    +0.022 A 
ATOM      7  C   UNL     1      -9.063   1.679   0.369  0.00  0.00    +0.053 A 
ATOM      8  C   UNL     1      -8.796   0.467  -0.244  0.00  0.00    +0.075 A 
ATOM      9  C   UNL     1      -7.494   0.022  -0.358  0.00  0.00    +0.037 A 
ATOM     10  C   UNL     1      -6.452   0.791   0.142  0.00  0.00    +0.034 A 
ATOM     11 CL   UNL     1     -10.701   2.236   0.511  0.00  0.00    -0.083 Cl
BRANCH   8  12
ATOM     12  C   UNL     1      -9.928  -0.367  -0.787  0.00  0.00    +0.419 C 
ATOM     13  F   UNL     1      -9.414  -1.537  -1.355  0.00  0.00    -0.166 F 
ATOM     14  F   UNL     1     -10.803  -0.699   0.253  0.00  0.00    -0.166 F 
ATOM     15  F   UNL     1     -10.617   0.361  -1.762  0.00  0.00    -0.166 F 
ENDBRANCH   8  12
ENDBRANCH   1  10
BRANCH   2  16
ATOM     16  C   UNL     1      -2.699   0.756  -0.142  0.00  0.00    +0.173 C 
BRANCH  16  17
ATOM     17  S   UNL     1      -1.597   2.172  -0.383  0.00  0.00    -0.078 S 
BRANCH  17  18
ATOM     18  C   UNL     1      -0.036   1.355  -0.347  0.00  0.00    +0.171 A 
ATOM     19  N   UNL     1       1.070   2.068  -0.500  0.00  0.00    -0.209 NA
ATOM     20  C   UNL     1       2.264   1.484  -0.484  0.00  0.00    +0.124 A 
ATOM     21  C   UNL     1       2.341   0.104  -0.303  0.00  0.00    +0.113 A 
ATOM     22  C   UNL     1       1.160  -0.609  -0.146  0.00  0.00    +0.254 A 
ATOM     23  N   UNL     1       0.001   0.042  -0.173  0.00  0.00    -0.302 N 
ATOM     24  O   UNL     1       1.188  -1.953   0.034  0.00  0.00    -0.268 OA
ATOM     25  H   UNL     1      -0.934  -0.523  -0.048  0.00  0.00    +0.171 HD
BRANCH  20  26
ATOM     26  N   UNL     1       3.417   2.236  -0.645  0.00  0.00    -0.343 N 
ATOM     27  H   UNL     1       4.401   1.745  -0.630  0.00  0.00    +0.144 HD
ATOM     28  H   UNL     1       3.348   3.325  -0.788  0.00  0.00    +0.144 HD
ENDBRANCH  20  26
ENDBRANCH  17  18
ENDBRANCH  16  17
ENDBRANCH   2  16
TORSDOF 6
