REMARK  Name = ZINC13977187
REMARK  7 active torsions:
REMARK  status: ('A' for Active; 'I' for Inactive)
REMARK    1  A    between atoms: C_6  and  O_29
REMARK    2  A    between atoms: C_7  and  C_11
REMARK    3  A    between atoms: N_13  and  N_14
REMARK    4  A    between atoms: N_14  and  C_15
REMARK    5  A    between atoms: C_15  and  N_17
REMARK    6  A    between atoms: C_18  and  C_20
REMARK    7  A    between atoms: C_21  and  C_22
REMARK                            x       y       z     vdW  Elec       q    Type
REMARK                         _______ _______ _______ _____ _____    ______ ____
ROOT
ATOM      1  N   UNL     1       3.478   1.934  -0.021  0.00  0.00    -0.245 N 
ATOM      2  H   UNL     1       4.324   1.461  -0.031  0.00  0.00    +0.172 HD
ENDROOT
BRANCH   1   5
ATOM      3  C   UNL     1       4.616   4.025  -0.020  0.00  0.00    +0.264 C 
ATOM      4  O   UNL     1       5.678   3.431  -0.034  0.00  0.00    -0.269 OA
ATOM      5  N   UNL     1       3.458   3.335  -0.013  0.00  0.00    -0.231 N 
ATOM      6  H   UNL     1       2.612   3.808  -0.002  0.00  0.00    +0.173 HD
BRANCH   3  13
ATOM      7  C   UNL     1       2.181   9.649   0.030  0.00  0.00    +0.001 A 
ATOM      8  C   UNL     1       3.386  10.349   0.023  0.00  0.00    +0.001 A 
ATOM      9  C   UNL     1       4.578   9.692   0.009  0.00  0.00    +0.008 A 
ATOM     10  C   UNL     1       4.599   8.287   0.002  0.00  0.00    -0.014 A 
ATOM     11  C   UNL     1       5.815   7.582  -0.013  0.00  0.00    +0.054 A 
ATOM     12  C   UNL     1       5.811   6.218  -0.020  0.00  0.00    +0.130 A 
ATOM     13  C   UNL     1       4.596   5.500  -0.012  0.00  0.00    +0.080 A 
ATOM     14  C   UNL     1       3.385   6.172  -0.003  0.00  0.00    +0.025 A 
ATOM     15  C   UNL     1       3.372   7.574   0.010  0.00  0.00    -0.017 A 
ATOM     16  C   UNL     1       2.161   8.289   0.024  0.00  0.00    +0.008 A 
BRANCH  12  17
ATOM     17  O   UNL     1       6.989   5.544  -0.035  0.00  0.00    -0.506 OA
ATOM     18  H   UNL     1       7.322   5.353  -0.923  0.00  0.00    +0.292 HD
ENDBRANCH  12  17
ENDBRANCH   3  13
ENDBRANCH   1   5
BRANCH   1  19
ATOM     19  C   UNL     1       2.320   1.244  -0.013  0.00  0.00    +0.153 C 
ATOM     20  S   UNL     1       2.343  -0.467  -0.023  0.00  0.00    -0.017 S 
BRANCH  19  21
ATOM     21  N   UNL     1       1.143   1.902   0.001  0.00  0.00    -0.263 N 
ATOM     22  C   UNL     1      -0.014   1.213   0.009  0.00  0.00    +0.242 C 
ATOM     23  O   UNL     1       0.002  -0.004   0.002  0.00  0.00    -0.270 OA
ATOM     24  H   UNL     1       1.130   2.872   0.007  0.00  0.00    +0.157 HD
BRANCH  22  25
ATOM     25  C   UNL     1      -1.290   1.927   0.019  0.00  0.00    +0.068 C 
ATOM     26  C   UNL     1      -2.450   1.236   0.020  0.00  0.00    +0.013 C 
BRANCH  26  27
ATOM     27  C   UNL     1      -3.734   1.954   0.030  0.00  0.00    -0.025 A 
ATOM     28  C   UNL     1      -3.756   3.353   0.044  0.00  0.00    +0.011 A 
ATOM     29  C   UNL     1      -4.962   4.019   0.049  0.00  0.00    +0.039 A 
ATOM     30  C   UNL     1      -6.152   3.306   0.051  0.00  0.00    +0.123 A 
ATOM     31  C   UNL     1      -6.137   1.920   0.042  0.00  0.00    +0.039 A 
ATOM     32  C   UNL     1      -4.938   1.241   0.032  0.00  0.00    +0.011 A 
ATOM     33  F   UNL     1      -7.331   3.966   0.061  0.00  0.00    -0.205 F 
ENDBRANCH  26  27
ENDBRANCH  22  25
ENDBRANCH  19  21
ENDBRANCH   1  19
TORSDOF 7
