REMARK  Name = ZINC59045482
REMARK  7 active torsions:
REMARK  status: ('A' for Active; 'I' for Inactive)
REMARK    1  A    between atoms: C_4  and  O_28
REMARK    2  A    between atoms: C_5  and  C_7
REMARK    3  A    between atoms: C_10  and  S_13
REMARK    4  A    between atoms: N_11  and  N_12
REMARK    5  A    between atoms: S_13  and  C_14
REMARK    6  A    between atoms: C_14  and  C_15
REMARK    7  A    between atoms: N_17  and  C_18
REMARK                            x       y       z     vdW  Elec       q    Type
REMARK                         _______ _______ _______ _____ _____    ______ ____
ROOT
ATOM      1  C   UNL     1       1.248  -2.161  -0.022  0.00  0.00    +0.185 A 
ATOM      2  N   UNL     1       2.318  -2.922  -0.031  0.00  0.00    -0.127 NA
ATOM      3  N   UNL     1       1.975  -4.160  -0.037  0.00  0.00    -0.121 NA
ATOM      4  C   UNL     1       0.665  -4.266  -0.032  0.00  0.00    +0.209 A 
ATOM      5  N   UNL     1       0.157  -2.999  -0.016  0.00  0.00    -0.224 N 
ENDROOT
BRANCH   1  10
ATOM      6  C   UNL     1      -0.017   1.375   0.010  0.00  0.00    +0.001 A 
ATOM      7  C   UNL     1       1.169   2.089   0.002  0.00  0.00    +0.004 A 
ATOM      8  C   UNL     1       2.383   1.427  -0.013  0.00  0.00    +0.046 A 
ATOM      9  C   UNL     1       2.418   0.042  -0.021  0.00  0.00    +0.128 A 
ATOM     10  C   UNL     1       1.221  -0.683  -0.013  0.00  0.00    +0.062 A 
ATOM     11  C   UNL     1       0.002  -0.004   0.002  0.00  0.00    +0.015 A 
BRANCH   9  12
ATOM     12  O   UNL     1       3.610  -0.609  -0.036  0.00  0.00    -0.506 OA
ATOM     13  H   UNL     1       3.964  -0.802   0.843  0.00  0.00    +0.292 HD
ENDBRANCH   9  12
ENDBRANCH   1  10
BRANCH   5  14
ATOM     14  N   UNL     1      -1.161  -2.638  -0.001  0.00  0.00    -0.295 N 
ATOM     15  H   UNL     1      -1.519  -2.537  -0.939  0.00  0.00    +0.163 HD
ATOM     16  H   UNL     1      -1.711  -3.299   0.526  0.00  0.00    +0.163 HD
ENDBRANCH   5  14
BRANCH   4  17
ATOM     17  S   UNL     1      -0.262  -5.765  -0.037  0.00  0.00    -0.075 S 
BRANCH  17  18
ATOM     18  C   UNL     1       1.004  -7.064  -0.050  0.00  0.00    +0.173 C 
BRANCH  18  19
ATOM     19  C   UNL     1       0.337  -8.415  -0.056  0.00  0.00    +0.224 C 
ATOM     20  O   UNL     1      -0.873  -8.494  -0.052  0.00  0.00    -0.275 OA
ATOM     21  N   UNL     1       1.085  -9.536  -0.066  0.00  0.00    -0.311 N 
ATOM     22  H   UNL     1       2.053  -9.473  -0.070  0.00  0.00    +0.149 HD
BRANCH  21  23
ATOM     23  C   UNL     1       0.437 -10.850  -0.072  0.00  0.00    +0.079 C 
ATOM     24  C   UNL     1       0.104 -11.261   1.364  0.00  0.00    +0.010 C 
ATOM     25  C   UNL     1      -0.573 -12.632   1.359  0.00  0.00    +0.009 C 
ATOM     26  C   UNL     1       0.371 -13.665   0.739  0.00  0.00    -0.010 C 
ATOM     27  C   UNL     1       1.659 -13.736   1.560  0.00  0.00    +0.007 C 
ATOM     28  C   UNL     1       2.337 -12.364   1.566  0.00  0.00    -0.010 C 
ATOM     29  C   UNL     1       1.393 -11.331   2.186  0.00  0.00    +0.009 C 
ATOM     30  C   UNL     1       2.669 -11.953   0.130  0.00  0.00    +0.009 C 
ATOM     31  C   UNL     1       1.381 -11.882  -0.691  0.00  0.00    +0.010 C 
ATOM     32  C   UNL     1       0.703 -13.254  -0.697  0.00  0.00    +0.009 C 
ENDBRANCH  21  23
ENDBRANCH  18  19
ENDBRANCH  17  18
ENDBRANCH   4  17
TORSDOF 7
