REMARK  Name = ZINC38959983
REMARK  8 active torsions:
REMARK  status: ('A' for Active; 'I' for Inactive)
REMARK    1  A    between atoms: C_4  and  N_7
REMARK    2  A    between atoms: C_8  and  C_30
REMARK    3  A    between atoms: C_12  and  S_14
REMARK    4  A    between atoms: S_14  and  C_15
REMARK    5  A    between atoms: C_15  and  C_16
REMARK    6  A    between atoms: N_18  and  N_19
REMARK    7  A    between atoms: C_20  and  C_21
REMARK    8  A    between atoms: C_34  and  N_36
REMARK                            x       y       z     vdW  Elec       q    Type
REMARK                         _______ _______ _______ _____ _____    ______ ____
ROOT
ATOM      1  N   UNL     1       2.713  -1.553  -0.666  0.00  0.00    -0.284 N 
ATOM      2  C   UNL     1       3.843  -1.952   0.192  0.00  0.00    +0.188 C 
ATOM      3  N   UNL     1       4.712  -0.761   0.327  0.00  0.00    -0.230 NA
ATOM      4  N   UNL     1       4.402   0.055  -0.858  0.00  0.00    -0.226 NA
ATOM      5  C   UNL     1       2.940  -0.139  -1.025  0.00  0.00    +0.218 C 
ATOM      6  H   UNL     1       4.506  -0.258   1.177  0.00  0.00    +0.143 HD
ATOM      7  H   UNL     1       4.624   1.026  -0.696  0.00  0.00    +0.143 HD
ENDROOT
BRANCH   1  11
ATOM      8  C   UNL     1      -0.478  -3.947  -1.857  0.00  0.00    +0.000 A 
ATOM      9  C   UNL     1      -0.465  -2.603  -2.182  0.00  0.00    +0.002 A 
ATOM     10  C   UNL     1       0.592  -1.806  -1.788  0.00  0.00    +0.023 A 
ATOM     11  C   UNL     1       1.643  -2.356  -1.065  0.00  0.00    +0.033 A 
ATOM     12  C   UNL     1       1.626  -3.707  -0.740  0.00  0.00    +0.023 A 
ATOM     13  C   UNL     1       0.566  -4.498  -1.137  0.00  0.00    +0.002 A 
ENDBRANCH   1  11
BRANCH   2  14
ATOM     14  C   UNL     1       3.338  -2.381   1.545  0.00  0.00    -0.009 A 
ATOM     15  C   UNL     1       2.751  -1.456   2.389  0.00  0.00    +0.007 A 
ATOM     16  C   UNL     1       2.288  -1.848   3.630  0.00  0.00    +0.003 A 
ATOM     17  C   UNL     1       2.411  -3.167   4.028  0.00  0.00    +0.033 A 
ATOM     18  C   UNL     1       2.997  -4.091   3.185  0.00  0.00    +0.127 A 
ATOM     19  C   UNL     1       3.457  -3.699   1.942  0.00  0.00    +0.039 A 
BRANCH  18  20
ATOM     20  N   UNL     1       3.130  -5.503   3.612  0.00  0.00    +0.056 N 
ATOM     21  O   UNL     1       2.725  -5.846   4.698  0.00  0.00    -0.126 OA
ATOM     22  O   UNL     1       3.643  -6.312   2.874  0.00  0.00    -0.126 OA
ENDBRANCH  18  20
ENDBRANCH   2  14
BRANCH   5  23
ATOM     23  S   UNL     1       2.027   0.955   0.098  0.00  0.00    -0.112 S 
BRANCH  23  24
ATOM     24  C   UNL     1       1.765   2.463  -0.876  0.00  0.00    +0.169 C 
BRANCH  24  25
ATOM     25  C   UNL     1       0.899   3.420  -0.097  0.00  0.00    +0.242 C 
ATOM     26  O   UNL     1       0.499   3.115   1.006  0.00  0.00    -0.273 OA
ATOM     27  N   UNL     1       0.570   4.615  -0.626  0.00  0.00    -0.206 N 
ATOM     28  H   UNL     1       0.891   4.859  -1.509  0.00  0.00    +0.177 HD
BRANCH  27  29
ATOM     29  N   UNL     1      -0.234   5.505   0.098  0.00  0.00    -0.188 NA
ATOM     30  C   UNL     1      -0.554   6.665  -0.416  0.00  0.00    +0.136 C 
BRANCH  30  31
ATOM     31  C   UNL     1      -1.359   7.556   0.309  0.00  0.00    +0.000 C 
ATOM     32  C   UNL     1      -1.792   8.817  -0.092  0.00  0.00    +0.004 A 
ATOM     33  C   UNL     1      -1.583   9.568  -1.271  0.00  0.00    +0.010 A 
ATOM     34  C   UNL     1      -2.140  10.799  -1.391  0.00  0.00    +0.001 A 
ATOM     35  C   UNL     1      -2.921  11.353  -0.373  0.00  0.00    +0.002 A 
ATOM     36  C   UNL     1      -3.164  10.691   0.783  0.00  0.00    +0.026 A 
ATOM     37  C   UNL     1      -2.615   9.396   0.984  0.00  0.00    +0.043 A 
ATOM     38  N   UNL     1      -2.700   8.562   1.998  0.00  0.00    -0.380 N 
ATOM     39  C   UNL     1      -1.944   7.344   1.688  0.00  0.00    +0.150 C 
ATOM     40  H   UNL     1      -3.188   8.725   2.820  0.00  0.00    +0.160 HD
ENDBRANCH  30  31
ENDBRANCH  27  29
ENDBRANCH  24  25
ENDBRANCH  23  24
ENDBRANCH   5  23
TORSDOF 8
