REMARK  Name = ZINC20906915
REMARK  7 active torsions:
REMARK  status: ('A' for Active; 'I' for Inactive)
REMARK    1  A    between atoms: C_10  and  N_11
REMARK    2  A    between atoms: C_12  and  C_14
REMARK    3  A    between atoms: C_14  and  S_15
REMARK    4  A    between atoms: S_15  and  C_16
REMARK    5  A    between atoms: N_21  and  N_22
REMARK    6  A    between atoms: C_23  and  C_24
REMARK    7  A    between atoms: C_33  and  O_34
REMARK                            x       y       z     vdW  Elec       q    Type
REMARK                         _______ _______ _______ _____ _____    ______ ____
ROOT
ATOM      1  C   UNL     1       0.116   1.040   2.823  0.00  0.00    +0.211 A 
ATOM      2  N   UNL     1      -0.127   1.216   4.156  0.00  0.00    -0.186 NA
ATOM      3  C   UNL     1       0.848   0.557   4.853  0.00  0.00    +0.232 A 
ATOM      4  N   UNL     1       1.658  -0.002   3.987  0.00  0.00    -0.245 N 
ATOM      5  N   UNL     1       1.192   0.300   2.701  0.00  0.00    -0.144 NA
ATOM      6  N   UNL     1       0.960   0.493   6.234  0.00  0.00    -0.205 N 
ATOM      7  H   UNL     1       0.221   1.002   6.870  0.00  0.00    +0.177 HD
ATOM      8  H   UNL     1       2.522  -0.584   4.339  0.00  0.00    +0.192 HD
ENDROOT
BRANCH   6   9
ATOM      9  N   UNL     1       2.014  -0.221   6.818  0.00  0.00    -0.187 NA
ATOM     10  C   UNL     1       2.119  -0.282   8.113  0.00  0.00    +0.142 C 
BRANCH  10  11
ATOM     11  C   UNL     1       3.225  -1.031   8.726  0.00  0.00    +0.044 A 
ATOM     12  C   UNL     1       3.359  -1.109  10.180  0.00  0.00    -0.006 A 
ATOM     13  C   UNL     1       2.444  -0.479  11.032  0.00  0.00    +0.009 A 
ATOM     14  C   UNL     1       2.604  -0.577  12.383  0.00  0.00    +0.001 A 
ATOM     15  C   UNL     1       3.665  -1.296  12.927  0.00  0.00    +0.001 A 
ATOM     16  C   UNL     1       4.572  -1.922  12.127  0.00  0.00    +0.008 A 
ATOM     17  C   UNL     1       4.439  -1.842  10.730  0.00  0.00    -0.017 A 
ATOM     18  C   UNL     1       5.355  -2.475   9.872  0.00  0.00    +0.012 A 
ATOM     19  C   UNL     1       5.216  -2.392   8.522  0.00  0.00    +0.046 A 
ATOM     20  C   UNL     1       4.167  -1.687   7.934  0.00  0.00    +0.126 A 
BRANCH  20  21
ATOM     21  O   UNL     1       4.064  -1.635   6.581  0.00  0.00    -0.506 OA
ATOM     22  H   UNL     1       4.805  -2.151   5.953  0.00  0.00    +0.292 HD
ENDBRANCH  20  21
ENDBRANCH  10  11
ENDBRANCH   6   9
BRANCH   1  23
ATOM     23  S   UNL     1      -0.852   1.688   1.500  0.00  0.00    -0.075 S 
BRANCH  23  24
ATOM     24  C   UNL     1      -0.005   1.099   0.008  0.00  0.00    +0.173 C 
BRANCH  24  26
ATOM     25  N   UNL     1      -0.288   1.272  -2.443  0.00  0.00    -0.284 N 
ATOM     26  C   UNL     1      -0.739   1.589  -1.213  0.00  0.00    +0.228 C 
ATOM     27  O   UNL     1      -1.736   2.268  -1.089  0.00  0.00    -0.275 OA
ATOM     28  H   UNL     1       0.656   0.720  -2.558  0.00  0.00    +0.155 HD
BRANCH  25  38
ATOM     29  C   UNL     1      -1.144  -0.799  -6.965  0.00  0.00    +0.001 A 
ATOM     30  C   UNL     1      -0.407  -1.190  -5.849  0.00  0.00    +0.001 A 
ATOM     31  C   UNL     1      -0.354  -0.409  -4.736  0.00  0.00    +0.010 A 
ATOM     32  C   UNL     1      -1.047   0.812  -4.710  0.00  0.00    +0.003 A 
ATOM     33  C   UNL     1      -1.800   1.209  -5.843  0.00  0.00    -0.016 A 
ATOM     34  C   UNL     1      -1.831   0.375  -6.975  0.00  0.00    +0.008 A 
ATOM     35  C   UNL     1      -2.497   2.428  -5.817  0.00  0.00    +0.008 A 
ATOM     36  C   UNL     1      -2.449   3.216  -4.707  0.00  0.00    +0.002 A 
ATOM     37  C   UNL     1      -1.717   2.834  -3.587  0.00  0.00    +0.024 A 
ATOM     38  C   UNL     1      -1.020   1.646  -3.572  0.00  0.00    +0.041 A 
ENDBRANCH  25  38
ENDBRANCH  24  26
ENDBRANCH  23  24
ENDBRANCH   1  23
TORSDOF 7
