REMARK  Name = ZINC15575248
REMARK  8 active torsions:
REMARK  status: ('A' for Active; 'I' for Inactive)
REMARK    1  A    between atoms: C_1  and  C_2
REMARK    2  A    between atoms: C_2  and  C_3
REMARK    3  A    between atoms: C_2  and  C_4
REMARK    4  A    between atoms: C_4  and  C_5
REMARK    5  A    between atoms: C_5  and  C_7
REMARK    6  A    between atoms: C_5  and  N_22
REMARK    7  A    between atoms: N_9  and  C_10
REMARK    8  A    between atoms: C_23  and  C_25
REMARK                            x       y       z     vdW  Elec       q    Type
REMARK                         _______ _______ _______ _____ _____    ______ ____
ROOT
ATOM      1  C   UNL     1      -0.466   1.405   1.549  0.00  0.00    +0.160 C 
ENDROOT
BRANCH   1   2
ATOM      2  C   UNL     1       0.535   0.726   2.448  0.00  0.00    +0.238 C 
ATOM      3  O   UNL     1       1.146   1.373   3.273  0.00  0.00    -0.273 OA
ATOM      4  N   UNL     1       0.751  -0.600   2.337  0.00  0.00    -0.284 N 
ATOM      5  H   UNL     1       0.315  -1.105   1.633  0.00  0.00    +0.155 HD
BRANCH   4   6
ATOM      6  C   UNL     1       1.605  -1.248   3.238  0.00  0.00    +0.036 A 
ATOM      7  C   UNL     1       1.336  -2.554   3.632  0.00  0.00    +0.025 A 
ATOM      8  C   UNL     1       2.174  -3.198   4.520  0.00  0.00    +0.029 A 
ATOM      9  C   UNL     1       3.288  -2.542   5.020  0.00  0.00    +0.067 A 
ATOM     10  C   UNL     1       3.562  -1.231   4.626  0.00  0.00    +0.069 A 
ATOM     11  C   UNL     1       2.722  -0.589   3.730  0.00  0.00    +0.051 A 
ATOM     12  N   UNL     1       4.728  -0.848   5.285  0.00  0.00    -0.306 N 
ATOM     13  H   UNL     1       5.165   0.015   5.209  0.00  0.00    +0.170 HD
ATOM     14  C   UNL     1       5.144  -1.877   6.046  0.00  0.00    +0.325 A 
ATOM     15  O   UNL     1       6.136  -1.871   6.750  0.00  0.00    -0.247 OA
ATOM     16  N   UNL     1       4.298  -2.915   5.908  0.00  0.00    -0.306 N 
ATOM     17  H   UNL     1       4.376  -3.774   6.351  0.00  0.00    +0.170 HD
ENDBRANCH   4   6
ENDBRANCH   1   2
BRANCH   1  18
ATOM     18  N   UNL     1      -0.880   2.675   2.150  0.00  0.00    -0.300 N 
ATOM     19  C   UNL     1      -2.104   3.175   1.891  0.00  0.00    +0.246 C 
ATOM     20  O   UNL     1      -2.898   2.530   1.234  0.00  0.00    -0.270 OA
ATOM     21  H   UNL     1      -0.273   3.156   2.734  0.00  0.00    +0.150 HD
BRANCH  19  22
ATOM     22  C   UNL     1      -2.482   4.507   2.405  0.00  0.00    +0.055 A 
ATOM     23  C   UNL     1      -1.572   5.251   3.160  0.00  0.00    +0.016 A 
ATOM     24  C   UNL     1      -1.930   6.494   3.638  0.00  0.00    +0.021 A 
ATOM     25  C   UNL     1      -3.189   7.006   3.370  0.00  0.00    +0.042 A 
ATOM     26  C   UNL     1      -4.096   6.275   2.623  0.00  0.00    +0.040 A 
ATOM     27  C   UNL     1      -3.748   5.032   2.134  0.00  0.00    +0.054 A 
ATOM     28 CL   UNL     1      -4.884   4.119   1.190  0.00  0.00    -0.083 Cl
ATOM     29 CL   UNL     1      -3.631   8.572   3.975  0.00  0.00    -0.083 Cl
ENDBRANCH  19  22
ENDBRANCH   1  18
BRANCH   1  30
ATOM     30  C   UNL     1       0.173   1.671   0.184  0.00  0.00    +0.034 C 
BRANCH  30  32
ATOM     31  C   UNL     1      -0.866  -0.357  -0.842  0.00  0.00    +0.007 C 
ATOM     32  C   UNL     1       0.457   0.339  -0.514  0.00  0.00    -0.015 C 
ATOM     33  C   UNL     1       1.232   0.597  -1.808  0.00  0.00    +0.007 C 
ENDBRANCH  30  32
ENDBRANCH   1  30
TORSDOF 6
