REMARK  Name = ZINC20470997
REMARK  5 active torsions:
REMARK  status: ('A' for Active; 'I' for Inactive)
REMARK    1  A    between atoms: C_1  and  C_2
REMARK    2  A    between atoms: C_5  and  N_9
REMARK    3  A    between atoms: N_9  and  S_10
REMARK    4  A    between atoms: S_10  and  C_13
REMARK    5  A    between atoms: C_17  and  N_19
REMARK                            x       y       z     vdW  Elec       q    Type
REMARK                         _______ _______ _______ _____ _____    ______ ____
ROOT
ATOM      1  S   UNL     1       2.513  -0.377  -0.741  0.00  0.00    +0.072 S 
ATOM      2  O   UNL     1       3.837  -0.842  -0.513  0.00  0.00    -0.150 OA
ATOM      3  O   UNL     1       1.367  -1.114  -0.338  0.00  0.00    -0.150 OA
ENDROOT
BRANCH   1   4
ATOM      4  C   UNL     1       2.362  -0.120  -2.478  0.00  0.00    +0.110 A 
ATOM      5  C   UNL     1       1.115  -0.156  -3.075  0.00  0.00    +0.030 A 
ATOM      6  C   UNL     1       0.991   0.050  -4.437  0.00  0.00    +0.024 A 
ATOM      7  C   UNL     1       2.115   0.282  -5.207  0.00  0.00    +0.062 A 
ATOM      8  C   UNL     1       3.370   0.314  -4.610  0.00  0.00    +0.045 A 
ATOM      9  C   UNL     1       3.490   0.112  -3.241  0.00  0.00    +0.053 A 
ATOM     10 CL   UNL     1       1.960   0.534  -6.917  0.00  0.00    -0.082 Cl
BRANCH   8  11
ATOM     11  N   UNL     1       4.509   0.548  -5.385  0.00  0.00    -0.357 N 
ATOM     12  H   UNL     1       5.501   0.573  -4.912  0.00  0.00    +0.142 HD
ATOM     13  H   UNL     1       4.413   0.709  -6.469  0.00  0.00    +0.142 HD
ENDBRANCH   8  11
ENDBRANCH   1   4
BRANCH   1  14
ATOM     14  N   UNL     1       2.401   1.107  -0.015  0.00  0.00    -0.215 N 
ATOM     15  H   UNL     1       3.238   1.489   0.589  0.00  0.00    +0.174 HD
BRANCH  14  20
ATOM     16  C   UNL     1      -2.298   4.222  -0.642  0.00  0.00    +0.044 C 
ATOM     17  C   UNL     1      -1.049   3.395  -0.475  0.00  0.00    -0.049 A 
ATOM     18  C   UNL     1      -1.140   2.017  -0.393  0.00  0.00    +0.005 A 
ATOM     19  C   UNL     1       0.002   1.256  -0.235  0.00  0.00    +0.026 A 
ATOM     20  C   UNL     1       1.244   1.875  -0.169  0.00  0.00    +0.066 A 
ATOM     21  C   UNL     1       1.332   3.259  -0.257  0.00  0.00    +0.064 A 
ATOM     22  C   UNL     1       0.185   4.015  -0.410  0.00  0.00    +0.025 A 
ATOM     23 CL   UNL     1       2.881   4.038  -0.175  0.00  0.00    -0.082 Cl
ENDBRANCH  14  20
ENDBRANCH   1  14
TORSDOF 4
