REMARK  Name = ZINC20911359
REMARK  12 active torsions:
REMARK  status: ('A' for Active; 'I' for Inactive)
REMARK    1  A    between atoms: C_1  and  C_2
REMARK    2  A    between atoms: C_3  and  C_11
REMARK    3  A    between atoms: C_4  and  C_10
REMARK    4  A    between atoms: N_5  and  C_7
REMARK    5  A    between atoms: C_7  and  C_8
REMARK    6  A    between atoms: C_7  and  C_9
REMARK    7  A    between atoms: N_12  and  N_13
REMARK    8  A    between atoms: C_17  and  S_20
REMARK    9  A    between atoms: N_18  and  N_19
REMARK   10  A    between atoms: S_20  and  C_21
REMARK   11  A    between atoms: C_21  and  C_22
REMARK   12  A    between atoms: N_24  and  C_25
REMARK                            x       y       z     vdW  Elec       q    Type
REMARK                         _______ _______ _______ _____ _____    ______ ____
ROOT
ATOM      1  N   UNL     1      -0.034  -4.091  -4.529  0.00  0.00    -0.204 N 
ATOM      2  C   UNL     1       0.018  -3.204  -3.465  0.00  0.00    +0.254 A 
ATOM      3  N   UNL     1       0.909  -2.257  -3.293  0.00  0.00    -0.109 NA
ATOM      4  N   UNL     1       0.603  -1.586  -2.102  0.00  0.00    -0.119 NA
ATOM      5  C   UNL     1      -0.460  -2.150  -1.580  0.00  0.00    +0.210 A 
ATOM      6  N   UNL     1      -0.852  -3.162  -2.410  0.00  0.00    -0.211 N 
ATOM      7  H   UNL     1      -0.829  -4.850  -4.575  0.00  0.00    +0.177 HD
ENDROOT
BRANCH   6   8
ATOM      8  N   UNL     1      -1.923  -3.987  -2.220  0.00  0.00    -0.294 N 
ATOM      9  H   UNL     1      -2.561  -3.865  -1.332  0.00  0.00    +0.163 HD
ATOM     10  H   UNL     1      -2.149  -4.774  -2.955  0.00  0.00    +0.163 HD
ENDBRANCH   6   8
BRANCH   1  12
ATOM     11  C   UNL     1       0.878  -4.851  -6.543  0.00  0.00    +0.141 C 
ATOM     12  N   UNL     1       0.926  -4.021  -5.547  0.00  0.00    -0.187 NA
BRANCH  11  15
ATOM     13  C   UNL     1       3.278  -2.784  -6.689  0.00  0.00    +0.068 C 
ATOM     14  C   UNL     1       2.963  -3.864  -7.692  0.00  0.00    +0.069 A 
ATOM     15  C   UNL     1       1.890  -4.778  -7.615  0.00  0.00    +0.038 A 
ATOM     16  C   UNL     1       1.966  -5.592  -8.724  0.00  0.00    +0.045 A 
ATOM     17  N   UNL     1       3.030  -5.189  -9.448  0.00  0.00    -0.265 N 
ATOM     18  N   UNL     1       3.634  -4.115  -8.783  0.00  0.00    -0.175 NA
ATOM     19  C   UNL     1       1.031  -6.723  -9.066  0.00  0.00    +0.066 C 
BRANCH  17  20
ATOM     20  C   UNL     1       3.480  -5.777 -10.712  0.00  0.00    +0.101 C 
ATOM     21  C   UNL     1       3.455  -4.711 -11.809  0.00  0.00    +0.032 C 
ATOM     22  C   UNL     1       4.906  -6.308 -10.549  0.00  0.00    +0.032 C 
ENDBRANCH  17  20
ENDBRANCH  11  15
ENDBRANCH   1  12
BRANCH   5  23
ATOM     23  S   UNL     1      -1.250  -1.680  -0.077  0.00  0.00    -0.075 S 
BRANCH  23  24
ATOM     24  C   UNL     1      -0.250  -0.292   0.529  0.00  0.00    +0.173 C 
BRANCH  24  25
ATOM     25  C   UNL     1      -0.824   0.212   1.828  0.00  0.00    +0.228 C 
ATOM     26  O   UNL     1      -1.811  -0.313   2.299  0.00  0.00    -0.275 OA
ATOM     27  N   UNL     1      -0.242   1.246   2.466  0.00  0.00    -0.282 N 
ATOM     28  H   UNL     1       0.699   1.669   2.083  0.00  0.00    +0.155 HD
BRANCH  27  29
ATOM     29  C   UNL     1      -0.834   1.782   3.616  0.00  0.00    +0.070 A 
ATOM     30  C   UNL     1      -1.765   2.807   3.506  0.00  0.00    +0.064 A 
ATOM     31  C   UNL     1      -2.351   3.332   4.643  0.00  0.00    +0.022 A 
ATOM     32  C   UNL     1      -2.004   2.843   5.889  0.00  0.00    +0.003 A 
ATOM     33  C   UNL     1      -1.073   1.827   6.003  0.00  0.00    +0.022 A 
ATOM     34  C   UNL     1      -0.487   1.294   4.870  0.00  0.00    +0.064 A 
ATOM     35 CL   UNL     1       0.681   0.019   5.013  0.00  0.00    -0.082 Cl
ATOM     36 CL   UNL     1      -2.197   3.425   1.942  0.00  0.00    -0.082 Cl
ENDBRANCH  27  29
ENDBRANCH  24  25
ENDBRANCH  23  24
ENDBRANCH   5  23
TORSDOF 8
