REMARK  Name = ZINC39868766
REMARK  6 active torsions:
REMARK  status: ('A' for Active; 'I' for Inactive)
REMARK    1  A    between atoms: C_1  and  N_2
REMARK    2  A    between atoms: C_3  and  C_5
REMARK    3  A    between atoms: C_9  and  N_10
REMARK    4  A    between atoms: C_11  and  C_13
REMARK    5  A    between atoms: C_16  and  O_20
REMARK    6  A    between atoms: O_20  and  C_21
REMARK                            x       y       z     vdW  Elec       q    Type
REMARK                         _______ _______ _______ _____ _____    ______ ____
ROOT
ATOM      1  C   UNL     1       0.605  -2.130  -1.026  0.00  0.00    +0.069 A 
ATOM      2  C   UNL     1      -0.462  -2.898  -1.645  0.00  0.00    -0.023 A 
ATOM      3  C   UNL     1      -0.295  -4.236  -1.567  0.00  0.00    -0.004 A 
ATOM      4  S   UNL     1       1.231  -4.450  -0.700  0.00  0.00    -0.077 S 
ATOM      5  C   UNL     1       1.645  -2.842  -0.449  0.00  0.00    +0.085 A 
ATOM      6  C   UNL     1      -1.215  -5.289  -2.104  0.00  0.00    +0.043 C 
ATOM      7  C   UNL     1      -2.565  -4.632  -2.426  0.00  0.00    +0.005 C 
ATOM      8  C   UNL     1      -2.314  -3.353  -3.229  0.00  0.00    +0.005 C 
ATOM      9  C   UNL     1      -1.676  -2.291  -2.331  0.00  0.00    +0.037 C 
ENDROOT
BRANCH   1  12
ATOM     10  C   UNL     1      -0.018   1.461   0.010  0.00  0.00    +0.128 C 
ATOM     11  N   UNL     1       0.002  -0.004   0.002  0.00  0.00    -0.314 N 
ATOM     12  C   UNL     1       0.585  -0.664  -1.018  0.00  0.00    +0.246 C 
ATOM     13  O   UNL     1       1.095  -0.044  -1.932  0.00  0.00    -0.270 OA
ATOM     14  H   UNL     1      -0.404  -0.499   0.731  0.00  0.00    +0.149 HD
ENDBRANCH   1  12
BRANCH   5  15
ATOM     15  N   UNL     1       2.768  -2.341   0.191  0.00  0.00    -0.275 N 
ATOM     16  C   UNL     1       3.687  -3.186   0.699  0.00  0.00    +0.249 C 
ATOM     17  O   UNL     1       3.531  -4.388   0.595  0.00  0.00    -0.270 OA
ATOM     18  H   UNL     1       2.892  -1.383   0.274  0.00  0.00    +0.156 HD
BRANCH  16  19
ATOM     19  C   UNL     1       4.882  -2.653   1.380  0.00  0.00    +0.040 A 
ATOM     20  C   UNL     1       5.060  -1.272   1.505  0.00  0.00    +0.036 A 
ATOM     21  C   UNL     1       6.178  -0.778   2.142  0.00  0.00    +0.085 A 
ATOM     22  C   UNL     1       7.128  -1.651   2.660  0.00  0.00    +0.157 A 
ATOM     23  C   UNL     1       6.955  -3.026   2.537  0.00  0.00    +0.085 A 
ATOM     24  C   UNL     1       5.837  -3.527   1.907  0.00  0.00    +0.036 A 
ATOM     25 CL   UNL     1       8.145  -4.111   3.185  0.00  0.00    -0.080 Cl
ATOM     26 CL   UNL     1       6.400   0.937   2.298  0.00  0.00    -0.080 Cl
BRANCH  22  27
ATOM     27  O   UNL     1       8.228  -1.161   3.287  0.00  0.00    -0.492 OA
ATOM     28  C   UNL     1       8.130  -0.947   4.696  0.00  0.00    +0.277 C 
ENDBRANCH  22  27
ENDBRANCH  16  19
ENDBRANCH   5  15
TORSDOF 4
