REMARK  Name = ZINC36545194
REMARK  12 active torsions:
REMARK  status: ('A' for Active; 'I' for Inactive)
REMARK    1  A    between atoms: C_1  and  C_2
REMARK    2  A    between atoms: C_2  and  C_3
REMARK    3  A    between atoms: C_2  and  C_4
REMARK    4  A    between atoms: C_2  and  N_5
REMARK    5  A    between atoms: C_6  and  C_8
REMARK    6  A    between atoms: C_8  and  C_10
REMARK    7  A    between atoms: C_8  and  N_17
REMARK    8  A    between atoms: C_15  and  O_16
REMARK    9  A    between atoms: N_17  and  C_18
REMARK   10  A    between atoms: C_25  and  C_27
REMARK   11  A    between atoms: C_28  and  O_34
REMARK   12  A    between atoms: C_32  and  O_33
REMARK                            x       y       z     vdW  Elec       q    Type
REMARK                         _______ _______ _______ _____ _____    ______ ____
ROOT
ATOM      1  N   UNL     1       4.342  -0.261  -2.417  0.00  0.00    -0.250 N 
ATOM      2  C   UNL     1       5.338  -1.164  -2.510  0.00  0.00    +0.259 C 
ATOM      3  O   UNL     1       5.077  -2.344  -2.647  0.00  0.00    -0.269 OA
ENDROOT
BRANCH   1   4
ATOM      4  C   UNL     1       4.640   1.105  -2.354  0.00  0.00    +0.056 A 
ATOM      5  C   UNL     1       4.883   1.708  -1.127  0.00  0.00    +0.025 A 
ATOM      6  C   UNL     1       5.178   3.056  -1.068  0.00  0.00    +0.002 A 
ATOM      7  C   UNL     1       5.231   3.806  -2.229  0.00  0.00    +0.002 A 
ATOM      8  C   UNL     1       4.990   3.209  -3.453  0.00  0.00    +0.022 A 
ATOM      9  C   UNL     1       4.700   1.859  -3.520  0.00  0.00    +0.062 A 
ATOM     10 CL   UNL     1       4.404   1.109  -5.057  0.00  0.00    -0.082 Cl
ENDBRANCH   1   4
BRANCH   2  11
ATOM     11  C   UNL     1       6.741  -0.723  -2.444  0.00  0.00    +0.120 A 
ATOM     12  C   UNL     1       7.351  -0.491  -1.203  0.00  0.00    +0.133 A 
ATOM     13  C   UNL     1       8.672  -0.076  -1.153  0.00  0.00    +0.046 A 
ATOM     14  C   UNL     1       9.388   0.110  -2.321  0.00  0.00    +0.007 A 
ATOM     15  C   UNL     1       8.796  -0.115  -3.550  0.00  0.00    +0.046 A 
ATOM     16  C   UNL     1       7.478  -0.536  -3.623  0.00  0.00    +0.133 A 
BRANCH  16  17
ATOM     17  O   UNL     1       6.901  -0.762  -4.830  0.00  0.00    -0.506 OA
ATOM     18  H   UNL     1       6.537   0.031  -5.246  0.00  0.00    +0.292 HD
ENDBRANCH  16  17
BRANCH  12  19
ATOM     19  O   UNL     1       6.651  -0.673  -0.055  0.00  0.00    -0.506 OA
ATOM     20  H   UNL     1       6.712  -1.568   0.305  0.00  0.00    +0.292 HD
ENDBRANCH  12  19
ENDBRANCH   2  11
BRANCH   1  21
ATOM     21  C   UNL     1       2.948  -0.708  -2.383  0.00  0.00    +0.201 C 
BRANCH  21  22
ATOM     22  C   UNL     1       2.174  -0.027  -3.482  0.00  0.00    +0.024 A 
ATOM     23  C   UNL     1       1.467   1.129  -3.216  0.00  0.00    +0.009 A 
ATOM     24  C   UNL     1       0.757   1.754  -4.224  0.00  0.00    +0.001 A 
ATOM     25  C   UNL     1       0.753   1.224  -5.502  0.00  0.00    +0.004 A 
ATOM     26  C   UNL     1       1.459   0.068  -5.773  0.00  0.00    +0.046 A 
ATOM     27  C   UNL     1       2.177  -0.558  -4.764  0.00  0.00    +0.122 A 
BRANCH  27  28
ATOM     28  O   UNL     1       2.877  -1.692  -5.030  0.00  0.00    -0.506 OA
ATOM     29  H   UNL     1       2.348  -2.501  -4.981  0.00  0.00    +0.292 HD
ENDBRANCH  27  28
ENDBRANCH  21  22
BRANCH  21  31
ATOM     30  N   UNL     1       1.119  -0.823  -0.721  0.00  0.00    -0.309 N 
ATOM     31  C   UNL     1       2.340  -0.357  -1.049  0.00  0.00    +0.239 C 
ATOM     32  O   UNL     1       2.950   0.346  -0.272  0.00  0.00    -0.273 OA
ATOM     33  H   UNL     1       0.602  -1.327  -1.369  0.00  0.00    +0.149 HD
BRANCH  30  35
ATOM     34  C   UNL     1       0.466   0.938   0.845  0.00  0.00    +0.031 C 
ATOM     35  C   UNL     1       0.573  -0.571   0.615  0.00  0.00    +0.026 C 
ATOM     36  C   UNL     1       1.498  -1.183   1.668  0.00  0.00    +0.031 C 
ATOM     37  C   UNL     1      -0.816  -1.204   0.726  0.00  0.00    +0.031 C 
ENDBRANCH  30  35
ENDBRANCH  21  31
ENDBRANCH   1  21
TORSDOF 9
