REMARK  Name = ZINC06831859
REMARK  8 active torsions:
REMARK  status: ('A' for Active; 'I' for Inactive)
REMARK    1  A    between atoms: C_1  and  C_2
REMARK    2  A    between atoms: C_2  and  O_3
REMARK    3  A    between atoms: O_3  and  C_4
REMARK    4  A    between atoms: C_4  and  C_6
REMARK    5  A    between atoms: C_7  and  C_16
REMARK    6  A    between atoms: C_16  and  S_17
REMARK    7  A    between atoms: S_17  and  C_18
REMARK    8  A    between atoms: C_22  and  N_24
REMARK                            x       y       z     vdW  Elec       q    Type
REMARK                         _______ _______ _______ _____ _____    ______ ____
ROOT
ATOM      1  C   UNL     1       1.450  -2.345  -2.519  0.00  0.00    +0.101 A 
ATOM      2  C   UNL     1       1.649  -3.648  -2.857  0.00  0.00    -0.006 A 
ATOM      3  C   UNL     1       2.325  -3.969  -4.046  0.00  0.00    +0.029 A 
ATOM      4  C   UNL     1       2.627  -5.256  -4.566  0.00  0.00    +0.132 A 
ATOM      5  C   UNL     1       3.301  -5.390  -5.752  0.00  0.00    +0.039 A 
ATOM      6  C   UNL     1       3.710  -4.280  -6.481  0.00  0.00    +0.004 A 
ATOM      7  C   UNL     1       3.434  -3.014  -6.008  0.00  0.00    +0.016 A 
ATOM      8  C   UNL     1       2.757  -2.863  -4.816  0.00  0.00    +0.023 A 
ATOM      9  S   UNL     1       2.206  -1.463  -3.874  0.00  0.00    -0.081 S 
ATOM     10  F   UNL     1       2.246  -6.359  -3.885  0.00  0.00    -0.205 F 
ENDROOT
BRANCH   1  11
ATOM     11  C   UNL     1       0.776  -1.800  -1.335  0.00  0.00    +0.346 C 
ATOM     12  O   UNL     1       0.312  -2.551  -0.499  0.00  0.00    -0.244 OA
BRANCH  11  13
ATOM     13  O   UNL     1       0.671  -0.465  -1.174  0.00  0.00    -0.461 OA
BRANCH  13  15
ATOM     14  C   UNL     1      -0.019   1.526   0.010  0.00  0.00    +0.048 C 
ATOM     15  C   UNL     1       0.002  -0.004   0.002  0.00  0.00    +0.229 C 
ENDBRANCH  13  15
ENDBRANCH  11  13
ENDBRANCH   1  11
BRANCH   2  16
ATOM     16  C   UNL     1       1.144  -4.746  -1.957  0.00  0.00    +0.114 C 
BRANCH  16  17
ATOM     17  S   UNL     1      -0.546  -5.195  -2.439  0.00  0.00    -0.081 S 
BRANCH  17  18
ATOM     18  C   UNL     1      -0.988  -6.472  -1.309  0.00  0.00    +0.192 A 
ATOM     19  N   UNL     1      -0.112  -6.850  -0.389  0.00  0.00    -0.207 NA
ATOM     20  C   UNL     1      -0.411  -7.811   0.482  0.00  0.00    +0.122 A 
ATOM     21  C   UNL     1      -1.661  -8.420   0.417  0.00  0.00    +0.086 A 
ATOM     22  C   UNL     1      -2.554  -7.996  -0.563  0.00  0.00    +0.122 A 
ATOM     23  N   UNL     1      -2.188  -7.025  -1.397  0.00  0.00    -0.207 NA
ATOM     24  N   UNL     1       0.510  -8.201   1.441  0.00  0.00    -0.343 N 
ATOM     25  H   UNL     1       1.380  -7.773   1.481  0.00  0.00    +0.144 HD
ATOM     26  H   UNL     1       0.286  -8.902   2.073  0.00  0.00    +0.144 HD
BRANCH  22  27
ATOM     27  N   UNL     1      -3.810  -8.574  -0.666  0.00  0.00    -0.343 N 
ATOM     28  H   UNL     1      -4.072  -9.278  -0.053  0.00  0.00    +0.144 HD
ATOM     29  H   UNL     1      -4.428  -8.274  -1.351  0.00  0.00    +0.144 HD
ENDBRANCH  22  27
ENDBRANCH  17  18
ENDBRANCH  16  17
ENDBRANCH   2  16
TORSDOF 7
