REMARK  Name = ZINC36093507
REMARK  10 active torsions:
REMARK  status: ('A' for Active; 'I' for Inactive)
REMARK    1  A    between atoms: C_1  and  C_2
REMARK    2  A    between atoms: C_2  and  C_3
REMARK    3  A    between atoms: C_2  and  C_4
REMARK    4  A    between atoms: C_2  and  C_5
REMARK    5  A    between atoms: C_12  and  C_16
REMARK    6  A    between atoms: N_18  and  N_19
REMARK    7  A    between atoms: C_20  and  C_21
REMARK    8  A    between atoms: C_24  and  O_29
REMARK    9  A    between atoms: C_25  and  O_27
REMARK   10  A    between atoms: O_27  and  C_28
REMARK                            x       y       z     vdW  Elec       q    Type
REMARK                         _______ _______ _______ _____ _____    ______ ____
ROOT
ATOM      1  C   UNL     1       6.307  -0.513  -3.655  0.00  0.00    +0.276 C 
ATOM      2  O   UNL     1       6.210   0.695  -3.594  0.00  0.00    -0.270 OA
ATOM      3  N   UNL     1       7.255  -1.074  -4.432  0.00  0.00    -0.204 N 
ATOM      4  H   UNL     1       7.333  -2.040  -4.481  0.00  0.00    +0.177 HD
ENDROOT
BRANCH   1  12
ATOM      5  C   UNL     1       1.692  -1.161   0.156  0.00  0.00    -0.038 A 
ATOM      6  C   UNL     1       1.213  -2.357  -0.347  0.00  0.00    +0.008 A 
ATOM      7  C   UNL     1       1.847  -2.963  -1.415  0.00  0.00    +0.050 A 
ATOM      8  C   UNL     1       2.964  -2.373  -1.986  0.00  0.00    +0.162 A 
ATOM      9  C   UNL     1       3.444  -1.170  -1.483  0.00  0.00    +0.163 A 
ATOM     10  C   UNL     1       2.801  -0.565  -0.413  0.00  0.00    +0.053 A 
ATOM     11  O   UNL     1       4.535  -0.570  -2.034  0.00  0.00    -0.472 OA
ATOM     12  C   UNL     1       5.368  -1.386  -2.863  0.00  0.00    +0.297 C 
ATOM     13  C   UNL     1       4.466  -2.178  -3.820  0.00  0.00    +0.283 C 
ATOM     14  O   UNL     1       3.580  -2.984  -3.035  0.00  0.00    -0.484 OA
BRANCH   5  16
ATOM     15  C   UNL     1       0.502   0.881   0.905  0.00  0.00    +0.015 C 
ATOM     16  C   UNL     1       0.999  -0.504   1.322  0.00  0.00    -0.013 C 
ATOM     17  C   UNL     1       1.982  -0.364   2.486  0.00  0.00    +0.015 C 
ATOM     18  C   UNL     1      -0.189  -1.363   1.759  0.00  0.00    +0.015 C 
ENDBRANCH   5  16
ENDBRANCH   1  12
BRANCH   3  19
ATOM     19  N   UNL     1       8.128  -0.263  -5.168  0.00  0.00    -0.188 NA
ATOM     20  C   UNL     1       8.963  -0.800  -6.005  0.00  0.00    +0.138 C 
BRANCH  20  21
ATOM     21  C   UNL     1       8.703  -2.147  -6.543  0.00  0.00    -0.002 A 
ATOM     22  C   UNL     1       7.444  -2.732  -6.388  0.00  0.00    +0.013 A 
ATOM     23  C   UNL     1       7.203  -3.993  -6.892  0.00  0.00    +0.050 A 
ATOM     24  C   UNL     1       8.209  -4.684  -7.552  0.00  0.00    +0.158 A 
ATOM     25  C   UNL     1       9.467  -4.106  -7.710  0.00  0.00    +0.162 A 
ATOM     26  C   UNL     1       9.714  -2.841  -7.213  0.00  0.00    +0.058 A 
BRANCH  25  27
ATOM     27  O   UNL     1      10.450  -4.787  -8.358  0.00  0.00    -0.491 OA
ATOM     28  C   UNL     1      11.716  -4.134  -8.484  0.00  0.00    +0.277 C 
ENDBRANCH  25  27
BRANCH  24  29
ATOM     29  O   UNL     1       7.966  -5.927  -8.046  0.00  0.00    -0.503 OA
ATOM     30  H   UNL     1       7.636  -5.931  -8.955  0.00  0.00    +0.292 HD
ENDBRANCH  24  29
ENDBRANCH  20  21
ENDBRANCH   3  19
TORSDOF 6
