REMARK  Name = ZINC13322517
REMARK  10 active torsions:
REMARK  status: ('A' for Active; 'I' for Inactive)
REMARK    1  A    between atoms: C_1  and  O_2
REMARK    2  A    between atoms: O_2  and  C_3
REMARK    3  A    between atoms: C_6  and  C_18
REMARK    4  A    between atoms: C_8  and  O_9
REMARK    5  A    between atoms: O_9  and  C_10
REMARK    6  A    between atoms: C_10  and  C_11
REMARK    7  A    between atoms: N_19  and  N_20
REMARK    8  A    between atoms: C_21  and  C_23
REMARK    9  A    between atoms: C_25  and  O_30
REMARK   10  A    between atoms: C_28  and  O_29
REMARK                            x       y       z     vdW  Elec       q    Type
REMARK                         _______ _______ _______ _____ _____    ______ ____
ROOT
ATOM      1  C   UNL     1       0.002  -0.004   0.002  0.00  0.00    +0.162 A 
ATOM      2  C   UNL     1       1.214  -0.679  -0.013  0.00  0.00    +0.050 A 
ATOM      3  C   UNL     1       1.238  -2.058  -0.020  0.00  0.00    +0.013 A 
ATOM      4  C   UNL     1       0.041  -2.778  -0.012  0.00  0.00    -0.002 A 
ATOM      5  C   UNL     1      -1.179  -2.097   0.003  0.00  0.00    +0.059 A 
ATOM      6  C   UNL     1      -1.196  -0.715   0.015  0.00  0.00    +0.163 A 
ENDROOT
BRANCH   1   8
ATOM      7  C   UNL     1       1.248   2.021   0.001  0.00  0.00    +0.277 C 
ATOM      8  O   UNL     1      -0.016   1.355   0.009  0.00  0.00    -0.491 OA
ENDBRANCH   1   8
BRANCH   4   9
ATOM      9  C   UNL     1       0.065  -4.252  -0.021  0.00  0.00    +0.138 C 
ATOM     10  N   UNL     1       1.199  -4.883  -0.035  0.00  0.00    -0.187 NA
BRANCH  10  11
ATOM     11  N   UNL     1       1.222  -6.284  -0.043  0.00  0.00    -0.203 N 
ATOM     12  C   UNL     1       2.400  -6.938  -0.058  0.00  0.00    +0.267 C 
ATOM     13  O   UNL     1       3.443  -6.313  -0.065  0.00  0.00    -0.268 OA
ATOM     14  H   UNL     1       0.390  -6.782  -0.037  0.00  0.00    +0.178 HD
BRANCH  12  15
ATOM     15  C   UNL     1       2.424  -8.413  -0.066  0.00  0.00    +0.083 A 
ATOM     16  C   UNL     1       1.227  -9.135  -0.052  0.00  0.00    +0.062 A 
ATOM     17  C   UNL     1       1.257 -10.517  -0.066  0.00  0.00    +0.118 A 
ATOM     18  C   UNL     1       2.473 -11.189  -0.082  0.00  0.00    +0.049 A 
ATOM     19  C   UNL     1       3.660 -10.484  -0.090  0.00  0.00    +0.050 A 
ATOM     20  C   UNL     1       3.646  -9.098  -0.082  0.00  0.00    +0.129 A 
BRANCH  20  21
ATOM     21  O   UNL     1       4.814  -8.405  -0.089  0.00  0.00    -0.506 OA
ATOM     22  H   UNL     1       5.160  -8.210   0.792  0.00  0.00    +0.292 HD
ENDBRANCH  20  21
BRANCH  17  23
ATOM     23  O   UNL     1       0.093 -11.220  -0.057  0.00  0.00    -0.507 OA
ATOM     24  H   UNL     1      -0.234 -11.429   0.828  0.00  0.00    +0.292 HD
ENDBRANCH  17  23
ENDBRANCH  12  15
ENDBRANCH  10  11
ENDBRANCH   4   9
BRANCH   6  25
ATOM     25  O   UNL     1      -2.381  -0.050   0.036  0.00  0.00    -0.484 OA
BRANCH  25  26
ATOM     26  C   UNL     1      -3.570  -0.842   0.049  0.00  0.00    +0.264 C 
BRANCH  26  27
ATOM     27  C   UNL     1      -4.776   0.061   0.071  0.00  0.00    -0.009 A 
ATOM     28  C   UNL     1      -5.347   0.482  -1.116  0.00  0.00    +0.007 A 
ATOM     29  C   UNL     1      -6.453   1.310  -1.097  0.00  0.00    +0.001 A 
ATOM     30  C   UNL     1      -6.990   1.718   0.110  0.00  0.00    +0.015 A 
ATOM     31  C   UNL     1      -6.420   1.298   1.298  0.00  0.00    +0.018 A 
ATOM     32  C   UNL     1      -5.316   0.464   1.278  0.00  0.00    +0.022 A 
ATOM     33 BR   UNL     1      -7.154   1.856   2.949  0.00  0.00    -0.050 Br
ENDBRANCH  26  27
ENDBRANCH  25  26
ENDBRANCH   6  25
TORSDOF 9
