REMARK  Name = ZINC61570513
REMARK  3 active torsions:
REMARK  status: ('A' for Active; 'I' for Inactive)
REMARK    1  A    between atoms: C_4  and  C_7
REMARK    2  A    between atoms: C_7  and  C_8
REMARK    3  A    between atoms: C_13  and  C_15
REMARK                            x       y       z     vdW  Elec       q    Type
REMARK                         _______ _______ _______ _____ _____    ______ ____
ROOT
ATOM      1  C   UNL     1       2.911  -1.972  -2.390  0.00  0.00    +0.076 C 
ATOM      2  C   UNL     1       3.617  -2.593  -3.614  0.00  0.00    +0.024 C 
ATOM      3  C   UNL     1       4.429  -3.760  -2.992  0.00  0.00    +0.021 C 
ATOM      4  C   UNL     1       4.846  -3.155  -1.627  0.00  0.00    +0.108 C 
ATOM      5  N   UNL     1       3.685  -2.353  -1.200  0.00  0.00    -0.298 N 
ATOM      6  C   UNL     1       3.384  -2.024   0.072  0.00  0.00    +0.219 C 
ATOM      7  O   UNL     1       2.350  -1.439   0.318  0.00  0.00    -0.275 OA
ENDROOT
BRANCH   6   8
ATOM      8  C   UNL     1       4.331  -2.382   1.188  0.00  0.00    +0.078 C 
ATOM      9  C   UNL     1       5.685  -1.712   0.942  0.00  0.00    +0.032 C 
ATOM     10  C   UNL     1       6.656  -2.107   2.060  0.00  0.00    +0.110 C 
ATOM     11  N   UNL     1       6.045  -1.776   3.354  0.00  0.00    -0.286 N 
ATOM     12  C   UNL     1       4.704  -2.294   3.656  0.00  0.00    +0.110 C 
ATOM     13  C   UNL     1       3.755  -1.898   2.521  0.00  0.00    +0.032 C 
ATOM     14  C   UNL     1       6.703  -1.011   4.249  0.00  0.00    +0.300 C 
ATOM     15  O   UNL     1       7.848  -0.665   4.027  0.00  0.00    -0.253 OA
ATOM     16  N   UNL     1       6.093  -0.631   5.389  0.00  0.00    -0.313 N 
ATOM     17  H   UNL     1       5.208  -0.967   5.600  0.00  0.00    +0.146 HD
ATOM     18  H   UNL     1       6.539  -0.022   5.997  0.00  0.00    +0.146 HD
ENDBRANCH   6   8
BRANCH   1  19
ATOM     19  C   UNL     1       2.880  -0.449  -2.525  0.00  0.00    +0.026 C 
BRANCH  19  23
ATOM     20  C   UNL     1       1.283   1.427  -6.082  0.00  0.00    +0.000 C 
ATOM     21  C   UNL     1       0.720   1.857  -4.726  0.00  0.00    +0.000 C 
ATOM     22  C   UNL     1       1.701   1.463  -3.619  0.00  0.00    +0.003 C 
ATOM     23  C   UNL     1       1.900  -0.054  -3.631  0.00  0.00    -0.009 C 
ATOM     24  C   UNL     1       2.462  -0.484  -4.988  0.00  0.00    +0.003 C 
ATOM     25  C   UNL     1       1.482  -0.089  -6.094  0.00  0.00    +0.000 C 
ENDBRANCH  19  23
ENDBRANCH   1  19
TORSDOF 3
