REMARK  Name = ZINC16544955
REMARK  8 active torsions:
REMARK  status: ('A' for Active; 'I' for Inactive)
REMARK    1  A    between atoms: C_10  and  N_11
REMARK    2  A    between atoms: N_14  and  C_15
REMARK    3  A    between atoms: C_15  and  C_16
REMARK    4  A    between atoms: C_16  and  N_17
REMARK    5  A    between atoms: N_17  and  C_18
REMARK    6  A    between atoms: C_18  and  C_19
REMARK    7  A    between atoms: C_19  and  O_20
REMARK    8  A    between atoms: N_23  and  C_24
REMARK                            x       y       z     vdW  Elec       q    Type
REMARK                         _______ _______ _______ _____ _____    ______ ____
ROOT
ATOM      1  N   UNL     1       4.918   1.730  -0.037  0.00  0.00    -0.282 N 
ATOM      2  C   UNL     1       5.619   1.520  -1.169  0.00  0.00    +0.307 C 
ATOM      3  O   UNL     1       5.135   1.807  -2.247  0.00  0.00    -0.252 OA
ATOM      4  N   UNL     1       6.857   0.991  -1.105  0.00  0.00    -0.269 N 
ATOM      5  H   UNL     1       7.222   0.710  -0.251  0.00  0.00    +0.156 HD
ENDROOT
BRANCH   4   6
ATOM      6  C   UNL     1       7.615   0.846  -2.269  0.00  0.00    +0.042 A 
ATOM      7  C   UNL     1       6.993   0.724  -3.493  0.00  0.00    +0.024 A 
ATOM      8  C   UNL     1       7.739   0.579  -4.659  0.00  0.00    +0.002 A 
ATOM      9  C   UNL     1       9.100   0.555  -4.625  0.00  0.00    +0.008 A 
ATOM     10  C   UNL     1       9.773   0.678  -3.397  0.00  0.00    -0.016 A 
ATOM     11  C   UNL     1       9.024   0.830  -2.204  0.00  0.00    +0.003 A 
ATOM     12  C   UNL     1       9.698   0.947  -0.978  0.00  0.00    +0.010 A 
ATOM     13  C   UNL     1      11.059   0.923  -0.951  0.00  0.00    +0.001 A 
ATOM     14  C   UNL     1      11.796   0.778  -2.125  0.00  0.00    +0.001 A 
ATOM     15  C   UNL     1      11.177   0.657  -3.331  0.00  0.00    +0.008 A 
ENDBRANCH   4   6
BRANCH   1  16
ATOM     16  C   UNL     1       3.572   2.305  -0.106  0.00  0.00    +0.128 C 
BRANCH  16  17
ATOM     17  C   UNL     1       2.543   1.180  -0.231  0.00  0.00    +0.124 C 
BRANCH  17  21
ATOM     18  N   UNL     1      -1.113   1.477  -0.482  0.00  0.00    -0.269 N 
ATOM     19  C   UNL     1       0.124   0.948  -0.414  0.00  0.00    +0.304 C 
ATOM     20  O   UNL     1       0.273  -0.258  -0.459  0.00  0.00    -0.253 OA
ATOM     21  N   UNL     1       1.197   1.755  -0.300  0.00  0.00    -0.298 N 
ATOM     22  H   UNL     1      -1.240   2.431  -0.366  0.00  0.00    +0.156 HD
ATOM     23  H   UNL     1       1.078   2.717  -0.264  0.00  0.00    +0.150 HD
BRANCH  18  33
ATOM     24  C   UNL     1      -5.934   1.459   1.014  0.00  0.00    +0.001 A 
ATOM     25  C   UNL     1      -4.848   2.296   1.267  0.00  0.00    +0.001 A 
ATOM     26  C   UNL     1      -3.630   2.049   0.712  0.00  0.00    +0.010 A 
ATOM     27  C   UNL     1      -3.460   0.934  -0.124  0.00  0.00    +0.003 A 
ATOM     28  C   UNL     1      -4.564   0.086  -0.385  0.00  0.00    -0.016 A 
ATOM     29  C   UNL     1      -5.807   0.372   0.206  0.00  0.00    +0.008 A 
ATOM     30  C   UNL     1      -4.396  -1.028  -1.226  0.00  0.00    +0.008 A 
ATOM     31  C   UNL     1      -3.181  -1.281  -1.785  0.00  0.00    +0.002 A 
ATOM     32  C   UNL     1      -2.091  -0.452  -1.540  0.00  0.00    +0.024 A 
ATOM     33  C   UNL     1      -2.214   0.651  -0.722  0.00  0.00    +0.042 A 
ENDBRANCH  18  33
ENDBRANCH  17  21
ENDBRANCH  16  17
ENDBRANCH   1  16
BRANCH   1  34
ATOM     34  C   UNL     1       5.501   1.384   1.261  0.00  0.00    +0.137 C 
BRANCH  34  35
ATOM     35  C   UNL     1       5.143  -0.062   1.612  0.00  0.00    +0.175 C 
BRANCH  35  36
ATOM     36  O   UNL     1       5.759  -0.946   0.673  0.00  0.00    -0.393 OA
ATOM     37  H   UNL     1       5.574  -1.881   0.835  0.00  0.00    +0.209 HD
ENDBRANCH  35  36
ENDBRANCH  34  35
ENDBRANCH   1  34
TORSDOF 8
