REMARK  Name = ZINC20926848
REMARK  11 active torsions:
REMARK  status: ('A' for Active; 'I' for Inactive)
REMARK    1  A    between atoms: C_1  and  C_2
REMARK    2  A    between atoms: C_2  and  C_3
REMARK    3  A    between atoms: C_3  and  O_4
REMARK    4  A    between atoms: O_4  and  C_5
REMARK    5  A    between atoms: C_8  and  C_12
REMARK    6  A    between atoms: C_12  and  N_13
REMARK    7  A    between atoms: N_13  and  C_14
REMARK    8  A    between atoms: C_14  and  C_15
REMARK    9  A    between atoms: C_15  and  C_16
REMARK   10  A    between atoms: C_19  and  S_22
REMARK   11  A    between atoms: S_22  and  N_25
REMARK                            x       y       z     vdW  Elec       q    Type
REMARK                         _______ _______ _______ _____ _____    ______ ____
ROOT
ATOM      1  N   UNL     1       2.903   0.813  -1.406  0.00  0.00    -0.312 NA
ATOM      2  H   UNL     1       2.139   0.212  -1.921  0.00  0.00    +0.122 HD
ENDROOT
BRANCH   1   3
ATOM      3  C   UNL     1       2.490   1.045  -0.016  0.00  0.00    +0.116 C 
BRANCH   3   7
ATOM      4  C   UNL     1      -1.237   3.138   0.029  0.00  0.00    +0.148 A 
ATOM      5  C   UNL     1      -1.219   1.750   0.017  0.00  0.00    +0.061 A 
ATOM      6  C   UNL     1      -0.013   1.076   0.008  0.00  0.00    +0.024 A 
ATOM      7  C   UNL     1       1.176   1.783   0.000  0.00  0.00    -0.031 A 
ATOM      8  C   UNL     1       1.161   3.165   0.007  0.00  0.00    +0.024 A 
ATOM      9  C   UNL     1      -0.043   3.845   0.022  0.00  0.00    +0.061 A 
ATOM     10 BR   UNL     1      -0.063   5.735   0.032  0.00  0.00    -0.046 Br
ATOM     11 BR   UNL     1      -2.844   0.782   0.020  0.00  0.00    -0.046 Br
BRANCH   4  12
ATOM     12  O   UNL     1      -2.423   3.803   0.043  0.00  0.00    -0.490 OA
BRANCH  12  13
ATOM     13  C   UNL     1      -3.000   4.127  -1.223  0.00  0.00    +0.229 C 
BRANCH  13  15
ATOM     14  C   UNL     1      -4.939   5.215  -2.363  0.00  0.00    +0.007 C 
ATOM     15  C   UNL     1      -4.321   4.868  -1.007  0.00  0.00    +0.038 C 
ENDBRANCH  13  15
ENDBRANCH  12  13
ENDBRANCH   4  12
ENDBRANCH   3   7
ENDBRANCH   1   3
BRANCH   1  16
ATOM     16  C   UNL     1       4.183   0.094  -1.462  0.00  0.00    +0.086 C 
BRANCH  16  17
ATOM     17  C   UNL     1       4.580  -0.129  -2.922  0.00  0.00    +0.050 C 
BRANCH  17  18
ATOM     18  C   UNL     1       5.893  -0.866  -2.979  0.00  0.00    -0.046 A 
ATOM     19  C   UNL     1       7.082  -0.161  -3.011  0.00  0.00    +0.005 A 
ATOM     20  C   UNL     1       8.286  -0.837  -3.058  0.00  0.00    +0.029 A 
ATOM     21  C   UNL     1       8.302  -2.219  -3.083  0.00  0.00    +0.105 A 
ATOM     22  C   UNL     1       7.114  -2.925  -3.057  0.00  0.00    +0.029 A 
ATOM     23  C   UNL     1       5.910  -2.248  -3.005  0.00  0.00    +0.005 A 
BRANCH  21  24
ATOM     24  S   UNL     1       9.838  -3.081  -3.148  0.00  0.00    +0.056 S 
ATOM     25  O   UNL     1      10.819  -2.204  -2.614  0.00  0.00    -0.153 OA
ATOM     26  O   UNL     1       9.600  -4.375  -2.612  0.00  0.00    -0.153 OA
BRANCH  24  27
ATOM     27  N   UNL     1      10.213  -3.293  -4.747  0.00  0.00    -0.204 NA
ATOM     28  H   UNL     1      11.169  -3.830  -4.832  0.00  0.00    +0.144 HD
ATOM     29  H   UNL     1      10.299  -2.312  -5.237  0.00  0.00    +0.144 HD
ENDBRANCH  24  27
ENDBRANCH  21  24
ENDBRANCH  17  18
ENDBRANCH  16  17
ENDBRANCH   1  16
TORSDOF 10
