REMARK  Name = ZINC00726703
REMARK  7 active torsions:
REMARK  status: ('A' for Active; 'I' for Inactive)
REMARK    1  A    between atoms: C_1  and  C_2
REMARK    2  A    between atoms: C_7  and  C_8
REMARK    3  A    between atoms: N_10  and  C_12
REMARK    4  A    between atoms: C_15  and  C_18
REMARK    5  A    between atoms: N_20  and  N_21
REMARK    6  A    between atoms: C_22  and  C_23
REMARK    7  A    between atoms: C_26  and  O_29
REMARK                            x       y       z     vdW  Elec       q    Type
REMARK                         _______ _______ _______ _____ _____    ______ ____
ROOT
ATOM      1  C   UNL     1       9.681  -0.308  -0.088  0.00  0.00    +0.030 A 
ATOM      2  C   UNL     1       9.651   1.073  -0.266  0.00  0.00    +0.024 A 
ATOM      3  C   UNL     1       8.450   1.744  -0.253  0.00  0.00    +0.015 A 
ATOM      4  C   UNL     1       7.259   1.038  -0.060  0.00  0.00    +0.038 A 
ATOM      5  C   UNL     1       7.292  -0.347   0.123  0.00  0.00    +0.015 A 
ATOM      6  C   UNL     1       8.496  -1.014   0.103  0.00  0.00    +0.024 A 
ENDROOT
BRANCH   1  16
ATOM      7  C   UNL     1      16.111  -2.671  -2.763  0.00  0.00    +0.044 C 
ATOM      8  C   UNL     1      14.704  -2.667  -2.223  0.00  0.00    -0.047 A 
ATOM      9  C   UNL     1      14.075  -1.468  -1.940  0.00  0.00    +0.009 A 
ATOM     10  C   UNL     1      12.788  -1.466  -1.445  0.00  0.00    -0.025 A 
ATOM     11  C   UNL     1      12.124  -2.665  -1.234  0.00  0.00    -0.025 A 
ATOM     12  C   UNL     1      12.751  -3.860  -1.517  0.00  0.00    +0.009 A 
ATOM     13  C   UNL     1      14.043  -3.862  -2.012  0.00  0.00    -0.047 A 
ATOM     14  C   UNL     1      14.729  -5.168  -2.321  0.00  0.00    +0.044 C 
ATOM     15  C   UNL     1      10.745  -2.341  -0.695  0.00  0.00    +0.141 C 
ATOM     16  N   UNL     1      10.896  -0.984  -0.103  0.00  0.00    -0.321 N 
ATOM     17  C   UNL     1      11.852  -0.342  -1.048  0.00  0.00    +0.141 C 
ENDBRANCH   1  16
BRANCH   4  18
ATOM     18  C   UNL     1       5.970   1.755  -0.045  0.00  0.00    +0.263 C 
ATOM     19  O   UNL     1       5.943   2.961  -0.199  0.00  0.00    -0.268 OA
ATOM     20  N   UNL     1       4.822   1.073   0.141  0.00  0.00    -0.203 N 
ATOM     21  H   UNL     1       4.844   0.112   0.264  0.00  0.00    +0.178 HD
BRANCH  20  22
ATOM     22  N   UNL     1       3.598   1.754   0.156  0.00  0.00    -0.187 NA
ATOM     23  C   UNL     1       2.492   1.098   0.334  0.00  0.00    +0.138 C 
BRANCH  23  24
ATOM     24  C   UNL     1       1.204   1.814   0.350  0.00  0.00    -0.005 A 
ATOM     25  C   UNL     1       0.012   1.109   0.542  0.00  0.00    +0.013 A 
ATOM     26  C   UNL     1      -1.190   1.782   0.551  0.00  0.00    +0.046 A 
ATOM     27  C   UNL     1      -1.218   3.161   0.380  0.00  0.00    +0.117 A 
ATOM     28  C   UNL     1      -0.036   3.865   0.189  0.00  0.00    +0.046 A 
ATOM     29  C   UNL     1       1.170   3.200   0.173  0.00  0.00    +0.013 A 
BRANCH  27  30
ATOM     30  O   UNL     1      -2.405   3.821   0.395  0.00  0.00    -0.507 OA
ATOM     31  H   UNL     1      -2.823   3.899  -0.473  0.00  0.00    +0.292 HD
ENDBRANCH  27  30
ENDBRANCH  23  24
ENDBRANCH  20  22
ENDBRANCH   4  18
TORSDOF 5
