REMARK  Name = ZINC61678690
REMARK  6 active torsions:
REMARK  status: ('A' for Active; 'I' for Inactive)
REMARK    1  A    between atoms: C_1  and  C_2
REMARK    2  A    between atoms: C_2  and  C_3
REMARK    3  A    between atoms: C_3  and  C_5
REMARK    4  A    between atoms: C_3  and  S_8
REMARK    5  A    between atoms: S_8  and  C_10
REMARK    6  A    between atoms: C_15  and  N_19
REMARK                            x       y       z     vdW  Elec       q    Type
REMARK                         _______ _______ _______ _____ _____    ______ ____
ROOT
ATOM      1  C   UNL     1       3.171  -0.753  -2.621  0.00  0.00    +0.166 A 
ATOM      2  N   UNL     1       3.286  -0.277  -3.830  0.00  0.00    -0.230 NA
ATOM      3  C   UNL     1       3.859  -0.972  -4.837  0.00  0.00    +0.080 A 
ATOM      4  C   UNL     1       4.043  -0.572  -6.182  0.00  0.00    +0.031 A 
ATOM      5  C   UNL     1       4.641  -1.396  -7.080  0.00  0.00    +0.025 A 
ATOM      6  C   UNL     1       5.098  -2.663  -6.719  0.00  0.00    +0.026 A 
ATOM      7  C   UNL     1       4.936  -3.092  -5.408  0.00  0.00    +0.040 A 
ATOM      8  C   UNL     1       4.331  -2.261  -4.498  0.00  0.00    +0.042 A 
ATOM      9  S   UNL     1       3.925  -2.366  -2.772  0.00  0.00    -0.059 S 
ENDROOT
BRANCH   6  10
ATOM     10  N   UNL     1       5.710  -3.491  -7.664  0.00  0.00    -0.358 N 
ATOM     11  H   UNL     1       5.820  -3.186  -8.578  0.00  0.00    +0.142 HD
ATOM     12  H   UNL     1       6.026  -4.372  -7.406  0.00  0.00    +0.142 HD
ENDBRANCH   6  10
BRANCH   1  13
ATOM     13  S   UNL     1       2.460   0.006  -1.198  0.00  0.00    +0.091 S 
ATOM     14  O   UNL     1       2.560   1.398  -1.465  0.00  0.00    -0.249 OA
BRANCH  13  15
ATOM     15  C   UNL     1       0.718  -0.497  -1.257  0.00  0.00    +0.170 C 
BRANCH  15  16
ATOM     16  C   UNL     1       0.632  -2.000  -1.327  0.00  0.00    +0.226 C 
ATOM     17  O   UNL     1       0.258  -2.539  -2.348  0.00  0.00    -0.275 OA
ATOM     18  N   UNL     1       0.969  -2.746  -0.257  0.00  0.00    -0.328 N 
ATOM     19  H   UNL     1       1.268  -2.315   0.560  0.00  0.00    +0.145 HD
ATOM     20  H   UNL     1       0.913  -3.713  -0.302  0.00  0.00    +0.145 HD
ENDBRANCH  15  16
BRANCH  15  22
ATOM     21  C   UNL     1      -0.019   1.526   0.010  0.00  0.00    +0.005 C 
ATOM     22  C   UNL     1       0.002  -0.004   0.002  0.00  0.00    +0.023 C 
ENDBRANCH  15  22
ENDBRANCH  13  15
ENDBRANCH   1  13
TORSDOF 5
