REMARK  Name = ZINC32529638
REMARK  17 active torsions:
REMARK  status: ('A' for Active; 'I' for Inactive)
REMARK    1  A    between atoms: C_1  and  C_2
REMARK    2  A    between atoms: C_2  and  O_3
REMARK    3  A    between atoms: O_3  and  C_4
REMARK    4  A    between atoms: C_4  and  C_6
REMARK    5  A    between atoms: C_7  and  C_36
REMARK    6  A    between atoms: C_9  and  N_16
REMARK    7  A    between atoms: C_10  and  C_11
REMARK    8  A    between atoms: C_11  and  O_13
REMARK    9  A    between atoms: O_13  and  C_14
REMARK   10  A    between atoms: C_14  and  C_15
REMARK   11  A    between atoms: C_17  and  C_19
REMARK   12  A    between atoms: C_19  and  C_21
REMARK   13  A    between atoms: C_19  and  S_22
REMARK   14  A    between atoms: S_22  and  C_23
REMARK   15  A    between atoms: C_25  and  C_35
REMARK   16  A    between atoms: C_28  and  C_34
REMARK   17  A    between atoms: C_30  and  C_33
REMARK                            x       y       z     vdW  Elec       q    Type
REMARK                         _______ _______ _______ _____ _____    ______ ____
ROOT
ATOM      1  N   UNL     1       4.278   6.159  -0.646  0.00  0.00    -0.255 N 
ATOM      2  C   UNL     1       3.132   5.680  -0.122  0.00  0.00    +0.232 C 
ATOM      3  O   UNL     1       2.271   6.447   0.255  0.00  0.00    -0.274 OA
ATOM      4  H   UNL     1       5.059   5.463  -0.988  0.00  0.00    +0.158 HD
ENDROOT
BRANCH   1   8
ATOM      5  C   UNL     1       5.320   9.594  -1.171  0.00  0.00    +0.115 A 
ATOM      6  C   UNL     1       4.084   9.696  -0.615  0.00  0.00    +0.119 A 
ATOM      7  O   UNL     1       3.600   8.470  -0.383  0.00  0.00    -0.445 OA
ATOM      8  C   UNL     1       4.471   7.522  -0.755  0.00  0.00    +0.207 A 
ATOM      9  C   UNL     1       5.595   8.142  -1.272  0.00  0.00    +0.134 A 
ATOM     10  C   UNL     1       3.367  10.987  -0.314  0.00  0.00    +0.087 C 
BRANCH   5  11
ATOM     11  C   UNL     1       6.201  10.696  -1.587  0.00  0.00    +0.343 C 
ATOM     12  O   UNL     1       6.132  11.136  -2.718  0.00  0.00    -0.245 OA
BRANCH  11  13
ATOM     13  O   UNL     1       7.085  11.219  -0.713  0.00  0.00    -0.461 OA
BRANCH  13  15
ATOM     14  C   UNL     1       8.854  12.763  -0.068  0.00  0.00    +0.048 C 
ATOM     15  C   UNL     1       7.922  12.304  -1.192  0.00  0.00    +0.229 C 
ENDBRANCH  13  15
ENDBRANCH  11  13
ENDBRANCH   5  11
BRANCH   9  16
ATOM     16  C   UNL     1       6.798   7.500  -1.804  0.00  0.00    +0.345 C 
ATOM     17  O   UNL     1       6.865   7.218  -2.986  0.00  0.00    -0.245 OA
BRANCH  16  18
ATOM     18  O   UNL     1       7.833   7.221  -0.985  0.00  0.00    -0.461 OA
BRANCH  18  19
ATOM     19  C   UNL     1       8.994   6.584  -1.582  0.00  0.00    +0.229 C 
ATOM     20  C   UNL     1      10.056   6.349  -0.506  0.00  0.00    +0.048 C 
ENDBRANCH  18  19
ENDBRANCH  16  18
ENDBRANCH   9  16
ENDBRANCH   1   8
BRANCH   2  21
ATOM     21  C   UNL     1       2.921   4.193  -0.004  0.00  0.00    +0.136 C 
ATOM     22  C   UNL     1       3.554   3.690   1.295  0.00  0.00    +0.029 C 
BRANCH  21  23
ATOM     23  S   UNL     1       1.147   3.834   0.011  0.00  0.00    -0.093 S 
BRANCH  23  24
ATOM     24  C   UNL     1       1.191   2.073   0.002  0.00  0.00    +0.099 A 
ATOM     25  C   UNL     1      -0.016   1.357   0.009  0.00  0.00    +0.038 A 
ATOM     26  C   UNL     1       0.002  -0.004   0.002  0.00  0.00    -0.039 A 
ATOM     27  C   UNL     1       1.253  -0.656  -0.013  0.00  0.00    +0.004 A 
ATOM     28  C   UNL     1       1.344  -2.056  -0.021  0.00  0.00    +0.013 A 
ATOM     29  C   UNL     1       2.569  -2.651  -0.037  0.00  0.00    -0.050 A 
ATOM     30  C   UNL     1       3.734  -1.888  -0.044  0.00  0.00    +0.008 A 
ATOM     31  C   UNL     1       3.682  -0.528  -0.036  0.00  0.00    -0.024 A 
ATOM     32  C   UNL     1       2.436   0.122  -0.021  0.00  0.00    +0.075 A 
ATOM     33  N   UNL     1       2.356   1.458  -0.012  0.00  0.00    -0.240 NA
ATOM     34  C   UNL     1       4.955   0.278  -0.044  0.00  0.00    +0.046 C 
ATOM     35  C   UNL     1       2.665  -4.155  -0.046  0.00  0.00    +0.044 C 
ATOM     36  C   UNL     1      -1.281  -0.794   0.011  0.00  0.00    +0.044 C 
ENDBRANCH  23  24
ENDBRANCH  21  23
ENDBRANCH   2  21
TORSDOF 10
