REMARK  Name = ZINC25262223
REMARK  9 active torsions:
REMARK  status: ('A' for Active; 'I' for Inactive)
REMARK    1  A    between atoms: C_1  and  C_2
REMARK    2  A    between atoms: C_2  and  C_3
REMARK    3  A    between atoms: C_3  and  C_4
REMARK    4  A    between atoms: C_4  and  C_6
REMARK    5  A    between atoms: C_4  and  N_22
REMARK    6  A    between atoms: N_8  and  N_9
REMARK    7  A    between atoms: C_10  and  C_12
REMARK    8  A    between atoms: N_25  and  C_26
REMARK    9  A    between atoms: C_26  and  C_27
REMARK                            x       y       z     vdW  Elec       q    Type
REMARK                         _______ _______ _______ _____ _____    ______ ____
ROOT
ATOM      1  C   UNL     1       2.462   0.920  -0.017  0.00  0.00    +0.162 C 
ENDROOT
BRANCH   1   2
ATOM      2  N   UNL     1       3.562   1.887  -0.022  0.00  0.00    -0.288 N 
ATOM      3  C   UNL     1       4.771   1.534   0.458  0.00  0.00    +0.300 C 
ATOM      4  O   UNL     1       4.949   0.414   0.895  0.00  0.00    -0.253 OA
ATOM      5  N   UNL     1       5.784   2.424   0.453  0.00  0.00    -0.295 N 
ATOM      6  H   UNL     1       3.402   2.901  -0.417  0.00  0.00    +0.151 HD
ATOM      7  H   UNL     1       5.623   3.438   0.058  0.00  0.00    +0.151 HD
BRANCH   5   8
ATOM      8  C   UNL     1       7.098   2.041   0.975  0.00  0.00    +0.141 C 
BRANCH   8   9
ATOM      9  C   UNL     1       8.045   3.207   0.856  0.00  0.00    -0.030 A 
ATOM     10  C   UNL     1       8.807   3.364  -0.287  0.00  0.00    +0.008 A 
ATOM     11  C   UNL     1       9.673   4.436  -0.400  0.00  0.00    +0.038 A 
ATOM     12  C   UNL     1       9.784   5.347   0.637  0.00  0.00    +0.123 A 
ATOM     13  C   UNL     1       9.024   5.186   1.784  0.00  0.00    +0.038 A 
ATOM     14  C   UNL     1       8.156   4.116   1.891  0.00  0.00    +0.008 A 
ATOM     15  F   UNL     1      10.633   6.392   0.530  0.00  0.00    -0.205 F 
ENDBRANCH   8   9
ENDBRANCH   5   8
ENDBRANCH   1   2
BRANCH   1  16
ATOM     16  C   UNL     1       1.147   1.655   0.000  0.00  0.00    +0.249 C 
ATOM     17  O   UNL     1       1.130   2.868   0.007  0.00  0.00    -0.272 OA
ATOM     18  N   UNL     1      -0.011   0.966   0.007  0.00  0.00    -0.233 N 
ATOM     19  H   UNL     1       0.004  -0.134   0.006  0.00  0.00    +0.173 HD
BRANCH  18  20
ATOM     20  N   UNL     1      -1.234   1.650   0.017  0.00  0.00    -0.234 N 
ATOM     21  C   UNL     1      -2.392   0.960   0.019  0.00  0.00    +0.235 C 
ATOM     22  O   UNL     1      -2.375  -0.253   0.012  0.00  0.00    -0.274 OA
ATOM     23  H   UNL     1      -1.249   2.750   0.023  0.00  0.00    +0.173 HD
BRANCH  21  24
ATOM     24  C   UNL     1      -3.707   1.696   0.029  0.00  0.00    +0.049 C 
ATOM     25  C   UNL     1      -3.794   2.567   1.283  0.00  0.00    +0.019 C 
ATOM     26  C   UNL     1      -5.129   3.314   1.294  0.00  0.00    -0.009 C 
ATOM     27  C   UNL     1      -6.279   2.304   1.294  0.00  0.00    +0.007 C 
ATOM     28  C   UNL     1      -6.191   1.433   0.039  0.00  0.00    -0.009 C 
ATOM     29  C   UNL     1      -4.856   0.686   0.029  0.00  0.00    +0.019 C 
ATOM     30  C   UNL     1      -6.290   2.318  -1.205  0.00  0.00    +0.007 C 
ATOM     31  C   UNL     1      -5.141   3.328  -1.205  0.00  0.00    -0.009 C 
ATOM     32  C   UNL     1      -5.228   4.199   0.050  0.00  0.00    +0.007 C 
ATOM     33  C   UNL     1      -3.806   2.581  -1.215  0.00  0.00    +0.019 C 
ENDBRANCH  21  24
ENDBRANCH  18  20
ENDBRANCH   1  16
BRANCH   1  34
ATOM     34  C   UNL     1       2.543   0.048  -1.271  0.00  0.00    +0.031 C 
BRANCH  34  36
ATOM     35  C   UNL     1       3.902  -1.664  -2.482  0.00  0.00    +0.004 C 
ATOM     36  C   UNL     1       3.821  -0.792  -1.227  0.00  0.00    -0.001 C 
ENDBRANCH  34  36
ENDBRANCH   1  34
TORSDOF 8
