REMARK  Name = ZINC09641051
REMARK  2 active torsions:
REMARK  status: ('A' for Active; 'I' for Inactive)
REMARK    1  A    between atoms: C_10  and  C_13
REMARK    2  A    between atoms: C_17  and  N_19
REMARK                            x       y       z     vdW  Elec       q    Type
REMARK                         _______ _______ _______ _____ _____    ______ ____
ROOT
ATOM      1  C   UNL     1      -3.568   3.124   0.081  0.00  0.00    +0.001 A 
ATOM      2  C   UNL     1      -3.532   1.881  -0.532  0.00  0.00    +0.002 A 
ATOM      3  C   UNL     1      -2.361   1.148  -0.566  0.00  0.00    +0.024 A 
ATOM      4  C   UNL     1      -1.216   1.660   0.017  0.00  0.00    +0.041 A 
ATOM      5  C   UNL     1      -1.245   2.920   0.647  0.00  0.00    +0.058 A 
ATOM      6  C   UNL     1      -2.431   3.649   0.679  0.00  0.00    +0.015 A 
ATOM      7  C   UNL     1      -0.003   3.431   1.255  0.00  0.00    +0.247 C 
ATOM      8  O   UNL     1      -0.035   4.384   2.010  0.00  0.00    -0.270 OA
ATOM      9  N   UNL     1       1.169   2.829   0.966  0.00  0.00    -0.289 N 
ATOM     10  C   UNL     1       1.240   1.733  -0.001  0.00  0.00    +0.190 C 
ATOM     11  N   UNL     1      -0.011   0.966   0.007  0.00  0.00    -0.322 N 
ATOM     12  H   UNL     1       1.980   3.129   1.406  0.00  0.00    +0.151 HD
ATOM     13  H   UNL     1       0.002  -0.004   0.002  0.00  0.00    +0.148 HD
ENDROOT
BRANCH  10  14
ATOM     14  C   UNL     1       1.471   2.297  -1.379  0.00  0.00    -0.007 A 
ATOM     15  C   UNL     1       1.003   1.620  -2.490  0.00  0.00    +0.008 A 
ATOM     16  C   UNL     1       1.210   2.140  -3.754  0.00  0.00    +0.018 A 
ATOM     17  C   UNL     1       1.895   3.332  -3.908  0.00  0.00    +0.048 A 
ATOM     18  C   UNL     1       2.368   4.006  -2.796  0.00  0.00    +0.140 A 
ATOM     19  C   UNL     1       2.156   3.488  -1.532  0.00  0.00    +0.041 A 
ATOM     20 BR   UNL     1       2.185   4.039  -5.637  0.00  0.00    -0.048 Br
BRANCH  18  21
ATOM     21  N   UNL     1       3.102   5.281  -2.961  0.00  0.00    +0.058 N 
ATOM     22  O   UNL     1       3.518   5.874  -1.982  0.00  0.00    -0.126 OA
ATOM     23  O   UNL     1       3.289   5.737  -4.074  0.00  0.00    -0.126 OA
ENDBRANCH  18  21
ENDBRANCH  10  14
TORSDOF 2
