REMARK  Name = ZINC32116806
REMARK  6 active torsions:
REMARK  status: ('A' for Active; 'I' for Inactive)
REMARK    1  A    between atoms: C_6  and  C_7
REMARK    2  A    between atoms: N_9  and  C_10
REMARK    3  A    between atoms: C_10  and  N_12
REMARK    4  A    between atoms: N_12  and  C_13
REMARK    5  A    between atoms: C_20  and  C_22
REMARK    6  A    between atoms: C_25  and  O_29
REMARK                            x       y       z     vdW  Elec       q    Type
REMARK                         _______ _______ _______ _____ _____    ______ ____
ROOT
ATOM      1  C   UNL     1      -3.529  -4.947   0.061  0.00  0.00    +0.035 A 
ATOM      2  C   UNL     1      -4.788  -4.350   0.045  0.00  0.00    +0.027 A 
ATOM      3  C   UNL     1      -5.928  -5.124   0.102  0.00  0.00    +0.050 A 
ATOM      4  C   UNL     1      -5.825  -6.504   0.175  0.00  0.00    +0.156 A 
ATOM      5  C   UNL     1      -4.560  -7.113   0.192  0.00  0.00    +0.112 A 
ATOM      6  C   UNL     1      -3.411  -6.323   0.129  0.00  0.00    +0.054 A 
ATOM      7  N   UNL     1      -4.773  -8.453   0.267  0.00  0.00    -0.209 NA
ATOM      8  C   UNL     1      -6.063  -8.673   0.296  0.00  0.00    +0.228 A 
ATOM      9  O   UNL     1      -6.732  -7.506   0.241  0.00  0.00    -0.435 OA
ENDROOT
BRANCH   8  10
ATOM     10  C   UNL     1      -6.692 -10.007   0.376  0.00  0.00    +0.038 A 
ATOM     11  C   UNL     1      -5.898 -11.154   0.433  0.00  0.00    +0.017 A 
ATOM     12  C   UNL     1      -6.488 -12.397   0.508  0.00  0.00    +0.047 A 
ATOM     13  C   UNL     1      -7.872 -12.510   0.526  0.00  0.00    +0.131 A 
ATOM     14  C   UNL     1      -8.668 -11.371   0.469  0.00  0.00    +0.060 A 
ATOM     15  C   UNL     1      -8.084 -10.124   0.400  0.00  0.00    +0.032 A 
ATOM     16 BR   UNL     1     -10.551 -11.533   0.493  0.00  0.00    -0.047 Br
BRANCH  13  17
ATOM     17  O   UNL     1      -8.451 -13.737   0.600  0.00  0.00    -0.506 OA
ATOM     18  H   UNL     1      -8.611 -14.043   1.503  0.00  0.00    +0.292 HD
ENDBRANCH  13  17
ENDBRANCH   8  10
BRANCH   1  19
ATOM     19  N   UNL     1      -2.379  -4.150   0.003  0.00  0.00    -0.297 N 
ATOM     20  H   UNL     1      -1.654  -4.387  -0.595  0.00  0.00    +0.154 HD
BRANCH  19  21
ATOM     21  C   UNL     1      -2.280  -3.052   0.779  0.00  0.00    +0.141 C 
ATOM     22  S   UNL     1      -3.602  -2.571   1.755  0.00  0.00    -0.018 S 
BRANCH  21  25
ATOM     23  C   UNL     1      -1.041  -1.236   1.563  0.00  0.00    +0.250 C 
ATOM     24  O   UNL     1      -1.979  -0.894   2.256  0.00  0.00    -0.270 OA
ATOM     25  N   UNL     1      -1.140  -2.333   0.787  0.00  0.00    -0.264 N 
ATOM     26  H   UNL     1      -0.391  -2.606   0.234  0.00  0.00    +0.157 HD
BRANCH  23  32
ATOM     27  C   UNL     1       0.314   0.690   2.375  0.00  0.00    +0.016 A 
ATOM     28  C   UNL     1       1.482   1.421   2.380  0.00  0.00    +0.039 A 
ATOM     29  C   UNL     1       2.551   1.029   1.588  0.00  0.00    +0.123 A 
ATOM     30  C   UNL     1       2.452  -0.099   0.789  0.00  0.00    +0.039 A 
ATOM     31  C   UNL     1       1.288  -0.838   0.776  0.00  0.00    +0.016 A 
ATOM     32  C   UNL     1       0.208  -0.448   1.572  0.00  0.00    +0.037 A 
ATOM     33  F   UNL     1       3.694   1.750   1.597  0.00  0.00    -0.205 F 
ENDBRANCH  23  32
ENDBRANCH  21  25
ENDBRANCH  19  21
ENDBRANCH   1  19
TORSDOF 6
