REMARK  Name = ZINC20694340
REMARK  8 active torsions:
REMARK  status: ('A' for Active; 'I' for Inactive)
REMARK    1  A    between atoms: C_1  and  O_2
REMARK    2  A    between atoms: O_2  and  C_3
REMARK    3  A    between atoms: C_7  and  C_10
REMARK    4  A    between atoms: C_8  and  O_9
REMARK    5  A    between atoms: C_23  and  C_26
REMARK    6  A    between atoms: N_28  and  C_29
REMARK    7  A    between atoms: C_32  and  N_35
REMARK    8  A    between atoms: N_35  and  C_36
REMARK                            x       y       z     vdW  Elec       q    Type
REMARK                         _______ _______ _______ _____ _____    ______ ____
ROOT
ATOM      1  C   UNL     1       1.685   1.794  -1.910  0.00  0.00    +0.109 C 
ATOM      2  C   UNL     1       1.696   1.428  -0.424  0.00  0.00    +0.029 C 
ATOM      3  C   UNL     1       2.039  -0.085  -0.309  0.00  0.00    +0.033 C 
ATOM      4  C   UNL     1       0.709  -0.770  -0.553  0.00  0.00    -0.030 C 
ATOM      5  C   UNL     1      -0.282   0.055  -0.325  0.00  0.00    -0.023 C 
ATOM      6  C   UNL     1       0.243   1.409   0.096  0.00  0.00    +0.049 C 
ATOM      7  C   UNL     1      -0.575   2.506  -0.519  0.00  0.00    -0.019 A 
ATOM      8  C   UNL     1      -1.856   2.715  -0.030  0.00  0.00    +0.006 A 
ATOM      9  C   UNL     1      -2.665   3.707  -0.553  0.00  0.00    +0.001 A 
ATOM     10  C   UNL     1      -2.208   4.509  -1.576  0.00  0.00    +0.015 A 
ATOM     11  C   UNL     1      -0.922   4.316  -2.080  0.00  0.00    +0.058 A 
ATOM     12  C   UNL     1      -0.099   3.305  -1.544  0.00  0.00    +0.044 A 
ATOM     13  N   UNL     1       1.174   3.155  -2.071  0.00  0.00    -0.336 N 
ATOM     14  H   UNL     1       1.792   3.919  -2.567  0.00  0.00    +0.147 HD
ENDROOT
BRANCH   1  19
ATOM     15  C   UNL     1       0.512  -1.211  -3.891  0.00  0.00    +0.162 A 
ATOM     16  C   UNL     1      -0.837  -0.930  -4.036  0.00  0.00    +0.049 A 
ATOM     17  C   UNL     1      -1.366   0.223  -3.486  0.00  0.00    +0.004 A 
ATOM     18  C   UNL     1      -0.550   1.104  -2.801  0.00  0.00    +0.009 A 
ATOM     19  C   UNL     1       0.798   0.832  -2.658  0.00  0.00    +0.018 A 
ATOM     20  C   UNL     1       1.334  -0.325  -3.201  0.00  0.00    +0.163 A 
BRANCH  15  22
ATOM     21  C   UNL     1       0.130  -3.210  -5.121  0.00  0.00    +0.277 C 
ATOM     22  O   UNL     1       1.033  -2.347  -4.426  0.00  0.00    -0.491 OA
ENDBRANCH  15  22
BRANCH  20  23
ATOM     23  O   UNL     1       2.660  -0.593  -3.062  0.00  0.00    -0.503 OA
ATOM     24  H   UNL     1       3.308   0.108  -2.516  0.00  0.00    +0.292 HD
ENDBRANCH  20  23
ENDBRANCH   1  19
BRANCH  11  25
ATOM     25  C   UNL     1      -0.423   5.169  -3.175  0.00  0.00    +0.250 C 
ATOM     26  O   UNL     1       0.698   5.000  -3.615  0.00  0.00    -0.270 OA
ATOM     27  N   UNL     1      -1.210   6.135  -3.687  0.00  0.00    -0.281 N 
ATOM     28  H   UNL     1      -2.193   6.340  -3.238  0.00  0.00    +0.155 HD
BRANCH  27  29
ATOM     29  C   UNL     1      -0.777   6.879  -4.792  0.00  0.00    +0.034 A 
ATOM     30  C   UNL     1      -1.154   8.209  -4.926  0.00  0.00    +0.025 A 
ATOM     31  C   UNL     1      -0.723   8.943  -6.012  0.00  0.00    +0.025 A 
ATOM     32  C   UNL     1       0.080   8.349  -6.977  0.00  0.00    +0.031 A 
ATOM     33  C   UNL     1       0.454   7.017  -6.846  0.00  0.00    +0.025 A 
ATOM     34  C   UNL     1       0.026   6.285  -5.757  0.00  0.00    +0.025 A 
BRANCH  32  35
ATOM     35  N   UNL     1       0.513   9.091  -8.081  0.00  0.00    -0.314 N 
ATOM     36  H   UNL     1      -0.083   9.944  -8.439  0.00  0.00    +0.152 HD
BRANCH  35  37
ATOM     37  C   UNL     1       1.704   8.751  -8.728  0.00  0.00    +0.031 A 
ATOM     38  C   UNL     1       2.745   8.173  -8.013  0.00  0.00    +0.023 A 
ATOM     39  C   UNL     1       3.918   7.833  -8.657  0.00  0.00    +0.002 A 
ATOM     40  C   UNL     1       4.061   8.076 -10.011  0.00  0.00    +0.000 A 
ATOM     41  C   UNL     1       3.028   8.656 -10.725  0.00  0.00    +0.002 A 
ATOM     42  C   UNL     1       1.851   8.994 -10.088  0.00  0.00    +0.023 A 
ENDBRANCH  35  37
ENDBRANCH  32  35
ENDBRANCH  27  29
ENDBRANCH  11  25
TORSDOF 7
