REMARK  Name = ZINC19926256
REMARK  8 active torsions:
REMARK  status: ('A' for Active; 'I' for Inactive)
REMARK    1  A    between atoms: C_1  and  C_2
REMARK    2  A    between atoms: C_5  and  O_38
REMARK    3  A    between atoms: C_18  and  C_37
REMARK    4  A    between atoms: C_19  and  O_36
REMARK    5  A    between atoms: C_21  and  C_32
REMARK    6  A    between atoms: C_23  and  C_25
REMARK    7  A    between atoms: C_32  and  O_34
REMARK    8  A    between atoms: O_34  and  C_35
REMARK                            x       y       z     vdW  Elec       q    Type
REMARK                         _______ _______ _______ _____ _____    ______ ____
ROOT
ATOM      1  C   UNL     1      -1.752   2.440  -1.342  0.00  0.00    +0.012 C 
ATOM      2  C   UNL     1      -1.507   0.942  -1.512  0.00  0.00    -0.026 C 
ATOM      3  C   UNL     1      -0.914   0.398  -0.208  0.00  0.00    +0.010 C 
ATOM      4  C   UNL     1      -1.867   0.684   0.953  0.00  0.00    +0.032 C 
ATOM      5  C   UNL     1      -3.264   0.128   0.706  0.00  0.00    +0.115 C 
ATOM      6  C   UNL     1      -3.830   0.583  -0.643  0.00  0.00    +0.035 C 
ATOM      7  C   UNL     1      -2.838   0.224  -1.734  0.00  0.00    -0.002 C 
ATOM      8  C   UNL     1      -3.335   0.510  -3.144  0.00  0.00    +0.004 C 
ATOM      9  C   UNL     1      -2.476  -0.348  -4.083  0.00  0.00    +0.007 C 
ATOM     10  C   UNL     1      -1.038  -0.412  -3.613  0.00  0.00    +0.025 C 
ATOM     11  C   UNL     1      -0.578   0.704  -2.688  0.00  0.00    +0.001 C 
ATOM     12  C   UNL     1      -0.153   1.974  -3.401  0.00  0.00    +0.005 C 
ATOM     13  C   UNL     1       0.912   1.675  -4.477  0.00  0.00    +0.010 C 
ATOM     14  C   UNL     1       0.317   0.696  -5.459  0.00  0.00    +0.005 C 
ATOM     15  C   UNL     1      -0.041  -0.613  -4.724  0.00  0.00    +0.076 C 
ATOM     16  C   UNL     1      -0.460  -1.515  -5.894  0.00  0.00    +0.051 C 
ATOM     17  C   UNL     1       0.568  -1.152  -7.003  0.00  0.00    +0.109 C 
ATOM     18  C   UNL     1       1.269   0.153  -6.541  0.00  0.00    +0.044 C 
ATOM     19  C   UNL     1      -0.865   1.335  -6.183  0.00  0.00    +0.014 C 
ENDROOT
BRANCH  18  20
ATOM     20  C   UNL     1       1.365   1.134  -7.681  0.00  0.00    -0.008 A 
ATOM     21  C   UNL     1       0.340   1.199  -8.640  0.00  0.00    +0.014 A 
ATOM     22  C   UNL     1       0.448   2.095  -9.663  0.00  0.00    +0.092 A 
ATOM     23  C   UNL     1       1.581   2.926  -9.726  0.00  0.00    +0.337 A 
ATOM     24  O   UNL     1       1.696   3.733 -10.633  0.00  0.00    -0.245 OA
ATOM     25  O   UNL     1       2.538   2.831  -8.788  0.00  0.00    -0.430 OA
ATOM     26  C   UNL     1       2.432   1.954  -7.779  0.00  0.00    +0.203 A 
ENDBRANCH  18  20
BRANCH  17  27
ATOM     27  C   UNL     1       1.578  -2.257  -7.162  0.00  0.00    +0.311 C 
ATOM     28  O   UNL     1       2.745  -2.047  -6.934  0.00  0.00    -0.251 OA
BRANCH  27  29
ATOM     29  O   UNL     1       1.180  -3.477  -7.557  0.00  0.00    -0.468 OA
ATOM     30  C   UNL     1       2.208  -4.495  -7.689  0.00  0.00    +0.280 C 
ENDBRANCH  27  29
ENDBRANCH  17  27
BRANCH  15  31
ATOM     31  O   UNL     1       1.166  -1.171  -4.148  0.00  0.00    -0.388 OA
ATOM     32  H   UNL     1       2.029  -1.396  -4.792  0.00  0.00    +0.210 HD
ENDBRANCH  15  31
BRANCH   5  33
ATOM     33  O   UNL     1      -3.224  -1.301   0.746  0.00  0.00    -0.392 OA
ATOM     34  H   UNL     1      -4.146  -1.881   0.588  0.00  0.00    +0.210 HD
ENDBRANCH   5  33
TORSDOF 5
