REMARK  Name = ZINC24709859
REMARK  5 active torsions:
REMARK  status: ('A' for Active; 'I' for Inactive)
REMARK    1  A    between atoms: C_1  and  C_2
REMARK    2  A    between atoms: C_2  and  C_25
REMARK    3  A    between atoms: N_5  and  C_9
REMARK    4  A    between atoms: C_9  and  C_10
REMARK    5  A    between atoms: N_12  and  N_13
REMARK                            x       y       z     vdW  Elec       q    Type
REMARK                         _______ _______ _______ _____ _____    ______ ____
ROOT
ATOM      1  C   UNL     1       5.875  -3.886   3.765  0.00  0.00    +0.215 C 
ENDROOT
BRANCH   1   6
ATOM      2  C   UNL     1       3.459  -7.917   3.838  0.00  0.00    +0.047 C 
ATOM      3  C   UNL     1       4.856  -7.427   4.227  0.00  0.00    +0.136 C 
ATOM      4  C   UNL     1       4.824  -5.966   4.629  0.00  0.00    +0.251 C 
ATOM      5  O   UNL     1       4.210  -5.474   5.552  0.00  0.00    -0.272 OA
ATOM      6  N   UNL     1       5.618  -5.328   3.748  0.00  0.00    -0.215 N 
ATOM      7  C   UNL     1       6.148  -6.175   2.858  0.00  0.00    +0.310 C 
ATOM      8  O   UNL     1       6.901  -5.835   1.967  0.00  0.00    -0.252 OA
ATOM      9  N   UNL     1       5.755  -7.446   3.060  0.00  0.00    -0.281 N 
ATOM     10  H   UNL     1       5.973  -8.395   2.549  0.00  0.00    +0.152 HD
BRANCH   3  11
ATOM     11  C   UNL     1       5.419  -8.268   5.344  0.00  0.00    +0.003 A 
ATOM     12  C   UNL     1       6.608  -8.950   5.163  0.00  0.00    +0.009 A 
ATOM     13  C   UNL     1       7.128  -9.716   6.189  0.00  0.00    +0.020 A 
ATOM     14  C   UNL     1       6.453  -9.812   7.393  0.00  0.00    +0.042 A 
ATOM     15  C   UNL     1       5.260  -9.135   7.572  0.00  0.00    +0.040 A 
ATOM     16  C   UNL     1       4.743  -8.363   6.547  0.00  0.00    +0.048 A 
ATOM     17 CL   UNL     1       3.245  -7.513   6.771  0.00  0.00    -0.083 Cl
ATOM     18 CL   UNL     1       7.103 -10.780   8.679  0.00  0.00    -0.083 Cl
ENDBRANCH   3  11
ENDBRANCH   1   6
BRANCH   1  19
ATOM     19  C   UNL     1       4.851  -3.183   2.911  0.00  0.00    +0.248 C 
ATOM     20  O   UNL     1       3.992  -3.824   2.344  0.00  0.00    -0.273 OA
ATOM     21  N   UNL     1       4.891  -1.843   2.778  0.00  0.00    -0.222 N 
ATOM     22  H   UNL     1       5.670  -1.261   3.292  0.00  0.00    +0.174 HD
BRANCH  21  23
ATOM     23  N   UNL     1       3.939  -1.189   1.984  0.00  0.00    -0.137 N 
ATOM     24  C   UNL     1       2.903  -0.477   2.474  0.00  0.00    +0.263 C 
ATOM     25  O   UNL     1       2.629  -0.287   3.639  0.00  0.00    -0.271 OA
ATOM     26  C   UNL     1       2.156   0.034   1.263  0.00  0.00    +0.114 C 
ATOM     27  C   UNL     1       0.732  -0.510   1.249  0.00  0.00    +0.035 C 
ATOM     28  C   UNL     1       0.002  -0.004   0.002  0.00  0.00    +0.003 C 
ATOM     29  C   UNL     1      -0.019   1.526   0.010  0.00  0.00    +0.000 C 
ATOM     30  C   UNL     1       1.417   2.056  -0.000  0.00  0.00    +0.003 C 
ATOM     31  C   UNL     1       2.152   1.559   1.246  0.00  0.00    +0.035 C 
ATOM     32  N   UNL     1       2.920  -0.492   0.125  0.00  0.00    -0.284 N 
ATOM     33  C   UNL     1       3.945  -1.194   0.645  0.00  0.00    +0.326 C 
ATOM     34  O   UNL     1       4.780  -1.769  -0.025  0.00  0.00    -0.251 OA
ATOM     35  H   UNL     1       2.597  -0.271  -0.903  0.00  0.00    +0.151 HD
ENDBRANCH  21  23
ENDBRANCH   1  19
TORSDOF 4
