REMARK  Name = ZINC01051688
REMARK  8 active torsions:
REMARK  status: ('A' for Active; 'I' for Inactive)
REMARK    1  A    between atoms: C_1  and  C_2
REMARK    2  A    between atoms: C_5  and  N_9
REMARK    3  A    between atoms: N_9  and  C_10
REMARK    4  A    between atoms: C_10  and  C_11
REMARK    5  A    between atoms: N_13  and  N_14
REMARK    6  A    between atoms: C_15  and  C_16
REMARK    7  A    between atoms: C_19  and  O_23
REMARK    8  A    between atoms: C_21  and  O_22
REMARK                            x       y       z     vdW  Elec       q    Type
REMARK                         _______ _______ _______ _____ _____    ______ ____
ROOT
ATOM      1  C   UNL     1      -2.575   5.462   0.390  0.00  0.00    +0.249 C 
ATOM      2  O   UNL     1      -1.537   6.084   0.484  0.00  0.00    -0.272 OA
ATOM      3  N   UNL     1      -2.567   4.119   0.505  0.00  0.00    -0.206 N 
ATOM      4  H   UNL     1      -3.397   3.621   0.430  0.00  0.00    +0.177 HD
ENDROOT
BRANCH   3   5
ATOM      5  N   UNL     1      -1.362   3.442   0.732  0.00  0.00    -0.188 NA
ATOM      6  C   UNL     1      -1.355   2.148   0.842  0.00  0.00    +0.142 C 
BRANCH   6   7
ATOM      7  C   UNL     1      -0.088   1.436   1.081  0.00  0.00    +0.036 A 
ATOM      8  C   UNL     1      -0.077   0.044   1.200  0.00  0.00    +0.016 A 
ATOM      9  C   UNL     1       1.111  -0.619   1.417  0.00  0.00    +0.046 A 
ATOM     10  C   UNL     1       2.301   0.093   1.519  0.00  0.00    +0.120 A 
ATOM     11  C   UNL     1       2.300   1.475   1.402  0.00  0.00    +0.091 A 
ATOM     12  C   UNL     1       1.113   2.152   1.184  0.00  0.00    +0.129 A 
BRANCH  12  13
ATOM     13  O   UNL     1       1.112   3.505   1.069  0.00  0.00    -0.506 OA
ATOM     14  H   UNL     1       0.993   3.971   1.908  0.00  0.00    +0.292 HD
ENDBRANCH  12  13
BRANCH  10  15
ATOM     15  O   UNL     1       3.468  -0.568   1.732  0.00  0.00    -0.507 OA
ATOM     16  H   UNL     1       3.924  -0.833   0.922  0.00  0.00    +0.292 HD
ENDBRANCH  10  15
ENDBRANCH   6   7
ENDBRANCH   3   5
BRANCH   1  17
ATOM     17  C   UNL     1      -3.871   6.190   0.146  0.00  0.00    +0.199 C 
BRANCH  17  18
ATOM     18  N   UNL     1      -3.613   7.634   0.061  0.00  0.00    -0.334 N 
ATOM     19  H   UNL     1      -2.996   7.846  -0.709  0.00  0.00    +0.147 HD
BRANCH  18  24
ATOM     20  C   UNL     1      -8.464  10.543  -0.362  0.00  0.00    +0.044 C 
ATOM     21  C   UNL     1      -7.176   9.771  -0.250  0.00  0.00    -0.048 A 
ATOM     22  C   UNL     1      -6.542   9.316  -1.392  0.00  0.00    +0.020 A 
ATOM     23  C   UNL     1      -5.360   8.607  -1.293  0.00  0.00    +0.040 A 
ATOM     24  C   UNL     1      -4.808   8.351  -0.043  0.00  0.00    +0.056 A 
ATOM     25  C   UNL     1      -5.450   8.805   1.102  0.00  0.00    +0.040 A 
ATOM     26  C   UNL     1      -6.629   9.518   0.995  0.00  0.00    +0.020 A 
ATOM     27 BR   UNL     1      -4.708   8.453   2.805  0.00  0.00    -0.048 Br
ATOM     28 BR   UNL     1      -4.495   7.986  -2.855  0.00  0.00    -0.048 Br
ENDBRANCH  18  24
ENDBRANCH  17  18
ENDBRANCH   1  17
TORSDOF 7
