REMARK  Name = ZINC02597595
REMARK  8 active torsions:
REMARK  status: ('A' for Active; 'I' for Inactive)
REMARK    1  A    between atoms: C_1  and  O_2
REMARK    2  A    between atoms: O_2  and  C_3
REMARK    3  A    between atoms: C_5  and  C_10
REMARK    4  A    between atoms: C_8  and  O_9
REMARK    5  A    between atoms: C_12  and  C_24
REMARK    6  A    between atoms: C_14  and  C_19
REMARK    7  A    between atoms: C_14  and  O_23
REMARK    8  A    between atoms: C_24  and  C_26
REMARK                            x       y       z     vdW  Elec       q    Type
REMARK                         _______ _______ _______ _____ _____    ______ ____
ROOT
ATOM      1  C   UNL     1      -1.817   1.766   0.167  0.00  0.00    +0.120 C 
ATOM      2  C   UNL     1      -0.767   2.489   1.020  0.00  0.00    +0.145 C 
ATOM      3  C   UNL     1       0.477   2.729   0.157  0.00  0.00    +0.243 C 
ATOM      4  N   UNL     1       0.938   1.451  -0.386  0.00  0.00    -0.264 N 
ATOM      5  C   UNL     1       0.084   0.445  -0.624  0.00  0.00    +0.302 C 
ATOM      6  O   UNL     1       0.517  -0.593  -1.087  0.00  0.00    -0.253 OA
ATOM      7  N   UNL     1      -1.231   0.538  -0.372  0.00  0.00    -0.292 N 
ATOM      8  H   UNL     1       1.881   1.329  -0.578  0.00  0.00    +0.153 HD
ATOM      9  H   UNL     1      -1.804  -0.223  -0.555  0.00  0.00    +0.151 HD
ENDROOT
BRANCH   1  12
ATOM     10  C   UNL     1      -4.116  -0.076   2.532  0.00  0.00    +0.162 A 
ATOM     11  C   UNL     1      -3.023   0.240   1.741  0.00  0.00    +0.055 A 
ATOM     12  C   UNL     1      -3.009   1.421   1.022  0.00  0.00    -0.023 A 
ATOM     13  C   UNL     1      -4.088   2.283   1.082  0.00  0.00    +0.009 A 
ATOM     14  C   UNL     1      -5.184   1.971   1.865  0.00  0.00    +0.049 A 
ATOM     15  C   UNL     1      -5.202   0.791   2.592  0.00  0.00    +0.158 A 
BRANCH  10  17
ATOM     16  C   UNL     1      -2.980  -2.077   3.135  0.00  0.00    +0.277 C 
ATOM     17  O   UNL     1      -4.130  -1.235   3.244  0.00  0.00    -0.491 OA
ENDBRANCH  10  17
BRANCH  15  18
ATOM     18  O   UNL     1      -6.279   0.483   3.363  0.00  0.00    -0.503 OA
ATOM     19  H   UNL     1      -6.962  -0.023   2.901  0.00  0.00    +0.292 HD
ENDBRANCH  15  18
ENDBRANCH   1  12
BRANCH   3  20
ATOM     20  C   UNL     1       1.582   3.349   1.014  0.00  0.00    +0.436 C 
ATOM     21  F   UNL     1       2.719   3.561   0.227  0.00  0.00    -0.166 F 
ATOM     22  F   UNL     1       1.140   4.571   1.534  0.00  0.00    -0.166 F 
ATOM     23  F   UNL     1       1.898   2.482   2.066  0.00  0.00    -0.166 F 
ENDBRANCH   3  20
BRANCH   3  24
ATOM     24  O   UNL     1       0.150   3.614  -0.916  0.00  0.00    -0.364 OA
ATOM     25  H   UNL     1       0.890   3.807  -1.506  0.00  0.00    +0.212 HD
ENDBRANCH   3  24
BRANCH   2  26
ATOM     26  C   UNL     1      -0.401   1.638   2.209  0.00  0.00    +0.179 C 
ATOM     27  O   UNL     1      -0.170   0.455   2.061  0.00  0.00    -0.291 OA
BRANCH  26  28
ATOM     28  C   UNL     1      -0.327   2.217   3.496  0.00  0.00    +0.055 A 
ATOM     29  C   UNL     1      -0.016   1.615   4.711  0.00  0.00    +0.019 A 
ATOM     30  C   UNL     1      -0.011   2.420   5.820  0.00  0.00    +0.008 A 
ATOM     31  C   UNL     1      -0.316   3.739   5.686  0.00  0.00    +0.046 A 
ATOM     32  S   UNL     1      -0.614   3.908   3.987  0.00  0.00    -0.094 S 
ENDBRANCH  26  28
ENDBRANCH   2  26
TORSDOF 7
