REMARK  Name = ZINC41006679
REMARK  8 active torsions:
REMARK  status: ('A' for Active; 'I' for Inactive)
REMARK    1  A    between atoms: C_1  and  C_2
REMARK    2  A    between atoms: C_2  and  O_37
REMARK    3  A    between atoms: C_6  and  C_28
REMARK    4  A    between atoms: C_8  and  C_21
REMARK    5  A    between atoms: C_10  and  C_12
REMARK    6  A    between atoms: N_14  and  C_15
REMARK    7  A    between atoms: C_25  and  O_27
REMARK    8  A    between atoms: N_30  and  C_31
REMARK                            x       y       z     vdW  Elec       q    Type
REMARK                         _______ _______ _______ _____ _____    ______ ____
ROOT
ATOM      1  C   UNL     1       1.199   1.736   0.987  0.00  0.00    +0.042 C 
ATOM      2  C   UNL     1       1.483   0.260   0.701  0.00  0.00    +0.082 C 
ATOM      3  C   UNL     1       2.274   0.134  -0.605  0.00  0.00    +0.110 C 
ATOM      4  C   UNL     1       3.631   0.775  -0.409  0.00  0.00    +0.148 C 
ATOM      5  O   UNL     1       4.044   1.600  -1.188  0.00  0.00    -0.296 OA
ATOM      6  C   UNL     1       4.455   0.358   0.789  0.00  0.00    +0.149 C 
ATOM      7  C   UNL     1       3.584   0.475   2.044  0.00  0.00    +0.053 C 
ATOM      8  C   UNL     1       2.301  -0.334   1.850  0.00  0.00    +0.115 C 
ENDROOT
BRANCH   7   9
ATOM      9  C   UNL     1       4.341  -0.061   3.232  0.00  0.00    -0.039 A 
ATOM     10  C   UNL     1       4.554  -1.421   3.359  0.00  0.00    +0.004 A 
ATOM     11  C   UNL     1       5.248  -1.916   4.448  0.00  0.00    +0.004 A 
ATOM     12  C   UNL     1       5.730  -1.052   5.412  0.00  0.00    +0.045 A 
ATOM     13  C   UNL     1       5.517   0.313   5.287  0.00  0.00    +0.117 A 
ATOM     14  C   UNL     1       4.826   0.808   4.191  0.00  0.00    +0.049 A 
BRANCH  13  15
ATOM     15  O   UNL     1       5.990   1.165   6.234  0.00  0.00    -0.507 OA
ATOM     16  H   UNL     1       6.885   1.489   6.061  0.00  0.00    +0.292 HD
ENDBRANCH  13  15
ENDBRANCH   7   9
BRANCH   8  17
ATOM     17  C   UNL     1       2.653  -1.763   1.528  0.00  0.00    +0.224 C 
ATOM     18  O   UNL     1       3.041  -2.056   0.417  0.00  0.00    -0.275 OA
ATOM     19  N   UNL     1       2.536  -2.716   2.474  0.00  0.00    -0.285 N 
ATOM     20  H   UNL     1       2.288  -2.472   3.380  0.00  0.00    +0.155 HD
BRANCH  19  21
ATOM     21  C   UNL     1       2.773  -4.056   2.151  0.00  0.00    +0.033 A 
ATOM     22  C   UNL     1       2.667  -4.483   0.834  0.00  0.00    +0.023 A 
ATOM     23  C   UNL     1       2.902  -5.807   0.517  0.00  0.00    +0.002 A 
ATOM     24  C   UNL     1       3.242  -6.707   1.511  0.00  0.00    +0.000 A 
ATOM     25  C   UNL     1       3.348  -6.285   2.824  0.00  0.00    +0.002 A 
ATOM     26  C   UNL     1       3.121  -4.961   3.145  0.00  0.00    +0.023 A 
ENDBRANCH  19  21
ENDBRANCH   8  17
BRANCH   6  27
ATOM     27  C   UNL     1       4.912  -1.068   0.616  0.00  0.00    +0.228 C 
ATOM     28  O   UNL     1       5.483  -1.636   1.523  0.00  0.00    -0.275 OA
ATOM     29  N   UNL     1       4.686  -1.712  -0.546  0.00  0.00    -0.285 N 
ATOM     30  H   UNL     1       4.277  -1.242  -1.289  0.00  0.00    +0.155 HD
BRANCH  29  31
ATOM     31  C   UNL     1       5.041  -3.059  -0.680  0.00  0.00    +0.033 A 
ATOM     32  C   UNL     1       5.319  -3.821   0.447  0.00  0.00    +0.023 A 
ATOM     33  C   UNL     1       5.670  -5.150   0.312  0.00  0.00    +0.002 A 
ATOM     34  C   UNL     1       5.743  -5.722  -0.945  0.00  0.00    +0.000 A 
ATOM     35  C   UNL     1       5.467  -4.966  -2.070  0.00  0.00    +0.002 A 
ATOM     36  C   UNL     1       5.110  -3.638  -1.940  0.00  0.00    +0.023 A 
ENDBRANCH  29  31
ENDBRANCH   6  27
BRANCH   2  37
ATOM     37  O   UNL     1       0.248  -0.448   0.580  0.00  0.00    -0.388 OA
ATOM     38  H   UNL     1      -0.323  -0.125  -0.130  0.00  0.00    +0.210 HD
ENDBRANCH   2  37
TORSDOF 7
