REMARK  Name = ZINC62737555
REMARK  12 active torsions:
REMARK  status: ('A' for Active; 'I' for Inactive)
REMARK    1  A    between atoms: C_1  and  C_2
REMARK    2  A    between atoms: C_2  and  C_3
REMARK    3  A    between atoms: C_2  and  C_4
REMARK    4  A    between atoms: C_4  and  N_5
REMARK    5  A    between atoms: N_5  and  C_6
REMARK    6  A    between atoms: C_6  and  C_7
REMARK    7  A    between atoms: C_12  and  N_13
REMARK    8  A    between atoms: N_13  and  C_14
REMARK    9  A    between atoms: N_13  and  C_18
REMARK   10  A    between atoms: C_14  and  C_15
REMARK   11  A    between atoms: C_18  and  C_19
REMARK   12  A    between atoms: C_18  and  C_20
REMARK                            x       y       z     vdW  Elec       q    Type
REMARK                         _______ _______ _______ _____ _____    ______ ____
ROOT
ATOM      1  C   UNL     1      -4.165   0.039  -3.255  0.00  0.00    -0.043 A 
ATOM      2  C   UNL     1      -5.019   1.026  -3.707  0.00  0.00    +0.004 A 
ATOM      3  C   UNL     1      -5.459   1.015  -5.018  0.00  0.00    +0.015 A 
ATOM      4  C   UNL     1      -5.046   0.015  -5.881  0.00  0.00    +0.020 A 
ATOM      5  C   UNL     1      -4.193  -0.976  -5.434  0.00  0.00    +0.038 A 
ATOM      6  C   UNL     1      -3.744  -0.963  -4.119  0.00  0.00    +0.033 A 
ATOM      7 BR   UNL     1      -5.651   0.003  -7.672  0.00  0.00    -0.050 Br
ENDROOT
BRANCH   1   8
ATOM      8  C   UNL     1      -3.686   0.053  -1.826  0.00  0.00    -0.045 C 
BRANCH   8   9
ATOM      9  N   UNL     1      -2.388   0.737  -1.752  0.00  0.00    +0.382 N 
ATOM     10  H   UNL     1      -2.506   1.711  -1.986  0.00  0.00    -0.085 HD
ATOM     11  H   UNL     1      -1.746   0.310  -2.402  0.00  0.00    -0.085 HD
BRANCH   9  12
ATOM     12  C   UNL     1      -1.852   0.623  -0.389  0.00  0.00    -0.079 C 
BRANCH  12  14
ATOM     13  C   UNL     1      -0.839   2.905  -0.463  0.00  0.00    +0.005 C 
ATOM     14  C   UNL     1      -0.546   1.414  -0.286  0.00  0.00    -0.034 C 
ATOM     15  C   UNL     1       0.087   1.177   1.086  0.00  0.00    +0.005 C 
ENDBRANCH  12  14
ENDBRANCH   9  12
ENDBRANCH   8   9
ENDBRANCH   1   8
BRANCH   6  16
ATOM     16  N   UNL     1      -2.877  -1.959  -3.666  0.00  0.00    -0.318 N 
BRANCH  16  17
ATOM     17  C   UNL     1      -1.443  -1.868  -3.952  0.00  0.00    +0.068 C 
ATOM     18  C   UNL     1      -0.652  -2.043  -2.654  0.00  0.00    +0.027 C 
ATOM     19  C   UNL     1      -1.049  -2.966  -4.942  0.00  0.00    +0.027 C 
ENDBRANCH  16  17
BRANCH  16  20
ATOM     20  C   UNL     1      -3.401  -3.096  -2.905  0.00  0.00    +0.200 C 
BRANCH  20  21
ATOM     21  C   UNL     1      -3.916  -4.144  -3.857  0.00  0.00    +0.228 C 
ATOM     22  O   UNL     1      -3.857  -3.957  -5.054  0.00  0.00    -0.274 OA
ATOM     23  N   UNL     1      -4.442  -5.289  -3.379  0.00  0.00    -0.328 N 
ATOM     24  H   UNL     1      -4.556  -5.409  -2.423  0.00  0.00    +0.145 HD
ATOM     25  H   UNL     1      -4.707  -5.994  -3.991  0.00  0.00    +0.145 HD
ENDBRANCH  20  21
ENDBRANCH  16  20
ENDBRANCH   6  16
TORSDOF 8
