REMARK  Name = ZINC00731382
REMARK  8 active torsions:
REMARK  status: ('A' for Active; 'I' for Inactive)
REMARK    1  A    between atoms: C_3  and  O_20
REMARK    2  A    between atoms: C_6  and  C_7
REMARK    3  A    between atoms: N_8  and  N_9
REMARK    4  A    between atoms: C_10  and  C_12
REMARK    5  A    between atoms: C_15  and  O_19
REMARK    6  A    between atoms: C_17  and  O_18
REMARK    7  A    between atoms: O_20  and  C_21
REMARK    8  A    between atoms: C_21  and  C_23
REMARK                            x       y       z     vdW  Elec       q    Type
REMARK                         _______ _______ _______ _____ _____    ______ ____
ROOT
ATOM      1  C   UNL     1      -6.109   3.532   0.131  0.00  0.00    +0.013 A 
ATOM      2  C   UNL     1      -7.305   4.217   0.141  0.00  0.00    +0.047 A 
ATOM      3  C   UNL     1      -8.505   3.523   0.054  0.00  0.00    +0.132 A 
ATOM      4  C   UNL     1      -8.506   2.138  -0.049  0.00  0.00    +0.047 A 
ATOM      5  C   UNL     1      -7.315   1.446  -0.066  0.00  0.00    +0.013 A 
ATOM      6  C   UNL     1      -6.105   2.139   0.021  0.00  0.00    -0.005 A 
ENDROOT
BRANCH   6   7
ATOM      7  C   UNL     1      -4.828   1.402   0.004  0.00  0.00    +0.138 C 
ATOM      8  N   UNL     1      -3.705   2.048   0.085  0.00  0.00    -0.187 NA
BRANCH   8   9
ATOM      9  N   UNL     1      -2.492   1.348   0.068  0.00  0.00    -0.203 N 
ATOM     10  C   UNL     1      -1.326   2.018   0.152  0.00  0.00    +0.267 C 
ATOM     11  O   UNL     1      -1.327   3.232   0.243  0.00  0.00    -0.268 OA
ATOM     12  H   UNL     1      -2.491   0.251  -0.013  0.00  0.00    +0.178 HD
BRANCH  10  13
ATOM     13  C   UNL     1      -0.050   1.283   0.135  0.00  0.00    +0.080 A 
ATOM     14  C   UNL     1      -0.045  -0.112   0.031  0.00  0.00    +0.020 A 
ATOM     15  C   UNL     1       1.148  -0.795   0.009  0.00  0.00    +0.046 A 
ATOM     16  C   UNL     1       2.353  -0.104   0.090  0.00  0.00    +0.120 A 
ATOM     17  C   UNL     1       2.360   1.279   0.193  0.00  0.00    +0.091 A 
ATOM     18  C   UNL     1       1.166   1.978   0.216  0.00  0.00    +0.132 A 
BRANCH  18  19
ATOM     19  O   UNL     1       1.171   3.331   0.318  0.00  0.00    -0.506 OA
ATOM     20  H   UNL     1       2.125   3.874   0.381  0.00  0.00    +0.292 HD
ENDBRANCH  18  19
BRANCH  16  21
ATOM     21  O   UNL     1       3.526  -0.786   0.067  0.00  0.00    -0.507 OA
ATOM     22  H   UNL     1       4.480  -0.241   0.131  0.00  0.00    +0.292 HD
ENDBRANCH  16  21
ENDBRANCH  10  13
ENDBRANCH   8   9
ENDBRANCH   6   7
BRANCH   3  23
ATOM     23  O   UNL     1      -9.682   4.202   0.070  0.00  0.00    -0.422 OA
BRANCH  23  24
ATOM     24  C   UNL     1     -10.458   4.054   1.161  0.00  0.00    +0.344 C 
ATOM     25  O   UNL     1     -10.050   3.425   2.117  0.00  0.00    -0.245 OA
BRANCH  24  26
ATOM     26  C   UNL     1     -11.806   4.658   1.196  0.00  0.00    +0.059 A 
ATOM     27  C   UNL     1     -12.276   5.387   0.101  0.00  0.00    +0.016 A 
ATOM     28  C   UNL     1     -13.537   5.942   0.137  0.00  0.00    +0.016 A 
ATOM     29  C   UNL     1     -14.333   5.789   1.260  0.00  0.00    +0.018 A 
ATOM     30  C   UNL     1     -13.870   5.072   2.351  0.00  0.00    +0.016 A 
ATOM     31  C   UNL     1     -12.613   4.506   2.325  0.00  0.00    +0.016 A 
ATOM     32 BR   UNL     1     -16.059   6.561   1.304  0.00  0.00    -0.050 Br
ENDBRANCH  24  26
ENDBRANCH  23  24
ENDBRANCH   3  23
TORSDOF 8
