REMARK  Name = ZINC50202323
REMARK  4 active torsions:
REMARK  status: ('A' for Active; 'I' for Inactive)
REMARK    1  A    between atoms: C_3  and  N_11
REMARK    2  A    between atoms: C_4  and  C_8
REMARK    3  A    between atoms: C_12  and  C_14
REMARK    4  A    between atoms: C_17  and  O_21
REMARK                            x       y       z     vdW  Elec       q    Type
REMARK                         _______ _______ _______ _____ _____    ______ ____
ROOT
ATOM      1  N   UNL     1       3.426   2.073  -0.039  0.00  0.00    -0.286 N 
ATOM      2  C   UNL     1       3.343   3.412  -0.171  0.00  0.00    +0.203 C 
ATOM      3  O   UNL     1       2.259   3.955  -0.181  0.00  0.00    -0.277 OA
ATOM      4  H   UNL     1       4.292   1.647   0.050  0.00  0.00    +0.155 HD
ENDROOT
BRANCH   1   7
ATOM      5  C   UNL     1      -0.032   0.999  -0.648  0.00  0.00    +0.017 A 
ATOM      6  C   UNL     1       1.117   1.765  -0.656  0.00  0.00    +0.025 A 
ATOM      7  C   UNL     1       2.267   1.302  -0.032  0.00  0.00    +0.048 A 
ATOM      8  C   UNL     1       2.256   0.051   0.607  0.00  0.00    +0.085 A 
ATOM      9  C   UNL     1       1.085  -0.714   0.606  0.00  0.00    +0.032 A 
ATOM     10  C   UNL     1      -0.047  -0.237  -0.019  0.00  0.00    +0.019 A 
ATOM     11 BR   UNL     1      -1.629  -1.272  -0.019  0.00  0.00    -0.050 Br
BRANCH   8  12
ATOM     12  C   UNL     1       3.468  -0.452   1.271  0.00  0.00    +0.388 C 
ATOM     13  O   UNL     1       3.484  -1.581   1.742  0.00  0.00    -0.241 OA
ATOM     14  O   UNL     1       4.460   0.259   1.353  0.00  0.00    -0.241 OA
ENDBRANCH   8  12
ENDBRANCH   1   7
BRANCH   2  15
ATOM     15  C   UNL     1       4.599   4.234  -0.306  0.00  0.00    +0.019 C 
ATOM     16  C   UNL     1       5.107   4.207  -1.769  0.00  0.00    +0.023 C 
ATOM     17  C   UNL     1       5.931   5.519  -1.839  0.00  0.00    +0.097 C 
ATOM     18  C   UNL     1       5.125   6.484  -0.945  0.00  0.00    -0.050 C 
ATOM     19  N   UNL     1       4.314   5.658  -0.029  0.00  0.00    +0.388 N 
ATOM     20  H   UNL     1       3.334   5.844  -0.183  0.00  0.00    -0.085 HD
ATOM     21  H   UNL     1       4.553   5.873   0.927  0.00  0.00    -0.085 HD
BRANCH  17  22
ATOM     22  O   UNL     1       5.996   6.004  -3.182  0.00  0.00    -0.394 OA
ATOM     23  H   UNL     1       6.501   6.823  -3.280  0.00  0.00    +0.210 HD
ENDBRANCH  17  22
ENDBRANCH   2  15
TORSDOF 4
