REMARK  Name = ZINC62038602
REMARK  9 active torsions:
REMARK  status: ('A' for Active; 'I' for Inactive)
REMARK    1  A    between atoms: C_1  and  C_2
REMARK    2  A    between atoms: C_5  and  C_9
REMARK    3  A    between atoms: C_6  and  C_8
REMARK    4  A    between atoms: C_17  and  S_19
REMARK    5  A    between atoms: S_19  and  C_20
REMARK    6  A    between atoms: C_20  and  C_22
REMARK    7  A    between atoms: C_20  and  C_23
REMARK    8  A    between atoms: N_25  and  C_26
REMARK    9  A    between atoms: C_31  and  O_32
REMARK                            x       y       z     vdW  Elec       q    Type
REMARK                         _______ _______ _______ _____ _____    ______ ____
ROOT
ATOM      1  C   UNL     1       0.078  -4.233   0.049  0.00  0.00    +0.004 A 
ATOM      2  C   UNL     1       1.147  -4.904  -0.443  0.00  0.00    +0.056 A 
ATOM      3  S   UNL     1       0.686  -6.614  -0.236  0.00  0.00    -0.078 S 
ATOM      4  C   UNL     1      -0.912  -6.384   0.496  0.00  0.00    +0.093 A 
ATOM      5  C   UNL     1      -1.050  -4.997   0.569  0.00  0.00    +0.080 A 
ATOM      6  C   UNL     1      -2.321  -4.518   1.159  0.00  0.00    +0.283 A 
ATOM      7  O   UNL     1      -2.539  -3.320   1.263  0.00  0.00    -0.265 OA
ATOM      8  N   UNL     1      -3.227  -5.407   1.577  0.00  0.00    -0.185 NA
ATOM      9  C   UNL     1      -3.034  -6.705   1.484  0.00  0.00    +0.171 A 
ATOM     10  N   UNL     1      -1.892  -7.217   0.942  0.00  0.00    -0.328 N 
ATOM     11  H   UNL     1      -1.773  -8.178   0.885  0.00  0.00    +0.168 HD
ENDROOT
BRANCH   1  16
ATOM     12  C   UNL     1      -0.007   1.524   0.101  0.00  0.00    +0.044 C 
ATOM     13  C   UNL     1       0.016   0.017   0.087  0.00  0.00    -0.050 A 
ATOM     14  C   UNL     1       0.029  -0.661  -1.119  0.00  0.00    +0.004 A 
ATOM     15  C   UNL     1       0.049  -2.040  -1.138  0.00  0.00    +0.009 A 
ATOM     16  C   UNL     1       0.057  -2.751   0.062  0.00  0.00    -0.014 A 
ATOM     17  C   UNL     1       0.043  -2.062   1.274  0.00  0.00    -0.042 A 
ATOM     18  C   UNL     1       0.029  -0.682   1.280  0.00  0.00    +0.007 A 
ATOM     19  C   UNL     1       0.051  -2.823   2.575  0.00  0.00    +0.044 C 
ENDBRANCH   1  16
BRANCH   9  20
ATOM     20  S   UNL     1      -4.283  -7.806   2.060  0.00  0.00    -0.075 S 
BRANCH  20  21
ATOM     21  C   UNL     1      -5.591  -6.706   2.669  0.00  0.00    +0.137 C 
ATOM     22  C   UNL     1      -5.072  -5.915   3.872  0.00  0.00    +0.029 C 
BRANCH  21  23
ATOM     23  C   UNL     1      -6.785  -7.527   3.084  0.00  0.00    +0.230 C 
ATOM     24  O   UNL     1      -6.639  -8.684   3.416  0.00  0.00    -0.274 OA
ATOM     25  N   UNL     1      -8.014  -6.974   3.087  0.00  0.00    -0.282 N 
ATOM     26  H   UNL     1      -8.123  -6.032   2.884  0.00  0.00    +0.155 HD
BRANCH  25  27
ATOM     27  C   UNL     1      -9.135  -7.761   3.382  0.00  0.00    +0.077 A 
ATOM     28  C   UNL     1      -9.039  -8.789   4.309  0.00  0.00    +0.047 A 
ATOM     29  C   UNL     1     -10.147  -9.564   4.599  0.00  0.00    +0.043 A 
ATOM     30  C   UNL     1     -11.352  -9.316   3.966  0.00  0.00    +0.023 A 
ATOM     31  C   UNL     1     -11.455  -8.294   3.041  0.00  0.00    +0.049 A 
ATOM     32  C   UNL     1     -10.351  -7.510   2.750  0.00  0.00    +0.138 A 
ATOM     33 CL   UNL     1     -10.025 -10.850   5.758  0.00  0.00    -0.083 Cl
BRANCH  32  34
ATOM     34  O   UNL     1     -10.452  -6.499   1.845  0.00  0.00    -0.505 OA
ATOM     35  H   UNL     1     -10.260  -6.766   0.935  0.00  0.00    +0.292 HD
ENDBRANCH  32  34
ENDBRANCH  25  27
ENDBRANCH  21  23
ENDBRANCH  20  21
ENDBRANCH   9  20
TORSDOF 6
