REMARK  Name = ZINC53517377
REMARK  6 active torsions:
REMARK  status: ('A' for Active; 'I' for Inactive)
REMARK    1  A    between atoms: C_3  and  C_6
REMARK    2  A    between atoms: C_6  and  C_8
REMARK    3  A    between atoms: C_6  and  N_15
REMARK    4  A    between atoms: N_15  and  C_16
REMARK    5  A    between atoms: C_16  and  C_17
REMARK    6  A    between atoms: N_19  and  C_20
REMARK                            x       y       z     vdW  Elec       q    Type
REMARK                         _______ _______ _______ _____ _____    ______ ____
ROOT
ATOM      1  C   UNL     1       4.509   1.466   2.247  0.00  0.00    +0.178 C 
ENDROOT
BRANCH   1   2
ATOM      2  C   UNL     1       5.362   0.580   3.117  0.00  0.00    +0.231 C 
ATOM      3  O   UNL     1       5.978  -0.341   2.624  0.00  0.00    -0.274 OA
ATOM      4  N   UNL     1       5.441   0.811   4.443  0.00  0.00    -0.284 N 
ATOM      5  H   UNL     1       5.003   1.587   4.827  0.00  0.00    +0.155 HD
BRANCH   4   6
ATOM      6  C   UNL     1       6.156  -0.068   5.266  0.00  0.00    +0.035 A 
ATOM      7  C   UNL     1       5.708  -0.330   6.556  0.00  0.00    +0.025 A 
ATOM      8  C   UNL     1       6.408  -1.196   7.372  0.00  0.00    +0.029 A 
ATOM      9  C   UNL     1       7.562  -1.807   6.904  0.00  0.00    +0.067 A 
ATOM     10  C   UNL     1       8.014  -1.547   5.609  0.00  0.00    +0.069 A 
ATOM     11  C   UNL     1       7.306  -0.681   4.790  0.00  0.00    +0.051 A 
ATOM     12  N   UNL     1       9.175  -2.295   5.430  0.00  0.00    -0.306 N 
ATOM     13  H   UNL     1       9.716  -2.318   4.625  0.00  0.00    +0.170 HD
ATOM     14  C   UNL     1       9.419  -2.979   6.563  0.00  0.00    +0.325 A 
ATOM     15  O   UNL     1      10.361  -3.729   6.740  0.00  0.00    -0.247 OA
ATOM     16  N   UNL     1       8.464  -2.706   7.472  0.00  0.00    -0.306 N 
ATOM     17  H   UNL     1       8.412  -3.073   8.369  0.00  0.00    +0.170 HD
ENDBRANCH   4   6
ENDBRANCH   1   2
BRANCH   1  18
ATOM     18  N   UNL     1       4.590   1.010   0.853  0.00  0.00    -0.297 NA
ATOM     19  H   UNL     1       4.326   0.039   0.775  0.00  0.00    +0.123 HD
BRANCH  18  20
ATOM     20  C   UNL     1       3.769   1.852  -0.026  0.00  0.00    +0.122 C 
BRANCH  20  21
ATOM     21  C   UNL     1       4.311   1.791  -1.431  0.00  0.00    -0.025 A 
ATOM     22  C   UNL     1       4.759   0.589  -1.946  0.00  0.00    +0.008 A 
ATOM     23  C   UNL     1       5.255   0.532  -3.235  0.00  0.00    +0.038 A 
ATOM     24  C   UNL     1       5.305   1.679  -4.009  0.00  0.00    +0.123 A 
ATOM     25  C   UNL     1       4.856   2.882  -3.491  0.00  0.00    +0.038 A 
ATOM     26  C   UNL     1       4.355   2.936  -2.204  0.00  0.00    +0.008 A 
ATOM     27  F   UNL     1       5.791   1.624  -5.268  0.00  0.00    -0.205 F 
ENDBRANCH  20  21
BRANCH  20  30
ATOM     28  C   UNL     1      -0.012   1.388   0.009  0.00  0.00    +0.008 A 
ATOM     29  C   UNL     1       1.193   2.065   0.000  0.00  0.00    +0.013 A 
ATOM     30  C   UNL     1       2.347   1.354  -0.014  0.00  0.00    +0.011 A 
ATOM     31  S   UNL     1       1.745  -0.327  -0.015  0.00  0.00    -0.100 S 
ATOM     32  C   UNL     1      -0.004   0.032   0.003  0.00  0.00    +0.045 A 
ENDBRANCH  20  30
ENDBRANCH  18  20
ENDBRANCH   1  18
TORSDOF 6
