REMARK  Name = ZINC55494697
REMARK  5 active torsions:
REMARK  status: ('A' for Active; 'I' for Inactive)
REMARK    1  A    between atoms: C_1  and  C_2
REMARK    2  A    between atoms: C_2  and  C_3
REMARK    3  A    between atoms: C_10  and  C_14
REMARK    4  A    between atoms: C_17  and  N_20
REMARK    5  A    between atoms: C_21  and  C_23
REMARK                            x       y       z     vdW  Elec       q    Type
REMARK                         _______ _______ _______ _____ _____    ______ ____
ROOT
ATOM      1  C   UNL     1      -1.356  -0.699  -0.023  0.00  0.00    -0.008 A 
ATOM      2  C   UNL     1      -2.208  -0.811  -1.054  0.00  0.00    +0.026 A 
ATOM      3  C   UNL     1      -3.558  -1.282  -0.811  0.00  0.00    +0.072 A 
ATOM      4  C   UNL     1      -4.630  -1.481  -1.740  0.00  0.00    +0.260 A 
ATOM      5  O   UNL     1      -4.472  -1.245  -2.926  0.00  0.00    -0.267 OA
ATOM      6  N   UNL     1      -5.814  -1.932  -1.287  0.00  0.00    -0.306 N 
ATOM      7  H   UNL     1      -6.543  -2.068  -1.913  0.00  0.00    +0.170 HD
ATOM      8  C   UNL     1      -6.008  -2.203   0.040  0.00  0.00    +0.142 A 
ATOM      9  N   UNL     1      -5.039  -2.028   0.914  0.00  0.00    -0.222 NA
ATOM     10  C   UNL     1      -3.848  -1.586   0.533  0.00  0.00    +0.116 A 
ATOM     11  S   UNL     1      -2.325  -1.236   1.374  0.00  0.00    -0.073 S 
ENDROOT
BRANCH   8  12
ATOM     12  C   UNL     1      -7.322  -2.696   0.497  0.00  0.00    +0.017 A 
ATOM     13  C   UNL     1      -8.356  -2.891  -0.422  0.00  0.00    +0.013 A 
ATOM     14  C   UNL     1      -9.580  -3.352   0.008  0.00  0.00    +0.024 A 
ATOM     15  C   UNL     1      -9.788  -3.624   1.356  0.00  0.00    +0.033 A 
ATOM     16  C   UNL     1      -8.761  -3.432   2.274  0.00  0.00    +0.024 A 
ATOM     17  C   UNL     1      -7.532  -2.976   1.850  0.00  0.00    +0.013 A 
BRANCH  15  18
ATOM     18  N   UNL     1     -11.030  -4.091   1.789  0.00  0.00    -0.286 N 
ATOM     19  C   UNL     1     -11.764  -4.891   0.991  0.00  0.00    +0.214 C 
ATOM     20  O   UNL     1     -11.306  -5.284  -0.061  0.00  0.00    -0.276 OA
ATOM     21  C   UNL     1     -13.154  -5.299   1.407  0.00  0.00    +0.109 C 
ATOM     22  H   UNL     1     -11.364  -3.840   2.664  0.00  0.00    +0.155 HD
ENDBRANCH  15  18
ENDBRANCH   8  12
BRANCH   1  24
ATOM     23  C   UNL     1       0.129   1.277   0.172  0.00  0.00    +0.009 C 
ATOM     24  C   UNL     1       0.079  -0.237  -0.041  0.00  0.00    +0.039 C 
ENDBRANCH   1  24
TORSDOF 3
