REMARK  Name = ZINC09942158
REMARK  7 active torsions:
REMARK  status: ('A' for Active; 'I' for Inactive)
REMARK    1  A    between atoms: C_1  and  C_2
REMARK    2  A    between atoms: C_2  and  C_3
REMARK    3  A    between atoms: C_3  and  C_4
REMARK    4  A    between atoms: C_4  and  S_5
REMARK    5  A    between atoms: S_5  and  C_6
REMARK    6  A    between atoms: C_8  and  C_29
REMARK    7  A    between atoms: C_11  and  C_14
REMARK                            x       y       z     vdW  Elec       q    Type
REMARK                         _______ _______ _______ _____ _____    ______ ____
ROOT
ATOM      1  C   UNL     1       0.122   0.990  -2.724  0.00  0.00    +0.150 C 
ATOM      2  N   UNL     1       1.154   0.288  -2.383  0.00  0.00    -0.254 NA
ATOM      3  C   UNL     1       2.047  -0.355  -3.340  0.00  0.00    +0.164 C 
ATOM      4  C   UNL     1       1.937   0.316  -4.712  0.00  0.00    +0.172 C 
ATOM      5  C   UNL     1       0.449   0.417  -5.082  0.00  0.00    +0.129 C 
ATOM      6  N   UNL     1      -0.211   1.217  -4.039  0.00  0.00    -0.316 N 
ATOM      7  C   UNL     1       2.525   1.697  -4.645  0.00  0.00    +0.240 C 
ATOM      8  O   UNL     1       2.061   2.498  -3.861  0.00  0.00    -0.274 OA
ATOM      9  N   UNL     1       3.550   2.069  -5.425  0.00  0.00    -0.239 N 
ATOM     10  C   UNL     1       4.107   1.230  -6.312  0.00  0.00    +0.312 C 
ATOM     11  O   UNL     1       5.033   1.620  -6.994  0.00  0.00    -0.252 OA
ATOM     12  N   UNL     1       3.667  -0.028  -6.463  0.00  0.00    -0.239 N 
ATOM     13  C   UNL     1       2.650  -0.516  -5.739  0.00  0.00    +0.240 C 
ATOM     14  O   UNL     1       2.294  -1.661  -5.919  0.00  0.00    -0.274 OA
ATOM     15  H   UNL     1      -0.867   1.891  -4.274  0.00  0.00    +0.149 HD
ATOM     16  H   UNL     1       3.898   2.971  -5.347  0.00  0.00    +0.159 HD
ATOM     17  H   UNL     1       4.098  -0.602  -7.116  0.00  0.00    +0.159 HD
ENDROOT
BRANCH   5  18
ATOM     18  C   UNL     1       0.297   1.094  -6.420  0.00  0.00    -0.024 A 
ATOM     19  C   UNL     1       0.407   2.469  -6.515  0.00  0.00    +0.005 A 
ATOM     20  C   UNL     1       0.273   3.091  -7.742  0.00  0.00    +0.002 A 
ATOM     21  C   UNL     1       0.018   2.339  -8.874  0.00  0.00    +0.020 A 
ATOM     22  C   UNL     1      -0.098   0.964  -8.779  0.00  0.00    +0.041 A 
ATOM     23  C   UNL     1       0.042   0.341  -7.551  0.00  0.00    +0.025 A 
ATOM     24 CL   UNL     1      -0.419   0.019 -10.199  0.00  0.00    -0.084 Cl
ENDBRANCH   5  18
BRANCH   3  25
ATOM     25  C   UNL     1       3.465  -0.243  -2.844  0.00  0.00    -0.020 A 
ATOM     26  C   UNL     1       4.327  -1.317  -2.966  0.00  0.00    +0.006 A 
ATOM     27  C   UNL     1       5.629  -1.214  -2.512  0.00  0.00    +0.002 A 
ATOM     28  C   UNL     1       6.069  -0.037  -1.935  0.00  0.00    +0.020 A 
ATOM     29  C   UNL     1       5.207   1.037  -1.813  0.00  0.00    +0.041 A 
ATOM     30  C   UNL     1       3.906   0.936  -2.273  0.00  0.00    +0.025 A 
ATOM     31 CL   UNL     1       5.760   2.516  -1.090  0.00  0.00    -0.084 Cl
ENDBRANCH   3  25
BRANCH   1  32
ATOM     32  S   UNL     1      -0.888   1.685  -1.458  0.00  0.00    -0.091 S 
BRANCH  32  33
ATOM     33  C   UNL     1      -0.013   1.086   0.008  0.00  0.00    +0.077 C 
BRANCH  33  34
ATOM     34  C   UNL     1      -0.729   1.579   1.267  0.00  0.00    +0.011 C 
BRANCH  34  36
ATOM     35  C   UNL     1      -0.705   1.566   3.765  0.00  0.00    +0.004 C 
ATOM     36  C   UNL     1       0.011   1.072   2.506  0.00  0.00    -0.003 C 
ENDBRANCH  34  36
ENDBRANCH  33  34
ENDBRANCH  32  33
ENDBRANCH   1  32
TORSDOF 6
