REMARK  Name = ZINC39957948
REMARK  7 active torsions:
REMARK  status: ('A' for Active; 'I' for Inactive)
REMARK    1  A    between atoms: C_1  and  C_2
REMARK    2  A    between atoms: C_2  and  O_3
REMARK    3  A    between atoms: O_3  and  C_4
REMARK    4  A    between atoms: C_9  and  C_10
REMARK    5  A    between atoms: C_12  and  C_23
REMARK    6  A    between atoms: C_13  and  N_22
REMARK    7  A    between atoms: C_18  and  C_21
REMARK                            x       y       z     vdW  Elec       q    Type
REMARK                         _______ _______ _______ _____ _____    ______ ____
ROOT
ATOM      1  C   UNL     1       1.989  -1.396  -3.491  0.00  0.00    +0.101 C 
ATOM      2  C   UNL     1       1.370  -1.676  -4.849  0.00  0.00    +0.098 C 
ATOM      3  C   UNL     1       2.080  -2.238  -5.850  0.00  0.00    +0.195 C 
ATOM      4  O   UNL     1       3.377  -2.595  -5.814  0.00  0.00    -0.448 OA
ATOM      5  C   UNL     1       3.963  -2.810  -4.528  0.00  0.00    +0.343 C 
ATOM      6  C   UNL     1       3.462  -1.651  -3.659  0.00  0.00    +0.030 C 
ATOM      7  C   UNL     1       4.545  -1.063  -3.213  0.00  0.00    +0.066 C 
ATOM      8  N   UNL     1       5.649  -1.629  -3.763  0.00  0.00    -0.155 NA
ATOM      9  N   UNL     1       5.414  -2.601  -4.529  0.00  0.00    -0.138 NA
ATOM     10  C   UNL     1       4.561   0.079  -2.229  0.00  0.00    +0.067 C 
ENDROOT
BRANCH   1  16
ATOM     11  C   UNL     1       0.777  -1.810  -1.336  0.00  0.00    +0.125 A 
ATOM     12  C   UNL     1       0.243  -2.669  -0.386  0.00  0.00    +0.047 A 
ATOM     13  C   UNL     1       0.351  -4.035  -0.553  0.00  0.00    +0.019 A 
ATOM     14  C   UNL     1       0.992  -4.549  -1.667  0.00  0.00    +0.018 A 
ATOM     15  C   UNL     1       1.526  -3.694  -2.615  0.00  0.00    +0.023 A 
ATOM     16  C   UNL     1       1.414  -2.327  -2.455  0.00  0.00    +0.008 A 
ATOM     17 BR   UNL     1       1.140  -6.420  -1.893  0.00  0.00    -0.050 Br
BRANCH  11  18
ATOM     18  O   UNL     1       0.671  -0.465  -1.174  0.00  0.00    -0.492 OA
BRANCH  18  20
ATOM     19  C   UNL     1      -0.019   1.526   0.010  0.00  0.00    +0.048 C 
ATOM     20  C   UNL     1       0.002  -0.004   0.002  0.00  0.00    +0.225 C 
ENDBRANCH  18  20
ENDBRANCH  11  18
ENDBRANCH   1  16
BRANCH   3  21
ATOM     21  N   UNL     1       1.410  -2.470  -7.025  0.00  0.00    -0.329 N 
ATOM     22  H   UNL     1       0.473  -2.232  -7.104  0.00  0.00    +0.145 HD
ATOM     23  H   UNL     1       1.873  -2.873  -7.776  0.00  0.00    +0.145 HD
ENDBRANCH   3  21
BRANCH   2  24
ATOM     24  C   UNL     1      -0.002  -1.335  -5.073  0.00  0.00    +0.101 C 
ATOM     25  N   UNL     1      -1.091  -1.064  -5.251  0.00  0.00    -0.191 NA
ENDBRANCH   2  24
TORSDOF 5
