REMARK  Name = ZINC28814869
REMARK  5 active torsions:
REMARK  status: ('A' for Active; 'I' for Inactive)
REMARK    1  A    between atoms: C_6  and  C_7
REMARK    2  A    between atoms: C_7  and  C_9
REMARK    3  A    between atoms: C_9  and  S_10
REMARK    4  A    between atoms: S_10  and  C_11
REMARK    5  A    between atoms: N_24  and  N_25
REMARK                            x       y       z     vdW  Elec       q    Type
REMARK                         _______ _______ _______ _____ _____    ______ ____
ROOT
ATOM      1  C   UNL     1       0.002  -0.004   0.002  0.00  0.00    +0.190 A 
ATOM      2  N   UNL     1       1.157  -0.638  -0.012  0.00  0.00    -0.215 NA
ATOM      3  C   UNL     1       1.204  -1.965  -0.020  0.00  0.00    +0.117 A 
ATOM      4  C   UNL     1       0.042  -2.754  -0.013  0.00  0.00    +0.077 A 
ATOM      5  C   UNL     1       0.252  -4.203  -0.022  0.00  0.00    -0.023 A 
ATOM      6  C   UNL     1       1.529  -4.636  -0.036  0.00  0.00    -0.004 A 
ATOM      7  S   UNL     1       2.515  -3.162  -0.038  0.00  0.00    -0.073 S 
ATOM      8  C   UNL     1       2.006  -6.056  -0.048  0.00  0.00    +0.043 C 
ATOM      9  C   UNL     1       0.829  -6.966   0.332  0.00  0.00    +0.005 C 
ATOM     10  C   UNL     1      -0.395  -6.556  -0.493  0.00  0.00    +0.005 C 
ATOM     11  C   UNL     1      -0.907  -5.195  -0.018  0.00  0.00    +0.037 C 
ATOM     12  C   UNL     1      -1.198  -2.039   0.003  0.00  0.00    +0.280 A 
ATOM     13  O   UNL     1      -2.258  -2.640   0.010  0.00  0.00    -0.265 OA
ATOM     14  N   UNL     1      -1.176  -0.693   0.015  0.00  0.00    -0.209 N 
ENDROOT
BRANCH  14  15
ATOM     15  N   UNL     1      -2.355  -0.004   0.035  0.00  0.00    -0.293 N 
ATOM     16  H   UNL     1      -3.311  -0.549   0.046  0.00  0.00    +0.163 HD
ATOM     17  H   UNL     1      -2.349   1.096   0.041  0.00  0.00    +0.163 HD
ENDBRANCH  14  15
BRANCH   1  18
ATOM     18  S   UNL     1      -0.022   1.758   0.012  0.00  0.00    -0.078 S 
BRANCH  18  19
ATOM     19  C   UNL     1       1.756   2.096  -0.004  0.00  0.00    +0.157 C 
BRANCH  19  20
ATOM     20  C   UNL     1       1.984   3.586   0.002  0.00  0.00    +0.173 C 
ATOM     21  O   UNL     1       1.038   4.344   0.015  0.00  0.00    -0.291 OA
BRANCH  20  27
ATOM     22  C   UNL     1       4.449   3.249  -0.017  0.00  0.00    +0.013 A 
ATOM     23  C   UNL     1       5.730   3.757  -0.032  0.00  0.00    +0.020 A 
ATOM     24  C   UNL     1       5.935   5.127  -0.027  0.00  0.00    +0.041 A 
ATOM     25  C   UNL     1       4.856   5.996  -0.012  0.00  0.00    +0.020 A 
ATOM     26  C   UNL     1       3.570   5.503  -0.003  0.00  0.00    +0.013 A 
ATOM     27  C   UNL     1       3.354   4.120  -0.008  0.00  0.00    +0.018 A 
ATOM     28 CL   UNL     1       7.553   5.758  -0.039  0.00  0.00    -0.084 Cl
ENDBRANCH  20  27
ENDBRANCH  19  20
ENDBRANCH  18  19
ENDBRANCH   1  18
TORSDOF 5
