REMARK  Name = ZINC00421469
REMARK  5 active torsions:
REMARK  status: ('A' for Active; 'I' for Inactive)
REMARK    1  A    between atoms: C_1  and  C_2
REMARK    2  A    between atoms: C_9  and  C_14
REMARK    3  A    between atoms: C_17  and  C_28
REMARK    4  A    between atoms: C_23  and  N_27
REMARK    5  A    between atoms: C_24  and  C_25
REMARK                            x       y       z     vdW  Elec       q    Type
REMARK                         _______ _______ _______ _____ _____    ______ ____
ROOT
ATOM      1  C   UNL     1      -1.294  -0.772   0.011  0.00  0.00    +0.107 C 
ATOM      2  C   UNL     1      -1.344  -1.671   1.219  0.00  0.00    +0.049 A 
ATOM      3  C   UNL     1      -1.521  -1.340   2.556  0.00  0.00    +0.068 A 
ATOM      4  N   UNL     1      -1.494  -2.448   3.258  0.00  0.00    -0.176 NA
ATOM      5  N   UNL     1      -1.299  -3.525   2.379  0.00  0.00    -0.246 N 
ATOM      6  H   UNL     1      -1.237  -4.489   2.635  0.00  0.00    +0.192 HD
ATOM      7  C   UNL     1      -1.210  -3.030   1.134  0.00  0.00    +0.222 A 
ATOM      8  O   UNL     1      -1.024  -3.675  -0.044  0.00  0.00    -0.423 OA
ATOM      9  C   UNL     1      -1.245  -2.980  -1.178  0.00  0.00    +0.200 C 
ATOM     10  C   UNL     1      -1.382  -1.636  -1.223  0.00  0.00    +0.098 C 
ATOM     11  C   UNL     1      -1.708   0.051   3.104  0.00  0.00    +0.068 C 
ENDROOT
BRANCH   1  20
ATOM     12  C   UNL     1       2.561   5.612   0.008  0.00  0.00    +0.044 C 
ATOM     13  C   UNL     1       2.512   4.106   0.000  0.00  0.00    -0.050 A 
ATOM     14  C   UNL     1       3.696   3.380  -0.015  0.00  0.00    +0.005 A 
ATOM     15  C   UNL     1       3.676   2.002  -0.022  0.00  0.00    +0.026 A 
ATOM     16  C   UNL     1       2.458   1.329  -0.014  0.00  0.00    +0.049 A 
ATOM     17  C   UNL     1       1.260   2.068   0.001  0.00  0.00    -0.001 A 
ATOM     18  C   UNL     1       1.305   3.467   0.008  0.00  0.00    +0.013 A 
ATOM     19  C   UNL     1      -0.016   1.352   0.009  0.00  0.00    +0.020 A 
ATOM     20  C   UNL     1       0.002  -0.004   0.002  0.00  0.00    +0.030 A 
ATOM     21  C   UNL     1       1.231  -0.698  -0.013  0.00  0.00    +0.253 A 
ATOM     22  O   UNL     1       1.225  -1.917  -0.020  0.00  0.00    -0.268 OA
ATOM     23  N   UNL     1       2.408  -0.049  -0.022  0.00  0.00    -0.322 N 
ATOM     24  H   UNL     1       3.260  -0.572  -0.033  0.00  0.00    +0.169 HD
ENDBRANCH   1  20
BRANCH   9  25
ATOM     25  N   UNL     1      -1.336  -3.678  -2.357  0.00  0.00    -0.328 N 
ATOM     26  H   UNL     1      -1.495  -3.206  -3.189  0.00  0.00    +0.145 HD
ATOM     27  H   UNL     1      -1.242  -4.644  -2.357  0.00  0.00    +0.145 HD
ENDBRANCH   9  25
BRANCH  10  28
ATOM     28  C   UNL     1      -1.619  -1.009  -2.488  0.00  0.00    +0.101 C 
ATOM     29  N   UNL     1      -1.808  -0.511  -3.492  0.00  0.00    -0.191 NA
ENDBRANCH  10  28
TORSDOF 3
