REMARK  Name = ZINC02114336
REMARK  2 active torsions:
REMARK  status: ('A' for Active; 'I' for Inactive)
REMARK    1  A    between atoms: C_4  and  N_11
REMARK    2  A    between atoms: C_5  and  C_7
REMARK                            x       y       z     vdW  Elec       q    Type
REMARK                         _______ _______ _______ _____ _____    ______ ____
ROOT
ATOM      1  N   UNL     1       3.596  -0.630  -0.079  0.00  0.00    -0.225 NA
ATOM      2  C   UNL     1       4.720   0.041  -0.164  0.00  0.00    +0.166 C 
ATOM      3  N   UNL     1       6.006  -0.449  -0.234  0.00  0.00    -0.260 N 
ATOM      4  C   UNL     1       7.039   0.372  -0.317  0.00  0.00    +0.257 C 
ATOM      5  O   UNL     1       8.180  -0.042  -0.380  0.00  0.00    -0.269 OA
ATOM      6  C   UNL     1       6.736   1.827  -0.330  0.00  0.00    +0.090 C 
ATOM      7  C   UNL     1       7.600   2.904  -0.408  0.00  0.00    +0.065 C 
ATOM      8  C   UNL     1       9.055   2.871  -0.664  0.00  0.00    +0.012 A 
ATOM      9  C   UNL     1       9.961   1.838  -0.891  0.00  0.00    +0.049 A 
ATOM     10  C   UNL     1      11.294   2.131  -1.104  0.00  0.00    +0.124 A 
ATOM     11  C   UNL     1      11.727   3.449  -1.092  0.00  0.00    +0.040 A 
ATOM     12  C   UNL     1      10.835   4.479  -0.868  0.00  0.00    +0.027 A 
ATOM     13  C   UNL     1       9.490   4.204  -0.651  0.00  0.00    +0.042 A 
ATOM     14  N   UNL     1       8.404   5.038  -0.406  0.00  0.00    -0.281 N 
ATOM     15  C   UNL     1       7.269   4.334  -0.261  0.00  0.00    +0.250 C 
ATOM     16  O   UNL     1       6.163   4.794  -0.043  0.00  0.00    -0.270 OA
ATOM     17  F   UNL     1      12.178   1.133  -1.324  0.00  0.00    -0.205 F 
ATOM     18  S   UNL     1       4.952   1.810  -0.224  0.00  0.00    -0.048 S 
ATOM     19  H   UNL     1       6.155  -1.408  -0.223  0.00  0.00    +0.157 HD
ATOM     20  H   UNL     1       8.458   6.005  -0.351  0.00  0.00    +0.155 HD
ENDROOT
BRANCH   1  24
ATOM     21  C   UNL     1      -0.022   1.375  -0.134  0.00  0.00    +0.001 A 
ATOM     22  C   UNL     1       0.935   1.655  -1.094  0.00  0.00    +0.002 A 
ATOM     23  C   UNL     1       2.143   0.991  -1.081  0.00  0.00    +0.028 A 
ATOM     24  C   UNL     1       2.400   0.033  -0.097  0.00  0.00    +0.078 A 
ATOM     25  C   UNL     1       1.429  -0.244   0.868  0.00  0.00    +0.080 A 
ATOM     26  C   UNL     1       0.225   0.428   0.844  0.00  0.00    +0.014 A 
BRANCH  25  27
ATOM     27  C   UNL     1       1.696  -1.276   1.934  0.00  0.00    +0.419 C 
ATOM     28  F   UNL     1       0.584  -1.375   2.777  0.00  0.00    -0.166 F 
ATOM     29  F   UNL     1       1.937  -2.516   1.332  0.00  0.00    -0.166 F 
ATOM     30  F   UNL     1       2.816  -0.895   2.681  0.00  0.00    -0.166 F 
ENDBRANCH  25  27
ENDBRANCH   1  24
TORSDOF 2
