REMARK  Name = ZINC46076310
REMARK  4 active torsions:
REMARK  status: ('A' for Active; 'I' for Inactive)
REMARK    1  A    between atoms: C_4  and  N_11
REMARK    2  A    between atoms: C_5  and  C_7
REMARK    3  A    between atoms: C_7  and  C_8
REMARK    4  A    between atoms: C_12  and  C_14
REMARK                            x       y       z     vdW  Elec       q    Type
REMARK                         _______ _______ _______ _____ _____    ______ ____
ROOT
ATOM      1  N   UNL     1       3.621  -0.650  -0.030  0.00  0.00    -0.281 N 
ATOM      2  C   UNL     1       4.774   0.038  -0.147  0.00  0.00    +0.249 C 
ATOM      3  O   UNL     1       4.760   1.253  -0.148  0.00  0.00    -0.270 OA
ATOM      4  H   UNL     1       3.638  -1.618   0.033  0.00  0.00    +0.155 HD
ENDROOT
BRANCH   2   5
ATOM      5  C   UNL     1       6.061  -0.688  -0.276  0.00  0.00    +0.051 A 
ATOM      6  C   UNL     1       6.086  -2.049  -0.387  0.00  0.00    +0.083 A 
ATOM      7  C   UNL     1       7.370  -2.736  -0.513  0.00  0.00    +0.250 A 
ATOM      8  N   UNL     1       8.525  -2.048  -0.522  0.00  0.00    -0.322 N 
ATOM      9  C   UNL     1       8.542  -0.674  -0.411  0.00  0.00    +0.050 A 
ATOM     10  C   UNL     1       7.338   0.042  -0.294  0.00  0.00    +0.011 A 
ATOM     11  C   UNL     1       7.364   1.436  -0.188  0.00  0.00    +0.011 A 
ATOM     12  C   UNL     1       8.560   2.096  -0.205  0.00  0.00    +0.001 A 
ATOM     13  C   UNL     1       9.751   1.394  -0.328  0.00  0.00    +0.002 A 
ATOM     14  C   UNL     1       9.750   0.019  -0.421  0.00  0.00    +0.026 A 
ATOM     15  O   UNL     1       7.393  -3.950  -0.612  0.00  0.00    -0.268 OA
ATOM     16  H   UNL     1       9.363  -2.528  -0.607  0.00  0.00    +0.169 HD
ENDBRANCH   2   5
BRANCH   1  20
ATOM     17  C   UNL     1      -0.014   1.380   0.062  0.00  0.00    +0.000 A 
ATOM     18  C   UNL     1       1.132   1.996   0.532  0.00  0.00    +0.002 A 
ATOM     19  C   UNL     1       2.339   1.325   0.503  0.00  0.00    +0.023 A 
ATOM     20  C   UNL     1       2.401   0.031   0.001  0.00  0.00    +0.037 A 
ATOM     21  C   UNL     1       1.248  -0.584  -0.469  0.00  0.00    -0.017 A 
ATOM     22  C   UNL     1       0.044   0.092  -0.438  0.00  0.00    +0.006 A 
BRANCH  21  23
ATOM     23  C   UNL     1       1.311  -1.987  -1.015  0.00  0.00    +0.132 C 
BRANCH  23  24
ATOM     24  C   UNL     1       1.200  -2.973   0.120  0.00  0.00    +0.215 C 
ATOM     25  O   UNL     1       1.081  -2.575   1.259  0.00  0.00    -0.276 OA
ATOM     26  N   UNL     1       1.232  -4.296  -0.132  0.00  0.00    -0.329 N 
ATOM     27  H   UNL     1       1.327  -4.615  -1.043  0.00  0.00    +0.145 HD
ATOM     28  H   UNL     1       1.160  -4.931   0.599  0.00  0.00    +0.145 HD
ENDBRANCH  23  24
ENDBRANCH  21  23
ENDBRANCH   1  20
TORSDOF 4
