REMARK  Name = ZINC40330534
REMARK  6 active torsions:
REMARK  status: ('A' for Active; 'I' for Inactive)
REMARK    1  A    between atoms: C_1  and  C_2
REMARK    2  A    between atoms: C_6  and  C_21
REMARK    3  A    between atoms: C_10  and  C_12
REMARK    4  A    between atoms: C_14  and  N_20
REMARK    5  A    between atoms: C_17  and  O_18
REMARK    6  A    between atoms: O_18  and  C_19
REMARK                            x       y       z     vdW  Elec       q    Type
REMARK                         _______ _______ _______ _____ _____    ______ ____
ROOT
ATOM      1  C   UNL     1      -0.293   1.503   0.204  0.00  0.00    +0.028 C 
ATOM      2  C   UNL     1      -0.683   0.088   0.639  0.00  0.00    +0.073 C 
ATOM      3  C   UNL     1      -0.730  -0.830  -0.587  0.00  0.00    +0.023 C 
ATOM      4  C   UNL     1      -0.983  -2.269  -0.131  0.00  0.00    +0.016 C 
ATOM      5  C   UNL     1       0.164  -2.728   0.773  0.00  0.00    +0.092 C 
ATOM      6  C   UNL     1       0.222  -1.831   2.014  0.00  0.00    +0.121 C 
ATOM      7  N   UNL     1       0.317  -0.429   1.583  0.00  0.00    -0.294 N 
ATOM      8  C   UNL     1       1.304   0.365   2.042  0.00  0.00    +0.250 C 
ATOM      9  O   UNL     1       1.446   1.484   1.587  0.00  0.00    -0.270 OA
ENDROOT
BRANCH   8  10
ATOM     10  C   UNL     1       2.213  -0.122   3.097  0.00  0.00    +0.080 A 
ATOM     11  C   UNL     1       2.660  -1.446   3.082  0.00  0.00    +0.039 A 
ATOM     12  C   UNL     1       3.513  -1.896   4.075  0.00  0.00    +0.025 A 
ATOM     13  C   UNL     1       3.924  -1.034   5.086  0.00  0.00    +0.026 A 
ATOM     14  C   UNL     1       3.486   0.275   5.107  0.00  0.00    +0.048 A 
ATOM     15  C   UNL     1       2.636   0.741   4.116  0.00  0.00    +0.132 A 
BRANCH  12  16
ATOM     16  N   UNL     1       3.962  -3.221   4.061  0.00  0.00    -0.358 N 
ATOM     17  H   UNL     1       3.676  -3.824   3.357  0.00  0.00    +0.142 HD
ATOM     18  H   UNL     1       4.560  -3.538   4.757  0.00  0.00    +0.142 HD
ENDBRANCH  12  16
BRANCH  15  19
ATOM     19  O   UNL     1       2.210   2.030   4.136  0.00  0.00    -0.494 OA
ATOM     20  C   UNL     1       2.682   2.853   5.204  0.00  0.00    +0.277 C 
ENDBRANCH  15  19
ENDBRANCH   8  10
BRANCH   5  21
ATOM     21  C   UNL     1       1.466  -2.632   0.021  0.00  0.00    +0.215 C 
ATOM     22  O   UNL     1       1.477  -2.236  -1.125  0.00  0.00    -0.276 OA
ATOM     23  N   UNL     1       2.619  -2.987   0.622  0.00  0.00    -0.329 N 
ATOM     24  H   UNL     1       2.611  -3.304   1.539  0.00  0.00    +0.145 HD
ATOM     25  H   UNL     1       3.458  -2.926   0.138  0.00  0.00    +0.145 HD
ENDBRANCH   5  21
TORSDOF 4
