REMARK  Name = ZINC58950775
REMARK  7 active torsions:
REMARK  status: ('A' for Active; 'I' for Inactive)
REMARK    1  A    between atoms: C_1  and  C_2
REMARK    2  A    between atoms: C_2  and  O_3
REMARK    3  A    between atoms: O_3  and  C_4
REMARK    4  A    between atoms: C_4  and  C_6
REMARK    5  A    between atoms: C_7  and  N_26
REMARK    6  A    between atoms: C_11  and  C_15
REMARK    7  A    between atoms: C_16  and  C_18
REMARK                            x       y       z     vdW  Elec       q    Type
REMARK                         _______ _______ _______ _____ _____    ______ ____
ROOT
ATOM      1  C   UNL     1      -2.788  -2.391  -0.016  0.00  0.00    +0.105 C 
ATOM      2  C   UNL     1      -2.919  -3.738  -0.088  0.00  0.00    +0.197 C 
ATOM      3  O   UNL     1      -4.105  -4.378  -0.053  0.00  0.00    -0.424 OA
ATOM      4  C   UNL     1      -5.191  -3.666   0.337  0.00  0.00    +0.222 A 
ATOM      5  C   UNL     1      -5.187  -2.302   0.431  0.00  0.00    +0.049 A 
ATOM      6  C   UNL     1      -6.445  -1.896   0.856  0.00  0.00    +0.068 A 
ATOM      7  N   UNL     1      -7.187  -2.967   1.013  0.00  0.00    -0.176 NA
ATOM      8  N   UNL     1      -6.414  -4.093   0.690  0.00  0.00    -0.246 N 
ATOM      9  H   UNL     1      -6.711  -5.016   0.717  0.00  0.00    +0.192 HD
ATOM     10  C   UNL     1      -6.881  -0.474   1.094  0.00  0.00    +0.068 C 
ATOM     11  C   UNL     1      -3.974  -1.469   0.112  0.00  0.00    +0.099 C 
ENDROOT
BRANCH  11  12
ATOM     12  C   UNL     1      -4.192  -0.737  -1.187  0.00  0.00    -0.015 A 
ATOM     13  C   UNL     1      -4.455  -1.446  -2.344  0.00  0.00    +0.006 A 
ATOM     14  C   UNL     1      -4.655  -0.776  -3.536  0.00  0.00    +0.002 A 
ATOM     15  C   UNL     1      -4.592   0.605  -3.572  0.00  0.00    +0.021 A 
ATOM     16  C   UNL     1      -4.329   1.316  -2.416  0.00  0.00    +0.060 A 
ATOM     17  C   UNL     1      -4.135   0.644  -1.220  0.00  0.00    +0.063 A 
ATOM     18 CL   UNL     1      -3.813   1.536   0.234  0.00  0.00    -0.082 Cl
ATOM     19 CL   UNL     1      -4.250   3.050  -2.461  0.00  0.00    -0.082 Cl
ENDBRANCH  11  12
BRANCH   2  20
ATOM     20  N   UNL     1      -1.782  -4.492  -0.203  0.00  0.00    -0.329 N 
ATOM     21  H   UNL     1      -0.912  -4.070  -0.136  0.00  0.00    +0.145 HD
ATOM     22  H   UNL     1      -1.848  -5.448  -0.352  0.00  0.00    +0.145 HD
ENDBRANCH   2  20
BRANCH   1  23
ATOM     23  C   UNL     1      -1.501  -1.835  -0.057  0.00  0.00    +0.341 C 
ATOM     24  O   UNL     1      -0.967  -1.460   0.972  0.00  0.00    -0.245 OA
BRANCH  23  25
ATOM     25  O   UNL     1      -0.853  -1.716  -1.236  0.00  0.00    -0.462 OA
BRANCH  25  27
ATOM     26  C   UNL     1       1.024  -1.089  -2.622  0.00  0.00    +0.048 C 
ATOM     27  C   UNL     1       0.454  -1.141  -1.204  0.00  0.00    +0.229 C 
ENDBRANCH  25  27
ENDBRANCH  23  25
ENDBRANCH   1  23
TORSDOF 5
