REMARK  Name = ZINC04222247
REMARK  3 active torsions:
REMARK  status: ('A' for Active; 'I' for Inactive)
REMARK    1  A    between atoms: C_6  and  C_7
REMARK    2  A    between atoms: C_21  and  N_29
REMARK    3  A    between atoms: C_30  and  C_32
REMARK                            x       y       z     vdW  Elec       q    Type
REMARK                         _______ _______ _______ _____ _____    ______ ____
ROOT
ATOM      1  C   UNL     1       5.184   5.472   0.581  0.00  0.00    +0.010 A 
ATOM      2  C   UNL     1       4.803   4.808  -0.560  0.00  0.00    +0.024 A 
ATOM      3  C   UNL     1       3.627   4.050  -0.594  0.00  0.00    +0.046 A 
ATOM      4  C   UNL     1       2.821   3.987   0.541  0.00  0.00    +0.059 A 
ATOM      5  C   UNL     1       3.221   4.657   1.708  0.00  0.00    +0.023 A 
ATOM      6  C   UNL     1       4.394   5.394   1.730  0.00  0.00    -0.017 A 
ATOM      7  C   UNL     1       1.545   3.261   0.594  0.00  0.00    +0.249 C 
ATOM      8  O   UNL     1       0.624   3.765   1.206  0.00  0.00    -0.270 OA
ATOM      9  N   UNL     1       1.339   2.066   0.000  0.00  0.00    -0.286 N 
ATOM     10  C   UNL     1      -0.019   1.522   0.010  0.00  0.00    +0.111 C 
ATOM     11  C   UNL     1       0.002  -0.004   0.002  0.00  0.00    +0.041 C 
ATOM     12  C   UNL     1       0.875  -0.469  -1.170  0.00  0.00    +0.077 C 
ATOM     13  C   UNL     1       2.320  -0.074  -0.877  0.00  0.00    +0.054 C 
ATOM     14  C   UNL     1       2.463   1.407  -0.633  0.00  0.00    +0.164 C 
ATOM     15  C   UNL     1       2.869   2.155  -1.867  0.00  0.00    +0.238 C 
ATOM     16  O   UNL     1       2.761   1.626  -2.953  0.00  0.00    -0.273 OA
ATOM     17  N   UNL     1       3.349   3.396  -1.784  0.00  0.00    -0.283 N 
ATOM     18  H   UNL     1       3.515   3.874  -2.611  0.00  0.00    +0.155 HD
ENDROOT
BRANCH   6  19
ATOM     19  C   UNL     1       4.809   6.098   2.968  0.00  0.00    -0.014 A 
ATOM     20  C   UNL     1       4.020   6.020   4.114  0.00  0.00    +0.012 A 
ATOM     21  C   UNL     1       4.407   6.674   5.265  0.00  0.00    +0.050 A 
ATOM     22  C   UNL     1       5.581   7.413   5.286  0.00  0.00    +0.166 A 
ATOM     23  C   UNL     1       6.374   7.495   4.143  0.00  0.00    +0.167 A 
ATOM     24  C   UNL     1       5.992   6.835   2.989  0.00  0.00    +0.058 A 
ATOM     25  O   UNL     1       7.460   8.273   4.421  0.00  0.00    -0.453 OA
ATOM     26  C   UNL     1       7.535   8.329   5.858  0.00  0.00    +0.466 C 
ATOM     27  O   UNL     1       6.172   8.139   6.279  0.00  0.00    -0.453 OA
ENDBRANCH   6  19
BRANCH  12  28
ATOM     28  N   UNL     1       0.778  -1.924  -1.311  0.00  0.00    -0.314 N 
ATOM     29  C   UNL     1      -0.231  -2.467  -2.020  0.00  0.00    +0.200 C 
ATOM     30  O   UNL     1      -1.060  -1.751  -2.540  0.00  0.00    -0.278 OA
ATOM     31  H   UNL     1       1.441  -2.496  -0.895  0.00  0.00    +0.149 HD
BRANCH  29  32
ATOM     32  C   UNL     1      -0.331  -3.963  -2.165  0.00  0.00    +0.027 C 
ATOM     33  C   UNL     1       0.670  -4.441  -3.249  0.00  0.00    +0.060 C 
ATOM     34  S   UNL     1      -0.224  -5.893  -3.947  0.00  0.00    -0.181 S 
ATOM     35  C   UNL     1      -1.768  -5.764  -2.947  0.00  0.00    -0.011 C 
ATOM     36  N   UNL     1      -1.712  -4.324  -2.546  0.00  0.00    +0.393 N 
ATOM     37  H   UNL     1      -2.011  -3.739  -3.334  0.00  0.00    -0.084 HD
ATOM     38  H   UNL     1      -2.337  -4.168  -1.747  0.00  0.00    -0.084 HD
ENDBRANCH  29  32
ENDBRANCH  12  28
TORSDOF 3
