REMARK  Name = ZINC09316805
REMARK  6 active torsions:
REMARK  status: ('A' for Active; 'I' for Inactive)
REMARK    1  A    between atoms: C_1  and  O_2
REMARK    2  A    between atoms: O_2  and  C_3
REMARK    3  A    between atoms: C_6  and  C_9
REMARK    4  A    between atoms: N_14  and  C_15
REMARK    5  A    between atoms: C_15  and  N_17
REMARK    6  A    between atoms: C_18  and  C_20
REMARK                            x       y       z     vdW  Elec       q    Type
REMARK                         _______ _______ _______ _____ _____    ______ ____
ROOT
ATOM      1  C   UNL     1      -4.959  -2.619   0.054  0.00  0.00    +0.055 A 
ATOM      2  C   UNL     1      -6.121  -1.930   0.059  0.00  0.00    +0.074 A 
ATOM      3  S   UNL     1      -7.330  -3.240   0.060  0.00  0.00    -0.060 S 
ATOM      4  C   UNL     1      -6.286  -4.558   0.054  0.00  0.00    +0.162 A 
ATOM      5  N   UNL     1      -5.051  -3.984   0.046  0.00  0.00    -0.335 N 
ATOM      6  N   UNL     1      -6.593  -5.852   0.052  0.00  0.00    -0.169 NA
ATOM      7  H   UNL     1      -4.251  -4.532   0.039  0.00  0.00    +0.168 HD
ENDROOT
BRANCH   1  11
ATOM      8  C   UNL     1      -1.198  -0.640   0.047  0.00  0.00    +0.120 A 
ATOM      9  C   UNL     1      -2.371   0.103   0.057  0.00  0.00    +0.046 A 
ATOM     10  C   UNL     1      -3.593  -0.536   0.059  0.00  0.00    +0.013 A 
ATOM     11  C   UNL     1      -3.650  -1.930   0.051  0.00  0.00    -0.001 A 
ATOM     12  C   UNL     1      -2.469  -2.673   0.041  0.00  0.00    +0.013 A 
ATOM     13  C   UNL     1      -1.250  -2.027   0.033  0.00  0.00    +0.046 A 
BRANCH   8  15
ATOM     14  C   UNL     1      -0.014   1.422   0.059  0.00  0.00    +0.277 C 
ATOM     15  O   UNL     1       0.005  -0.007   0.044  0.00  0.00    -0.495 OA
ENDBRANCH   8  15
ENDBRANCH   1  11
BRANCH   6  16
ATOM     16  C   UNL     1      -7.867  -6.236   0.161  0.00  0.00    +0.163 C 
ATOM     17  S   UNL     1      -9.117  -5.066   0.164  0.00  0.00    -0.016 S 
BRANCH  16  18
ATOM     18  N   UNL     1      -8.169  -7.545   0.267  0.00  0.00    -0.262 N 
ATOM     19  C   UNL     1      -9.455  -7.933   0.376  0.00  0.00    +0.256 C 
ATOM     20  O   UNL     1     -10.344  -7.101   0.379  0.00  0.00    -0.269 OA
ATOM     21  H   UNL     1      -7.461  -8.208   0.265  0.00  0.00    +0.157 HD
BRANCH  19  22
ATOM     22  C   UNL     1      -9.784  -9.356   0.492  0.00  0.00    +0.074 A 
ATOM     23  C   UNL     1     -11.028  -9.960   0.607  0.00  0.00    +0.021 A 
ATOM     24  C   UNL     1     -11.019 -11.331   0.699  0.00  0.00    +0.008 A 
ATOM     25  C   UNL     1      -9.832 -11.986   0.673  0.00  0.00    +0.046 A 
ATOM     26  S   UNL     1      -8.690 -10.764   0.514  0.00  0.00    -0.092 S 
ENDBRANCH  19  22
ENDBRANCH  16  18
ENDBRANCH   6  16
TORSDOF 5
