REMARK  Name = ZINC12575080
REMARK  9 active torsions:
REMARK  status: ('A' for Active; 'I' for Inactive)
REMARK    1  A    between atoms: C_2  and  C_10
REMARK    2  A    between atoms: C_3  and  O_9
REMARK    3  A    between atoms: N_11  and  N_12
REMARK    4  A    between atoms: C_13  and  C_15
REMARK    5  A    between atoms: C_15  and  C_16
REMARK    6  A    between atoms: C_16  and  C_17
REMARK    7  A    between atoms: N_19  and  N_20
REMARK    8  A    between atoms: C_21  and  C_22
REMARK    9  A    between atoms: C_23  and  O_30
REMARK                            x       y       z     vdW  Elec       q    Type
REMARK                         _______ _______ _______ _____ _____    ______ ____
ROOT
ATOM      1  C   UNL     1       3.425   7.813   0.010  0.00  0.00    +0.107 C 
ENDROOT
BRANCH   1   3
ATOM      2  N   UNL     1       2.277   5.622   0.010  0.00  0.00    -0.207 N 
ATOM      3  C   UNL     1       3.439   6.306   0.002  0.00  0.00    +0.233 C 
ATOM      4  O   UNL     1       4.495   5.709  -0.011  0.00  0.00    -0.274 OA
ATOM      5  H   UNL     1       1.433   6.100   0.020  0.00  0.00    +0.177 HD
BRANCH   2   7
ATOM      6  C   UNL     1       1.172   3.562   0.009  0.00  0.00    +0.142 C 
ATOM      7  N   UNL     1       2.290   4.221   0.002  0.00  0.00    -0.188 NA
BRANCH   6   9
ATOM      8  C   UNL     1      -0.017   1.376   0.010  0.00  0.00    +0.033 A 
ATOM      9  C   UNL     1       1.185   2.089   0.002  0.00  0.00    +0.039 A 
ATOM     10  C   UNL     1       2.402   1.395  -0.013  0.00  0.00    +0.144 A 
ATOM     11  C   UNL     1       2.404   0.009  -0.021  0.00  0.00    +0.084 A 
ATOM     12  C   UNL     1       1.208  -0.686  -0.013  0.00  0.00    +0.043 A 
ATOM     13  C   UNL     1       0.002  -0.004   0.002  0.00  0.00    +0.043 A 
ATOM     14 CL   UNL     1      -1.491  -0.889   0.011  0.00  0.00    -0.083 Cl
ATOM     15 CL   UNL     1       3.909  -0.856  -0.040  0.00  0.00    -0.080 Cl
BRANCH  10  16
ATOM     16  O   UNL     1       3.576   2.079  -0.021  0.00  0.00    -0.505 OA
ATOM     17  H   UNL     1       3.925   2.272   0.860  0.00  0.00    +0.292 HD
ENDBRANCH  10  16
ENDBRANCH   6   9
ENDBRANCH   2   7
ENDBRANCH   1   3
BRANCH   1  18
ATOM     18  C   UNL     1       4.863   8.336  -0.001  0.00  0.00    +0.107 C 
BRANCH  18  19
ATOM     19  C   UNL     1       4.850   9.843   0.007  0.00  0.00    +0.233 C 
ATOM     20  O   UNL     1       3.794  10.440   0.020  0.00  0.00    -0.274 OA
ATOM     21  N   UNL     1       6.011  10.527  -0.001  0.00  0.00    -0.207 N 
ATOM     22  H   UNL     1       6.855  10.050  -0.011  0.00  0.00    +0.177 HD
BRANCH  21  23
ATOM     23  N   UNL     1       5.999  11.928   0.006  0.00  0.00    -0.188 NA
ATOM     24  C   UNL     1       7.117  12.587  -0.001  0.00  0.00    +0.142 C 
BRANCH  24  25
ATOM     25  C   UNL     1       7.104  14.061   0.007  0.00  0.00    +0.039 A 
ATOM     26  C   UNL     1       5.886  14.754   0.028  0.00  0.00    +0.144 A 
ATOM     27  C   UNL     1       5.885  16.140   0.035  0.00  0.00    +0.084 A 
ATOM     28  C   UNL     1       7.080  16.835   0.021  0.00  0.00    +0.043 A 
ATOM     29  C   UNL     1       8.286  16.154   0.001  0.00  0.00    +0.043 A 
ATOM     30  C   UNL     1       8.305  14.774  -0.001  0.00  0.00    +0.033 A 
ATOM     31 CL   UNL     1       9.780  17.039  -0.016  0.00  0.00    -0.083 Cl
ATOM     32 CL   UNL     1       4.380  17.005   0.060  0.00  0.00    -0.080 Cl
BRANCH  26  33
ATOM     33  O   UNL     1       4.712  14.071   0.040  0.00  0.00    -0.505 OA
ATOM     34  H   UNL     1       4.385  13.868   0.927  0.00  0.00    +0.292 HD
ENDBRANCH  26  33
ENDBRANCH  24  25
ENDBRANCH  21  23
ENDBRANCH  18  19
ENDBRANCH   1  18
TORSDOF 9
