REMARK  Name = ZINC57380949
REMARK  6 active torsions:
REMARK  status: ('A' for Active; 'I' for Inactive)
REMARK    1  A    between atoms: C_1  and  C_2
REMARK    2  A    between atoms: C_5  and  N_8
REMARK    3  A    between atoms: N_8  and  C_9
REMARK    4  A    between atoms: C_9  and  C_10
REMARK    5  A    between atoms: N_12  and  N_13
REMARK    6  A    between atoms: C_14  and  C_16
REMARK                            x       y       z     vdW  Elec       q    Type
REMARK                         _______ _______ _______ _____ _____    ______ ____
ROOT
ATOM      1  N   UNL     1       0.126  -8.644   1.716  0.00  0.00    -0.230 N 
ATOM      2  C   UNL     1       0.143  -9.525   2.736  0.00  0.00    +0.267 C 
ATOM      3  O   UNL     1       0.143  -9.126   3.885  0.00  0.00    -0.268 OA
ATOM      4  H   UNL     1       0.126  -8.962   0.800  0.00  0.00    +0.173 HD
ENDROOT
BRANCH   2   5
ATOM      5  C   UNL     1       0.160 -10.965   2.460  0.00  0.00    +0.076 A 
ATOM      6  C   UNL     1       0.173 -12.021   3.344  0.00  0.00    +0.024 A 
ATOM      7  C   UNL     1       0.216 -13.307   2.796  0.00  0.00    -0.036 A 
ATOM      8  C   UNL     1       0.282 -13.396   1.455  0.00  0.00    -0.006 A 
ATOM      9  S   UNL     1       0.163 -11.811   0.894  0.00  0.00    -0.088 S 
ATOM     10  C   UNL     1       0.499 -14.561   0.520  0.00  0.00    +0.043 C 
ATOM     11  C   UNL     1       0.694 -15.879   1.271  0.00  0.00    +0.005 C 
ATOM     12  C   UNL     1      -0.640 -16.450   1.722  0.00  0.00    +0.000 C 
ATOM     13  C   UNL     1      -1.612 -15.383   2.183  0.00  0.00    +0.000 C 
ATOM     14  C   UNL     1      -1.284 -15.086   3.649  0.00  0.00    +0.005 C 
ATOM     15  C   UNL     1       0.128 -14.504   3.732  0.00  0.00    +0.036 C 
ENDBRANCH   2   5
BRANCH   1  18
ATOM     16  C   UNL     1       0.092  -6.387   0.960  0.00  0.00    +0.246 C 
ATOM     17  O   UNL     1       0.092  -6.785  -0.185  0.00  0.00    -0.273 OA
ATOM     18  N   UNL     1       0.109  -7.268   1.980  0.00  0.00    -0.233 N 
ATOM     19  H   UNL     1       0.109  -6.950   2.896  0.00  0.00    +0.173 HD
BRANCH  16  20
ATOM     20  C   UNL     1       0.074  -4.907   1.244  0.00  0.00    +0.199 C 
BRANCH  20  21
ATOM     21  N   UNL     1       0.058  -4.167  -0.021  0.00  0.00    -0.335 N 
ATOM     22  H   UNL     1       0.060  -4.648  -0.864  0.00  0.00    +0.147 HD
BRANCH  21  27
ATOM     23  C   UNL     1      -0.018   1.503   0.010  0.00  0.00    +0.044 C 
ATOM     24  C   UNL     1       0.002  -0.004   0.002  0.00  0.00    -0.050 A 
ATOM     25  C   UNL     1       0.006  -0.687  -1.200  0.00  0.00    +0.005 A 
ATOM     26  C   UNL     1       0.024  -2.068  -1.212  0.00  0.00    +0.023 A 
ATOM     27  C   UNL     1       0.040  -2.771  -0.013  0.00  0.00    +0.028 A 
ATOM     28  C   UNL     1       0.036  -2.081   1.193  0.00  0.00    +0.023 A 
ATOM     29  C   UNL     1       0.023  -0.700   1.197  0.00  0.00    +0.005 A 
ENDBRANCH  21  27
ENDBRANCH  20  21
ENDBRANCH  16  20
ENDBRANCH   1  18
TORSDOF 5
