REMARK  Name = ZINC12358956
REMARK  10 active torsions:
REMARK  status: ('A' for Active; 'I' for Inactive)
REMARK    1  A    between atoms: C_1  and  C_2
REMARK    2  A    between atoms: C_2  and  O_17
REMARK    3  A    between atoms: C_3  and  C_15
REMARK    4  A    between atoms: C_6  and  C_13
REMARK    5  A    between atoms: C_6  and  O_14
REMARK    6  A    between atoms: C_7  and  C_11
REMARK    7  A    between atoms: C_7  and  O_12
REMARK    8  A    between atoms: C_8  and  C_9
REMARK    9  A    between atoms: C_8  and  O_10
REMARK   10  A    between atoms: C_15  and  O_16
REMARK                            x       y       z     vdW  Elec       q    Type
REMARK                         _______ _______ _______ _____ _____    ______ ____
ROOT
ATOM      1  C   UNL     1      -0.724   1.778   1.206  0.00  0.00    +0.047 C 
ATOM      2  C   UNL     1       0.104   1.499  -0.050  0.00  0.00    +0.123 C 
ATOM      3  C   UNL     1       0.348  -0.007  -0.177  0.00  0.00    +0.181 C 
ATOM      4  O   UNL     1       1.170  -0.260  -1.319  0.00  0.00    -0.338 OA
ATOM      5  C   UNL     1       2.460   0.351  -1.256  0.00  0.00    +0.197 C 
ATOM      6  C   UNL     1       2.300   1.871  -1.172  0.00  0.00    +0.147 C 
ATOM      7  C   UNL     1       1.451   2.220   0.054  0.00  0.00    +0.127 C 
ATOM      8  C   UNL     1       2.176   1.770   1.323  0.00  0.00    +0.047 C 
ATOM      9  C   UNL     1       1.607   2.383  -2.437  0.00  0.00    +0.050 C 
ATOM     10  C   UNL     1       3.257  -0.010  -2.512  0.00  0.00    +0.077 C 
ENDROOT
BRANCH   7  11
ATOM     11  O   UNL     1       1.235   3.632   0.099  0.00  0.00    -0.383 OA
ATOM     12  H   UNL     1       0.698   3.924   0.848  0.00  0.00    +0.210 HD
ENDBRANCH   7  11
BRANCH   6  13
ATOM     13  O   UNL     1       3.587   2.481  -1.051  0.00  0.00    -0.381 OA
ATOM     14  H   UNL     1       4.180   2.297  -1.792  0.00  0.00    +0.211 HD
ENDBRANCH   6  13
BRANCH   5  15
ATOM     15  O   UNL     1       3.155  -0.120  -0.100  0.00  0.00    -0.362 OA
ATOM     16  H   UNL     1       3.291  -1.077  -0.086  0.00  0.00    +0.213 HD
ENDBRANCH   5  15
BRANCH   2  17
ATOM     17  O   UNL     1      -0.602   1.967  -1.201  0.00  0.00    -0.383 OA
ATOM     18  H   UNL     1      -1.463   1.549  -1.332  0.00  0.00    +0.210 HD
ENDBRANCH   2  17
BRANCH   3  19
ATOM     19  C   UNL     1      -0.990  -0.729  -0.341  0.00  0.00    +0.190 C 
BRANCH  19  20
ATOM     20  O   UNL     1      -0.772  -2.142  -0.344  0.00  0.00    -0.392 OA
ATOM     21  H   UNL     1      -1.580  -2.664  -0.444  0.00  0.00    +0.210 HD
ENDBRANCH  19  20
ENDBRANCH   3  19
TORSDOF 6
