REMARK  Name = ZINC50062934
REMARK  8 active torsions:
REMARK  status: ('A' for Active; 'I' for Inactive)
REMARK    1  A    between atoms: C_1  and  N_2
REMARK    2  A    between atoms: C_6  and  N_13
REMARK    3  A    between atoms: N_9  and  C_12
REMARK    4  A    between atoms: N_16  and  C_17
REMARK    5  A    between atoms: C_17  and  C_19
REMARK    6  A    between atoms: C_17  and  C_27
REMARK    7  A    between atoms: C_22  and  O_25
REMARK    8  A    between atoms: O_25  and  C_26
REMARK                            x       y       z     vdW  Elec       q    Type
REMARK                         _______ _______ _______ _____ _____    ______ ____
ROOT
ATOM      1  N   UNL     1      -3.810  -4.024  -0.002  0.00  0.00    -0.269 N 
ATOM      2  C   UNL     1      -5.132  -3.786   0.108  0.00  0.00    +0.304 C 
ATOM      3  O   UNL     1      -5.544  -2.642   0.116  0.00  0.00    -0.252 OA
ATOM      4  N   UNL     1      -5.996  -4.814   0.208  0.00  0.00    -0.292 N 
ATOM      5  H   UNL     1      -3.486  -4.936  -0.076  0.00  0.00    +0.156 HD
ATOM      6  H   UNL     1      -5.667  -5.727   0.202  0.00  0.00    +0.151 HD
ENDROOT
BRANCH   1  12
ATOM      7  C   UNL     1       0.924   0.663   0.293  0.00  0.00    +0.154 C 
ATOM      8  N   UNL     1      -0.429   0.361  -0.181  0.00  0.00    -0.295 N 
ATOM      9  C   UNL     1      -1.100  -0.851  -0.017  0.00  0.00    +0.070 A 
ATOM     10  C   UNL     1      -0.758  -2.053   0.584  0.00  0.00    +0.030 A 
ATOM     11  C   UNL     1      -1.656  -3.101   0.588  0.00  0.00    +0.025 A 
ATOM     12  C   UNL     1      -2.903  -2.956  -0.009  0.00  0.00    +0.037 A 
ATOM     13  C   UNL     1      -3.251  -1.757  -0.612  0.00  0.00    +0.051 A 
ATOM     14  C   UNL     1      -2.352  -0.702  -0.617  0.00  0.00    +0.071 A 
ATOM     15  N   UNL     1      -2.403   0.593  -1.127  0.00  0.00    -0.295 N 
ATOM     16  C   UNL     1      -1.239   1.207  -0.845  0.00  0.00    +0.330 A 
ATOM     17  O   UNL     1      -0.960   2.353  -1.146  0.00  0.00    -0.246 OA
ATOM     18  C   UNL     1      -3.534   1.188  -1.843  0.00  0.00    +0.154 C 
ENDBRANCH   1  12
BRANCH   4  19
ATOM     19  C   UNL     1      -7.433  -4.555   0.327  0.00  0.00    +0.108 C 
BRANCH  19  20
ATOM     20  C   UNL     1      -8.203  -5.747  -0.180  0.00  0.00    -0.027 A 
ATOM     21  C   UNL     1      -7.766  -7.026   0.113  0.00  0.00    +0.009 A 
ATOM     22  C   UNL     1      -8.469  -8.121  -0.351  0.00  0.00    +0.046 A 
ATOM     23  C   UNL     1      -9.616  -7.936  -1.110  0.00  0.00    +0.120 A 
ATOM     24  C   UNL     1     -10.053  -6.652  -1.402  0.00  0.00    +0.046 A 
ATOM     25  C   UNL     1      -9.348  -5.561  -0.931  0.00  0.00    +0.009 A 
BRANCH  23  26
ATOM     26  O   UNL     1     -10.309  -9.011  -1.568  0.00  0.00    -0.495 OA
ATOM     27  C   UNL     1     -11.480  -8.746  -2.344  0.00  0.00    +0.277 C 
ENDBRANCH  23  26
ENDBRANCH  19  20
BRANCH  19  28
ATOM     28  C   UNL     1      -7.787  -4.306   1.795  0.00  0.00    +0.014 C 
ATOM     29  C   UNL     1      -6.666  -4.452   2.826  0.00  0.00    +0.006 C 
ATOM     30  C   UNL     1      -7.195  -3.063   2.463  0.00  0.00    +0.006 C 
ENDBRANCH  19  28
ENDBRANCH   4  19
TORSDOF 5
