REMARK  Name = ZINC67630422
REMARK  5 active torsions:
REMARK  status: ('A' for Active; 'I' for Inactive)
REMARK    1  A    between atoms: C_1  and  C_2
REMARK    2  A    between atoms: C_8  and  N_10
REMARK    3  A    between atoms: C_11  and  C_13
REMARK    4  A    between atoms: C_22  and  C_26
REMARK    5  A    between atoms: C_22  and  C_27
REMARK                            x       y       z     vdW  Elec       q    Type
REMARK                         _______ _______ _______ _____ _____    ______ ____
ROOT
ATOM      1  C   UNL     1       4.210   0.532   2.369  0.00  0.00    +0.102 A 
ATOM      2  C   UNL     1       4.957   0.568   3.538  0.00  0.00    +0.031 A 
ATOM      3  C   UNL     1       6.311   0.960   3.470  0.00  0.00    +0.038 A 
ATOM      4  C   UNL     1       6.889   1.297   2.258  0.00  0.00    +0.030 A 
ATOM      5  N   UNL     1       6.163   1.268   1.122  0.00  0.00    -0.325 N 
ATOM      6  H   UNL     1       6.587   1.515   0.286  0.00  0.00    +0.169 HD
ATOM      7  C   UNL     1       4.871   0.901   1.114  0.00  0.00    +0.261 A 
ATOM      8  O   UNL     1       4.248   0.879   0.067  0.00  0.00    -0.267 OA
ATOM      9  C   UNL     1       8.339   1.698   2.163  0.00  0.00    +0.060 C 
ATOM     10  C   UNL     1       8.858   2.224   3.498  0.00  0.00    -0.023 C 
ATOM     11  C   UNL     1       8.602   1.174   4.589  0.00  0.00    +0.086 C 
ATOM     12  C   UNL     1       7.102   1.011   4.712  0.00  0.00    +0.165 C 
ATOM     13  O   UNL     1       6.569   0.925   5.798  0.00  0.00    -0.292 OA
ATOM     14  C   UNL     1       8.128   3.520   3.856  0.00  0.00    +0.011 C 
ATOM     15  C   UNL     1      10.360   2.494   3.392  0.00  0.00    +0.011 C 
ENDROOT
BRANCH   1  17
ATOM     16  N   UNL     1       2.118  -0.011   1.231  0.00  0.00    -0.308 N 
ATOM     17  C   UNL     1       2.795   0.128   2.388  0.00  0.00    +0.250 C 
ATOM     18  O   UNL     1       2.236  -0.081   3.448  0.00  0.00    -0.270 OA
ATOM     19  H   UNL     1       2.540   0.226   0.391  0.00  0.00    +0.149 HD
BRANCH  16  26
ATOM     20  C   UNL     1      -0.019   1.507  -0.001  0.00  0.00    +0.009 C 
ATOM     21  C   UNL     1       0.005  -0.023  -0.001  0.00  0.00    +0.006 C 
ATOM     22  C   UNL     1       0.724  -0.521  -1.256  0.00  0.00    +0.005 C 
ATOM     23  C   UNL     1       0.748  -2.051  -1.256  0.00  0.00    +0.000 C 
ATOM     24  C   UNL     1       1.488  -2.550  -0.013  0.00  0.00    +0.002 C 
ATOM     25  C   UNL     1       0.769  -2.051   1.242  0.00  0.00    +0.022 C 
ATOM     26  C   UNL     1       0.745  -0.521   1.242  0.00  0.00    +0.076 C 
ENDBRANCH  16  26
ENDBRANCH   1  17
TORSDOF 2
