REMARK  Name = ZINC55575862
REMARK  2 active torsions:
REMARK  status: ('A' for Active; 'I' for Inactive)
REMARK    1  A    between atoms: C_10  and  N_11
REMARK    2  A    between atoms: C_20  and  C_22
REMARK                            x       y       z     vdW  Elec       q    Type
REMARK                         _______ _______ _______ _____ _____    ______ ____
ROOT
ATOM      1  N   UNL     1       1.149   4.183   0.013  0.00  0.00    -0.314 N 
ATOM      2  C   UNL     1      -0.315   4.100  -0.078  0.00  0.00    +0.109 C 
ATOM      3  C   UNL     1      -0.786   4.981  -1.240  0.00  0.00    +0.054 C 
ATOM      4  C   UNL     1      -0.231   6.390  -1.066  0.00  0.00    +0.114 C 
ATOM      5  C   UNL     1       1.293   6.377  -1.046  0.00  0.00    +0.054 C 
ATOM      6  C   UNL     1       1.779   5.506   0.125  0.00  0.00    +0.109 C 
ATOM      7  C   UNL     1      -0.771   7.018   0.199  0.00  0.00    +0.261 C 
ATOM      8  O   UNL     1      -0.617   6.630   1.339  0.00  0.00    -0.271 OA
ATOM      9  N   UNL     1      -1.456   8.095  -0.207  0.00  0.00    -0.168 NA
ATOM     10  C   UNL     1      -1.433   8.241  -1.502  0.00  0.00    +0.092 C 
ATOM     11  N   UNL     1      -0.727   7.277  -2.127  0.00  0.00    -0.320 N 
ATOM     12  H   UNL     1      -0.577   7.187  -3.081  0.00  0.00    +0.148 HD
ENDROOT
BRANCH   1  22
ATOM     13  C   UNL     1       2.015   2.635   2.569  0.00  0.00    +0.147 A 
ATOM     14  C   UNL     1       2.272   2.392   1.202  0.00  0.00    +0.078 A 
ATOM     15  C   UNL     1       3.059   1.226   1.131  0.00  0.00    +0.163 A 
ATOM     16  N   UNL     1       3.252   0.808   2.414  0.00  0.00    -0.260 N 
ATOM     17  H   UNL     1       3.757   0.027   2.688  0.00  0.00    +0.191 HD
ATOM     18  N   UNL     1       2.594   1.701   3.269  0.00  0.00    -0.180 NA
ATOM     19  N   UNL     1       3.441   0.779  -0.064  0.00  0.00    -0.195 NA
ATOM     20  C   UNL     1       3.088   1.418  -1.167  0.00  0.00    +0.216 A 
ATOM     21  N   UNL     1       2.347   2.519  -1.145  0.00  0.00    -0.199 NA
ATOM     22  C   UNL     1       1.920   3.037   0.000  0.00  0.00    +0.137 A 
ATOM     23  N   UNL     1       3.506   0.920  -2.388  0.00  0.00    -0.327 N 
ATOM     24  H   UNL     1       4.048   0.116  -2.424  0.00  0.00    +0.145 HD
ATOM     25  H   UNL     1       3.257   1.374  -3.208  0.00  0.00    +0.145 HD
ENDBRANCH   1  22
BRANCH  10  26
ATOM     26  C   UNL     1      -2.122   9.368  -2.226  0.00  0.00    +0.050 C 
ATOM     27  C   UNL     1      -1.989  10.773  -1.634  0.00  0.00    +0.011 C 
ATOM     28  C   UNL     1      -3.320  10.024  -1.535  0.00  0.00    +0.011 C 
ENDBRANCH  10  26
TORSDOF 2
