REMARK  Name = ZINC67257793
REMARK  6 active torsions:
REMARK  status: ('A' for Active; 'I' for Inactive)
REMARK    1  A    between atoms: C_1  and  C_2
REMARK    2  A    between atoms: C_2  and  C_3
REMARK    3  A    between atoms: C_2  and  C_4
REMARK    4  A    between atoms: C_2  and  N_14
REMARK    5  A    between atoms: C_8  and  C_10
REMARK    6  A    between atoms: N_17  and  C_18
REMARK                            x       y       z     vdW  Elec       q    Type
REMARK                         _______ _______ _______ _____ _____    ______ ____
ROOT
ATOM      1  N   UNL     1       0.550  -0.027  -1.242  0.00  0.00    -0.290 N 
ATOM      2  C   UNL     1       1.845   0.270  -1.468  0.00  0.00    +0.305 C 
ATOM      3  O   UNL     1       2.481   0.887  -0.636  0.00  0.00    -0.252 OA
ATOM      4  N   UNL     1       2.434  -0.118  -2.617  0.00  0.00    -0.269 N 
ATOM      5  H   UNL     1       0.042  -0.520  -1.906  0.00  0.00    +0.151 HD
ATOM      6  H   UNL     1       1.909  -0.544  -3.312  0.00  0.00    +0.156 HD
ENDROOT
BRANCH   4   7
ATOM      7  C   UNL     1       3.806   0.094  -2.806  0.00  0.00    +0.035 A 
ATOM      8  C   UNL     1       4.297   0.373  -4.075  0.00  0.00    +0.025 A 
ATOM      9  C   UNL     1       5.649   0.583  -4.262  0.00  0.00    +0.025 A 
ATOM     10  C   UNL     1       6.518   0.514  -3.181  0.00  0.00    +0.037 A 
ATOM     11  C   UNL     1       6.027   0.234  -1.913  0.00  0.00    -0.024 A 
ATOM     12  C   UNL     1       4.675   0.030  -1.724  0.00  0.00    +0.028 A 
ATOM     13  C   UNL     1       6.973   0.162  -0.742  0.00  0.00    +0.046 C 
ATOM     14  C   UNL     1       8.315  -0.406  -1.204  0.00  0.00    +0.101 C 
ATOM     15  C   UNL     1       8.775   0.310  -2.444  0.00  0.00    +0.218 C 
ATOM     16  O   UNL     1       9.959   0.515  -2.614  0.00  0.00    -0.275 OA
ATOM     17  N   UNL     1       7.889   0.727  -3.368  0.00  0.00    -0.285 N 
ATOM     18  H   UNL     1       8.202   1.177  -4.168  0.00  0.00    +0.155 HD
ENDBRANCH   4   7
BRANCH   1  20
ATOM     19  C   UNL     1      -0.010   1.917   0.132  0.00  0.00    +0.036 C 
ATOM     20  C   UNL     1      -0.091   0.395   0.006  0.00  0.00    +0.056 C 
ATOM     21  C   UNL     1       0.626  -0.254   1.192  0.00  0.00    +0.036 C 
BRANCH  20  22
ATOM     22  C   UNL     1      -1.536  -0.033  -0.002  0.00  0.00    -0.024 A 
ATOM     23  C   UNL     1      -2.209  -0.216   1.192  0.00  0.00    +0.006 A 
ATOM     24  C   UNL     1      -3.535  -0.608   1.184  0.00  0.00    +0.001 A 
ATOM     25  C   UNL     1      -4.188  -0.816  -0.017  0.00  0.00    +0.012 A 
ATOM     26  C   UNL     1      -3.515  -0.632  -1.210  0.00  0.00    +0.055 A 
ATOM     27  C   UNL     1      -2.190  -0.235  -1.202  0.00  0.00    +0.018 A 
BRANCH  26  28
ATOM     28  C   UNL     1      -4.226  -0.859  -2.519  0.00  0.00    +0.417 C 
ATOM     29  F   UNL     1      -5.547  -1.247  -2.270  0.00  0.00    -0.166 F 
ATOM     30  F   UNL     1      -4.220   0.325  -3.264  0.00  0.00    -0.166 F 
ATOM     31  F   UNL     1      -3.571  -1.865  -3.237  0.00  0.00    -0.166 F 
ENDBRANCH  26  28
ENDBRANCH  20  22
ENDBRANCH   1  20
TORSDOF 4
