REMARK  Name = ZINC35339640
REMARK  7 active torsions:
REMARK  status: ('A' for Active; 'I' for Inactive)
REMARK    1  A    between atoms: C_1  and  C_2
REMARK    2  A    between atoms: C_5  and  C_22
REMARK    3  A    between atoms: N_8  and  C_10
REMARK    4  A    between atoms: C_13  and  S_17
REMARK    5  A    between atoms: C_15  and  N_16
REMARK    6  A    between atoms: S_17  and  N_20
REMARK    7  A    between atoms: N_20  and  C_21
REMARK                            x       y       z     vdW  Elec       q    Type
REMARK                         _______ _______ _______ _____ _____    ______ ____
ROOT
ATOM      1  C   UNL     1       1.789  -2.769   1.399  0.00  0.00    +0.051 A 
ATOM      2  C   UNL     1       2.449  -3.200   0.258  0.00  0.00    +0.027 A 
ATOM      3  C   UNL     1       3.584  -3.982   0.370  0.00  0.00    +0.030 A 
ATOM      4  C   UNL     1       4.064  -4.335   1.617  0.00  0.00    +0.107 A 
ATOM      5  C   UNL     1       3.412  -3.910   2.760  0.00  0.00    +0.053 A 
ATOM      6  C   UNL     1       2.276  -3.122   2.657  0.00  0.00    +0.048 A 
ENDROOT
BRANCH   1  12
ATOM      7  C   UNL     1      -0.019   1.526   0.010  0.00  0.00    +0.009 C 
ATOM      8  C   UNL     1       0.002  -0.004   0.002  0.00  0.00    +0.003 C 
ATOM      9  C   UNL     1      -1.433  -0.534   0.015  0.00  0.00    +0.009 C 
ATOM     10  C   UNL     1      -1.414  -2.064  -0.027  0.00  0.00    +0.003 C 
ATOM     11  C   UNL     1      -0.692  -2.596   1.215  0.00  0.00    +0.108 C 
ATOM     12  N   UNL     1       0.639  -1.977   1.288  0.00  0.00    -0.328 N 
ATOM     13  C   UNL     1       0.742  -0.512   1.244  0.00  0.00    +0.108 C 
ATOM     14  C   UNL     1      -2.850  -2.592  -0.049  0.00  0.00    +0.009 C 
ENDBRANCH   1  12
BRANCH   6  15
ATOM     15  N   UNL     1       1.618  -2.686   3.813  0.00  0.00    -0.356 N 
ATOM     16  H   UNL     1       0.821  -2.137   3.740  0.00  0.00    +0.142 HD
ATOM     17  H   UNL     1       1.958  -2.932   4.688  0.00  0.00    +0.142 HD
ENDBRANCH   6  15
BRANCH   4  18
ATOM     18  S   UNL     1       5.511  -5.332   1.750  0.00  0.00    +0.058 S 
ATOM     19  O   UNL     1       5.444  -5.979   3.014  0.00  0.00    -0.153 OA
ATOM     20  O   UNL     1       5.622  -6.053   0.531  0.00  0.00    -0.153 OA
BRANCH  18  21
ATOM     21  N   UNL     1       6.809  -4.305   1.813  0.00  0.00    -0.193 NA
ATOM     22  C   UNL     1       6.970  -3.396   2.950  0.00  0.00    +0.127 C 
ATOM     23  H   UNL     1       7.463  -4.306   1.096  0.00  0.00    +0.148 HD
ENDBRANCH  18  21
ENDBRANCH   4  18
TORSDOF 4
