REMARK  Name = ZINC21281638
REMARK  12 active torsions:
REMARK  status: ('A' for Active; 'I' for Inactive)
REMARK    1  A    between atoms: C_1  and  C_2
REMARK    2  A    between atoms: C_5  and  N_9
REMARK    3  A    between atoms: C_6  and  C_8
REMARK    4  A    between atoms: C_13  and  C_15
REMARK    5  A    between atoms: C_15  and  S_16
REMARK    6  A    between atoms: S_16  and  C_17
REMARK    7  A    between atoms: C_20  and  C_23
REMARK    8  A    between atoms: N_21  and  N_22
REMARK    9  A    between atoms: C_26  and  C_29
REMARK   10  A    between atoms: C_29  and  C_30
REMARK   11  A    between atoms: C_29  and  C_31
REMARK   12  A    between atoms: C_29  and  C_32
REMARK                            x       y       z     vdW  Elec       q    Type
REMARK                         _______ _______ _______ _____ _____    ______ ____
ROOT
ATOM      1  S   UNL     1       4.785   1.705  -0.302  0.00  0.00    -0.075 S 
ENDROOT
BRANCH   1   2
ATOM      2  C   UNL     1       6.120   2.851  -0.211  0.00  0.00    +0.209 A 
ATOM      3  N   UNL     1       6.021   4.150  -0.034  0.00  0.00    -0.121 NA
ATOM      4  N   UNL     1       7.191   4.682  -0.013  0.00  0.00    -0.127 NA
ATOM      5  C   UNL     1       8.107   3.758  -0.185  0.00  0.00    +0.182 A 
ATOM      6  N   UNL     1       7.449   2.557  -0.317  0.00  0.00    -0.224 N 
BRANCH   5   7
ATOM      7  C   UNL     1       9.570   3.968  -0.228  0.00  0.00    +0.021 A 
ATOM      8  C   UNL     1      10.119   5.168   0.226  0.00  0.00    +0.012 A 
ATOM      9  C   UNL     1      11.486   5.355   0.188  0.00  0.00    +0.005 A 
ATOM     10  C   UNL     1      12.309   4.362  -0.311  0.00  0.00    -0.042 A 
ATOM     11  C   UNL     1      11.771   3.172  -0.768  0.00  0.00    +0.005 A 
ATOM     12  C   UNL     1      10.406   2.970  -0.730  0.00  0.00    +0.012 A 
BRANCH  10  13
ATOM     13  C   UNL     1      13.800   4.576  -0.356  0.00  0.00    -0.013 C 
ATOM     14  C   UNL     1      14.286   4.481  -1.803  0.00  0.00    +0.015 C 
ATOM     15  C   UNL     1      14.134   5.960   0.204  0.00  0.00    +0.015 C 
ATOM     16  C   UNL     1      14.495   3.504   0.487  0.00  0.00    +0.015 C 
ENDBRANCH  10  13
ENDBRANCH   5   7
BRANCH   6  17
ATOM     17  N   UNL     1       8.009   1.326  -0.512  0.00  0.00    -0.295 N 
ATOM     18  H   UNL     1       9.102   1.224  -0.580  0.00  0.00    +0.163 HD
ATOM     19  H   UNL     1       7.366   0.438  -0.601  0.00  0.00    +0.163 HD
ENDBRANCH   6  17
ENDBRANCH   1   2
BRANCH   1  20
ATOM     20  C   UNL     1       3.386   2.832  -0.079  0.00  0.00    +0.173 C 
BRANCH  20  25
ATOM     21  N   UNL     1      -1.412   2.623   0.123  0.00  0.00    -0.269 N 
ATOM     22  C   UNL     1      -0.232   1.987  -0.017  0.00  0.00    +0.310 C 
ATOM     23  O   UNL     1      -0.207   0.783  -0.183  0.00  0.00    -0.252 OA
ATOM     24  N   UNL     1       0.919   2.686   0.022  0.00  0.00    -0.239 N 
ATOM     25  C   UNL     1       2.099   2.050  -0.123  0.00  0.00    +0.231 C 
ATOM     26  O   UNL     1       2.124   0.850  -0.288  0.00  0.00    -0.274 OA
ATOM     27  H   UNL     1      -1.433   3.697   0.358  0.00  0.00    +0.156 HD
ATOM     28  H   UNL     1       0.896   3.776   0.172  0.00  0.00    +0.159 HD
BRANCH  21  33
ATOM     29  C   UNL     1      -6.270  -0.240  -0.504  0.00  0.00    +0.044 C 
ATOM     30  C   UNL     1      -4.979   0.521  -0.338  0.00  0.00    -0.050 A 
ATOM     31  C   UNL     1      -3.861   0.149  -1.062  0.00  0.00    +0.005 A 
ATOM     32  C   UNL     1      -2.677   0.844  -0.911  0.00  0.00    +0.024 A 
ATOM     33  C   UNL     1      -2.611   1.917  -0.032  0.00  0.00    +0.038 A 
ATOM     34  C   UNL     1      -3.734   2.285   0.696  0.00  0.00    -0.029 A 
ATOM     35  C   UNL     1      -4.916   1.589   0.538  0.00  0.00    +0.008 A 
ATOM     36  C   UNL     1      -3.664   3.445   1.656  0.00  0.00    +0.045 C 
ENDBRANCH  21  33
ENDBRANCH  20  25
ENDBRANCH   1  20
TORSDOF 7
