REMARK  Name = ZINC63443026
REMARK  3 active torsions:
REMARK  status: ('A' for Active; 'I' for Inactive)
REMARK    1  A    between atoms: C_11  and  C_13
REMARK    2  A    between atoms: N_15  and  C_16
REMARK    3  A    between atoms: N_15  and  C_21
REMARK                            x       y       z     vdW  Elec       q    Type
REMARK                         _______ _______ _______ _____ _____    ______ ____
ROOT
ATOM      1  C   UNL     1       4.484  -4.148  -1.364  0.00  0.00    +0.221 C 
ATOM      2  O   UNL     1       4.590  -3.075  -1.919  0.00  0.00    -0.275 OA
ATOM      3  N   UNL     1       3.344  -4.856  -1.478  0.00  0.00    -0.295 N 
ENDROOT
BRANCH   1  14
ATOM      4  C   UNL     1       9.380  -9.415  -0.972  0.00  0.00    +0.039 A 
ATOM      5  C   UNL     1       9.024  -8.889   0.261  0.00  0.00    +0.116 A 
ATOM      6  N   UNL     1       8.533  -7.663   0.322  0.00  0.00    -0.223 NA
ATOM      7  C   UNL     1       8.381  -6.939  -0.777  0.00  0.00    +0.218 A 
ATOM      8  N   UNL     1       8.710  -7.411  -1.970  0.00  0.00    -0.223 NA
ATOM      9  C   UNL     1       9.207  -8.630  -2.101  0.00  0.00    +0.116 A 
ATOM     10  N   UNL     1       7.864  -5.659  -0.677  0.00  0.00    -0.299 N 
ATOM     11  C   UNL     1       8.467  -4.678   0.235  0.00  0.00    +0.108 C 
ATOM     12  C   UNL     1       7.374  -4.118   1.151  0.00  0.00    +0.020 C 
ATOM     13  C   UNL     1       6.233  -3.562   0.296  0.00  0.00    +0.016 C 
ATOM     14  C   UNL     1       5.629  -4.689  -0.546  0.00  0.00    +0.092 C 
ATOM     15  C   UNL     1       6.706  -5.253  -1.485  0.00  0.00    +0.120 C 
ENDBRANCH   1  14
BRANCH   3  16
ATOM     16  C   UNL     1       2.056  -4.162  -1.564  0.00  0.00    +0.076 C 
ATOM     17  C   UNL     1       1.983  -3.343  -2.869  0.00  0.00    +0.022 C 
ATOM     18  C   UNL     1       1.222  -2.055  -2.468  0.00  0.00    +0.002 C 
ATOM     19  C   UNL     1       1.770  -1.763  -1.049  0.00  0.00    +0.002 C 
ATOM     20  C   UNL     1       1.921  -3.157  -0.406  0.00  0.00    +0.022 C 
ENDBRANCH   3  16
BRANCH   3  21
ATOM     21  C   UNL     1       3.391  -6.320  -1.517  0.00  0.00    +0.076 C 
ATOM     22  C   UNL     1       3.703  -6.875  -0.112  0.00  0.00    +0.022 C 
ATOM     23  C   UNL     1       4.619  -8.095  -0.381  0.00  0.00    +0.002 C 
ATOM     24  C   UNL     1       5.498  -7.609  -1.560  0.00  0.00    +0.002 C 
ATOM     25  C   UNL     1       4.532  -6.786  -2.438  0.00  0.00    +0.022 C 
ENDBRANCH   3  21
TORSDOF 3
