REMARK  Name = ZINC09907631
REMARK  13 active torsions:
REMARK  status: ('A' for Active; 'I' for Inactive)
REMARK    1  A    between atoms: C_1  and  C_2
REMARK    2  A    between atoms: C_2  and  O_3
REMARK    3  A    between atoms: O_3  and  C_4
REMARK    4  A    between atoms: C_7  and  N_10
REMARK    5  A    between atoms: C_11  and  C_13
REMARK    6  A    between atoms: C_17  and  N_18
REMARK    7  A    between atoms: C_19  and  C_20
REMARK    8  A    between atoms: C_23  and  N_26
REMARK    9  A    between atoms: N_26  and  C_27
REMARK   10  A    between atoms: N_26  and  C_28
REMARK   11  A    between atoms: C_33  and  O_35
REMARK   12  A    between atoms: O_35  and  C_36
REMARK   13  A    between atoms: C_36  and  C_37
REMARK                            x       y       z     vdW  Elec       q    Type
REMARK                         _______ _______ _______ _____ _____    ______ ____
ROOT
ATOM      1  C   UNL     1      -6.427   1.357  -0.045  0.00  0.00    +0.073 A 
ATOM      2  C   UNL     1      -7.354   0.312  -0.222  0.00  0.00    -0.020 A 
ATOM      3  C   UNL     1      -6.851  -0.945  -0.291  0.00  0.00    +0.013 A 
ATOM      4  S   UNL     1      -5.100  -0.741  -0.115  0.00  0.00    -0.072 S 
ATOM      5  C   UNL     1      -5.068   1.037   0.054  0.00  0.00    +0.114 A 
ATOM      6  C   UNL     1      -7.619  -2.217  -0.484  0.00  0.00    +0.153 C 
ATOM      7  N   UNL     1      -9.052  -1.886  -0.354  0.00  0.00    -0.262 N 
ATOM      8  C   UNL     1      -9.520  -0.647  -0.994  0.00  0.00    +0.116 C 
ATOM      9  C   UNL     1      -8.857   0.558  -0.328  0.00  0.00    +0.056 C 
ATOM     10  C   UNL     1      -9.897  -2.686   0.325  0.00  0.00    +0.403 C 
ATOM     11  O   UNL     1     -11.072  -2.390   0.417  0.00  0.00    -0.226 OA
ENDROOT
BRANCH   1  13
ATOM     12  N   UNL     1      -7.190   3.289   1.231  0.00  0.00    -0.281 N 
ATOM     13  C   UNL     1      -6.876   2.751   0.036  0.00  0.00    +0.251 C 
ATOM     14  O   UNL     1      -6.965   3.421  -0.976  0.00  0.00    -0.270 OA
ATOM     15  H   UNL     1      -7.057   2.777   2.044  0.00  0.00    +0.155 HD
BRANCH  12  19
ATOM     16  C   UNL     1      -8.728   7.159   1.435  0.00  0.00    +0.121 A 
ATOM     17  C   UNL     1      -9.168   6.190   2.325  0.00  0.00    +0.047 A 
ATOM     18  C   UNL     1      -8.659   4.908   2.258  0.00  0.00    +0.027 A 
ATOM     19  C   UNL     1      -7.707   4.589   1.299  0.00  0.00    +0.034 A 
ATOM     20  C   UNL     1      -7.263   5.561   0.412  0.00  0.00    +0.027 A 
ATOM     21  C   UNL     1      -7.777   6.841   0.476  0.00  0.00    +0.047 A 
BRANCH  16  22
ATOM     22  O   UNL     1      -9.230   8.421   1.501  0.00  0.00    -0.492 OA
BRANCH  22  24
ATOM     23  C   UNL     1      -9.407  10.722   0.782  0.00  0.00    +0.048 C 
ATOM     24  C   UNL     1      -8.732   9.368   0.554  0.00  0.00    +0.225 C 
ENDBRANCH  22  24
ENDBRANCH  16  22
ENDBRANCH  12  19
ENDBRANCH   1  13
BRANCH   5  25
ATOM     25  N   UNL     1      -4.010   1.857   0.225  0.00  0.00    -0.247 NA
ATOM     26  C   UNL     1      -2.801   1.361   0.294  0.00  0.00    +0.120 C 
BRANCH  26  27
ATOM     27  C   UNL     1      -1.651   2.254   0.481  0.00  0.00    -0.007 A 
ATOM     28  C   UNL     1      -0.356   1.724   0.554  0.00  0.00    +0.011 A 
ATOM     29  C   UNL     1       0.716   2.562   0.723  0.00  0.00    +0.024 A 
ATOM     30  C   UNL     1       0.519   3.937   0.825  0.00  0.00    +0.029 A 
ATOM     31  C   UNL     1      -0.767   4.467   0.758  0.00  0.00    +0.024 A 
ATOM     32  C   UNL     1      -1.845   3.637   0.590  0.00  0.00    +0.011 A 
BRANCH  30  33
ATOM     33  N   UNL     1       1.610   4.783   0.996  0.00  0.00    -0.336 N 
ATOM     34  C   UNL     1       2.949   4.222   1.188  0.00  0.00    +0.129 C 
ATOM     35  C   UNL     1       1.419   6.236   0.983  0.00  0.00    +0.129 C 
ENDBRANCH  30  33
ENDBRANCH  26  27
ENDBRANCH   5  25
BRANCH  10  36
ATOM     36  O   UNL     1      -9.439  -3.813   0.902  0.00  0.00    -0.451 OA
BRANCH  36  37
ATOM     37  C   UNL     1     -10.406  -4.627   1.617  0.00  0.00    +0.230 C 
ATOM     38  C   UNL     1      -9.706  -5.857   2.200  0.00  0.00    +0.048 C 
ENDBRANCH  36  37
ENDBRANCH  10  36
TORSDOF 9
