REMARK  Name = ZINC64220076
REMARK  9 active torsions:
REMARK  status: ('A' for Active; 'I' for Inactive)
REMARK    1  A    between atoms: C_4  and  C_7
REMARK    2  A    between atoms: C_12  and  O_18
REMARK    3  A    between atoms: O_18  and  C_19
REMARK    4  A    between atoms: C_19  and  O_34
REMARK    5  A    between atoms: C_20  and  O_33
REMARK    6  A    between atoms: C_22  and  O_32
REMARK    7  A    between atoms: C_24  and  O_31
REMARK    8  A    between atoms: C_26  and  C_29
REMARK    9  A    between atoms: C_29  and  O_30
REMARK                            x       y       z     vdW  Elec       q    Type
REMARK                         _______ _______ _______ _____ _____    ______ ____
ROOT
ATOM      1  O   UNL     1       9.437  -3.078  -1.256  0.00  0.00    -0.436 OA
ENDROOT
BRANCH   1   7
ATOM      2  C   UNL     1       3.720  -0.477  -0.300  0.00  0.00    +0.064 A 
ATOM      3  C   UNL     1       4.599  -0.254   0.713  0.00  0.00    +0.208 A 
ATOM      4  O   UNL     1       5.761  -0.901   0.815  0.00  0.00    -0.462 OA
ATOM      5  C   UNL     1       6.285  -1.587  -0.219  0.00  0.00    +0.142 A 
ATOM      6  C   UNL     1       7.617  -1.982  -0.205  0.00  0.00    +0.092 A 
ATOM      7  C   UNL     1       8.135  -2.694  -1.273  0.00  0.00    +0.130 A 
ATOM      8  C   UNL     1       7.334  -3.020  -2.365  0.00  0.00    +0.047 A 
ATOM      9  C   UNL     1       6.024  -2.636  -2.398  0.00  0.00    +0.019 A 
ATOM     10  C   UNL     1       5.489  -1.915  -1.331  0.00  0.00    +0.065 A 
ATOM     11  C   UNL     1       4.081  -1.471  -1.329  0.00  0.00    +0.200 A 
ATOM     12  O   UNL     1       3.267  -1.895  -2.131  0.00  0.00    -0.286 OA
BRANCH   2  16
ATOM     13  C   UNL     1       0.026   1.620  -0.488  0.00  0.00    +0.000 A 
ATOM     14  C   UNL     1       1.218   2.310  -0.621  0.00  0.00    +0.001 A 
ATOM     15  C   UNL     1       2.420   1.635  -0.560  0.00  0.00    +0.009 A 
ATOM     16  C   UNL     1       2.432   0.255  -0.365  0.00  0.00    -0.011 A 
ATOM     17  C   UNL     1       1.228  -0.435  -0.232  0.00  0.00    +0.009 A 
ATOM     18  C   UNL     1       0.032   0.250  -0.294  0.00  0.00    +0.001 A 
ENDBRANCH   2  16
ENDBRANCH   1   7
BRANCH   1  19
ATOM     19  C   UNL     1       9.938  -3.725  -2.427  0.00  0.00    +0.358 C 
ATOM     20  C   UNL     1      11.389  -4.154  -2.193  0.00  0.00    +0.249 C 
ATOM     21  C   UNL     1      11.434  -5.169  -1.047  0.00  0.00    +0.183 C 
ATOM     22  C   UNL     1      10.526  -6.353  -1.392  0.00  0.00    +0.177 C 
ATOM     23  C   UNL     1       9.109  -5.839  -1.658  0.00  0.00    +0.181 C 
ATOM     24  O   UNL     1       9.143  -4.877  -2.713  0.00  0.00    -0.307 OA
BRANCH  22  25
ATOM     25  O   UNL     1      11.023  -7.011  -2.559  0.00  0.00    -0.386 OA
ATOM     26  H   UNL     1      11.920  -7.359  -2.463  0.00  0.00    +0.210 HD
ENDBRANCH  22  25
BRANCH  21  27
ATOM     27  O   UNL     1      12.775  -5.629  -0.868  0.00  0.00    -0.386 OA
ATOM     28  H   UNL     1      13.406  -4.928  -0.652  0.00  0.00    +0.210 HD
ENDBRANCH  21  27
BRANCH  20  29
ATOM     29  O   UNL     1      12.176  -3.011  -1.851  0.00  0.00    -0.380 OA
ATOM     30  H   UNL     1      12.188  -2.324  -2.532  0.00  0.00    +0.210 HD
ENDBRANCH  20  29
BRANCH  19  31
ATOM     31  O   UNL     1       9.882  -2.820  -3.532  0.00  0.00    -0.331 OA
ATOM     32  H   UNL     1       9.007  -2.434  -3.680  0.00  0.00    +0.216 HD
ENDBRANCH  19  31
BRANCH  23  33
ATOM     33  C   UNL     1       8.209  -7.009  -2.062  0.00  0.00    +0.190 C 
BRANCH  33  34
ATOM     34  O   UNL     1       6.863  -6.550  -2.197  0.00  0.00    -0.392 OA
ATOM     35  H   UNL     1       6.235  -7.240  -2.452  0.00  0.00    +0.210 HD
ENDBRANCH  33  34
ENDBRANCH  23  33
ENDBRANCH   1  19
TORSDOF 9
