REMARK  Name = ZINC05368875
REMARK  4 active torsions:
REMARK  status: ('A' for Active; 'I' for Inactive)
REMARK    1  A    between atoms: C_1  and  C_2
REMARK    2  A    between atoms: C_1  and  C_4
REMARK    3  A    between atoms: N_6  and  S_7
REMARK    4  A    between atoms: S_7  and  N_10
REMARK                            x       y       z     vdW  Elec       q    Type
REMARK                         _______ _______ _______ _____ _____    ______ ____
ROOT
ATOM      1  C   UNL     1       1.395   2.047  -0.000  0.00  0.00    +0.113 C 
ATOM      2  N   UNL     1       1.627   3.398   0.005  0.00  0.00    -0.345 N 
ATOM      3  N   UNL     1       2.389   1.220  -0.014  0.00  0.00    -0.143 NA
ATOM      4  H   UNL     1       0.881   4.018   0.015  0.00  0.00    +0.143 HD
ATOM      5  H   UNL     1       2.537   3.733  -0.002  0.00  0.00    +0.143 HD
ENDROOT
BRANCH   3   6
ATOM      6  S   UNL     1       3.943   1.794  -0.026  0.00  0.00    +0.011 S 
ATOM      7  O   UNL     1       4.122   2.458  -1.270  0.00  0.00    -0.174 OA
ATOM      8  O   UNL     1       4.145   2.444   1.221  0.00  0.00    -0.174 OA
BRANCH   6   9
ATOM      9  N   UNL     1       4.950   0.479  -0.043  0.00  0.00    +0.472 NA
ATOM     10  H   UNL     1       5.912   0.605  -0.051  0.00  0.00    -0.126 HD
ENDBRANCH   6   9
ENDBRANCH   3   6
BRANCH   1  11
ATOM     11  C   UNL     1      -0.019   1.526   0.010  0.00  0.00    +0.088 C 
BRANCH  11  12
ATOM     12  C   UNL     1       0.002  -0.004   0.002  0.00  0.00    +0.116 C 
ATOM     13 CL   UNL     1      -1.689  -0.628   0.015  0.00  0.00    -0.125 Cl
ENDBRANCH  11  12
ENDBRANCH   1  11
TORSDOF 4
