REMARK  Name = ZINC38595174
REMARK  1 active torsions:
REMARK  status: ('A' for Active; 'I' for Inactive)
REMARK    1  A    between atoms: C_3  and  C_7
REMARK                            x       y       z     vdW  Elec       q    Type
REMARK                         _______ _______ _______ _____ _____    ______ ____
ROOT
ATOM      1  C   UNL     1       2.989   0.691  -1.277  0.00  0.00    +0.188 C 
ATOM      2  N   UNL     1       3.833   1.889  -1.306  0.00  0.00    -0.306 N 
ATOM      3  C   UNL     1       5.090   1.870  -0.835  0.00  0.00    +0.138 C 
ATOM      4  N   UNL     1       5.672   0.740  -0.392  0.00  0.00    -0.270 N 
ATOM      5  C   UNL     1       4.956  -0.448  -0.415  0.00  0.00    +0.180 C 
ATOM      6  N   UNL     1       3.860  -0.498  -1.273  0.00  0.00    -0.297 N 
ATOM      7  N   UNL     1       5.291  -1.466   0.325  0.00  0.00    -0.272 NA
ATOM      8  S   UNL     1       5.981   3.331  -0.796  0.00  0.00    -0.018 S 
ATOM      9  H   UNL     1       3.475   2.713  -1.673  0.00  0.00    +0.150 HD
ATOM     10  H   UNL     1       6.060  -1.405   0.913  0.00  0.00    +0.189 HD
ATOM     11  H   UNL     1       3.680  -1.267  -1.837  0.00  0.00    +0.151 HD
ATOM     12  H   UNL     1       6.583   0.756  -0.059  0.00  0.00    +0.156 HD
ENDROOT
BRANCH   1  15
ATOM     13  C   UNL     1      -0.018   1.459   0.010  0.00  0.00    +0.017 C 
ATOM     14  C   UNL     1       1.232   1.920   0.001  0.00  0.00    +0.004 C 
ATOM     15  C   UNL     1       2.125   0.699  -0.015  0.00  0.00    +0.166 C 
ATOM     16  N   UNL     1       1.213  -0.452  -0.012  0.00  0.00    -0.281 NA
ATOM     17  C   UNL     1       0.002  -0.004   0.002  0.00  0.00    +0.105 C 
ENDBRANCH   1  15
TORSDOF 1
