REMARK  Name = ZINC12624147
REMARK  10 active torsions:
REMARK  status: ('A' for Active; 'I' for Inactive)
REMARK    1  A    between atoms: C_3  and  C_6
REMARK    2  A    between atoms: N_8  and  C_9
REMARK    3  A    between atoms: C_9  and  N_11
REMARK    4  A    between atoms: N_11  and  C_12
REMARK    5  A    between atoms: C_15  and  C_18
REMARK    6  A    between atoms: C_18  and  C_19
REMARK    7  A    between atoms: C_22  and  N_25
REMARK    8  A    between atoms: N_25  and  C_26
REMARK    9  A    between atoms: C_26  and  N_28
REMARK   10  A    between atoms: C_29  and  C_31
REMARK                            x       y       z     vdW  Elec       q    Type
REMARK                         _______ _______ _______ _____ _____    ______ ____
ROOT
ATOM      1  C   UNL     1       0.011   1.072   2.506  0.00  0.00    +0.007 C 
ENDROOT
BRANCH   1   5
ATOM      2  C   UNL     1      -2.170   0.717  -1.214  0.00  0.00    +0.072 C 
ATOM      3  C   UNL     1      -2.953   1.081   0.049  0.00  0.00    +0.022 C 
ATOM      4  C   UNL     1      -2.135   0.698   1.284  0.00  0.00    +0.005 C 
ATOM      5  C   UNL     1      -0.806   1.456   1.271  0.00  0.00    -0.011 C 
ATOM      6  C   UNL     1      -0.024   1.091   0.008  0.00  0.00    +0.005 C 
ATOM      7  C   UNL     1      -0.841   1.474  -1.227  0.00  0.00    +0.022 C 
BRANCH   2   8
ATOM      8  N   UNL     1      -1.911  -0.725  -1.229  0.00  0.00    -0.323 N 
ATOM      9  H   UNL     1      -1.882  -1.288  -0.284  0.00  0.00    +0.148 HD
BRANCH   8  10
ATOM     10  C   UNL     1      -1.707  -1.362  -2.399  0.00  0.00    +0.137 C 
ATOM     11  S   UNL     1      -1.752  -0.485  -3.869  0.00  0.00    -0.018 S 
BRANCH  10  14
ATOM     12  C   UNL     1      -1.265  -3.325  -3.583  0.00  0.00    +0.285 C 
ATOM     13  O   UNL     1      -1.297  -2.702  -4.628  0.00  0.00    -0.266 OA
ATOM     14  N   UNL     1      -1.468  -2.688  -2.412  0.00  0.00    -0.261 N 
ATOM     15  H   UNL     1      -1.439  -3.251  -1.468  0.00  0.00    +0.157 HD
BRANCH  12  18
ATOM     16  C   UNL     1      -0.581  -6.845  -4.258  0.00  0.00    +0.042 A 
ATOM     17  C   UNL     1      -0.783  -5.531  -4.707  0.00  0.00    +0.054 A 
ATOM     18  C   UNL     1      -1.005  -4.767  -3.597  0.00  0.00    +0.189 A 
ATOM     19  O   UNL     1      -0.937  -5.571  -2.516  0.00  0.00    -0.458 OA
ATOM     20  C   UNL     1      -0.687  -6.826  -2.911  0.00  0.00    +0.196 A 
ENDBRANCH  12  18
ENDBRANCH  10  14
ENDBRANCH   8  10
ENDBRANCH   2   8
ENDBRANCH   1   5
BRANCH   1  21
ATOM     21  C   UNL     1      -0.705   1.566   3.765  0.00  0.00    -0.011 C 
ATOM     22  C   UNL     1      -0.726   3.096   3.774  0.00  0.00    +0.005 C 
ATOM     23  C   UNL     1      -1.442   3.589   5.032  0.00  0.00    +0.022 C 
ATOM     24  C   UNL     1      -0.702   3.082   6.272  0.00  0.00    +0.072 C 
ATOM     25  C   UNL     1      -0.681   1.552   6.263  0.00  0.00    +0.022 C 
ATOM     26  C   UNL     1       0.035   1.059   5.005  0.00  0.00    +0.005 C 
BRANCH  24  27
ATOM     27  N   UNL     1      -1.388   3.555   7.477  0.00  0.00    -0.323 N 
ATOM     28  H   UNL     1      -2.126   2.911   7.978  0.00  0.00    +0.148 HD
BRANCH  27  29
ATOM     29  C   UNL     1      -1.114   4.778   7.973  0.00  0.00    +0.137 C 
ATOM     30  S   UNL     1       0.036   5.779   7.194  0.00  0.00    -0.018 S 
BRANCH  29  31
ATOM     31  N   UNL     1      -1.744   5.212   9.082  0.00  0.00    -0.261 N 
ATOM     32  C   UNL     1      -1.471   6.436   9.577  0.00  0.00    +0.285 C 
ATOM     33  O   UNL     1      -0.654   7.147   9.023  0.00  0.00    -0.266 OA
ATOM     34  H   UNL     1      -2.483   4.569   9.582  0.00  0.00    +0.157 HD
BRANCH  32  35
ATOM     35  C   UNL     1      -2.156   6.908  10.783  0.00  0.00    +0.189 A 
ATOM     36  C   UNL     1      -1.974   8.120  11.387  0.00  0.00    +0.054 A 
ATOM     37  C   UNL     1      -2.829   8.147  12.500  0.00  0.00    +0.042 A 
ATOM     38  C   UNL     1      -3.487   6.967  12.526  0.00  0.00    +0.196 A 
ATOM     39  O   UNL     1      -3.083   6.226  11.487  0.00  0.00    -0.458 OA
ENDBRANCH  32  35
ENDBRANCH  29  31
ENDBRANCH  27  29
ENDBRANCH  24  27
ENDBRANCH   1  21
TORSDOF 10
