REMARK  Name = ZINC06553060
REMARK  9 active torsions:
REMARK  status: ('A' for Active; 'I' for Inactive)
REMARK    1  A    between atoms: C_1  and  C_2
REMARK    2  A    between atoms: C_2  and  O_3
REMARK    3  A    between atoms: O_3  and  C_4
REMARK    4  A    between atoms: C_6  and  C_11
REMARK    5  A    between atoms: C_9  and  O_10
REMARK    6  A    between atoms: C_13  and  C_25
REMARK    7  A    between atoms: C_15  and  C_20
REMARK    8  A    between atoms: C_15  and  O_24
REMARK    9  A    between atoms: C_25  and  C_27
REMARK                            x       y       z     vdW  Elec       q    Type
REMARK                         _______ _______ _______ _____ _____    ______ ____
ROOT
ATOM      1  C   UNL     1      -0.231  -4.959   0.473  0.00  0.00    +0.120 C 
ATOM      2  C   UNL     1      -1.635  -5.398   0.046  0.00  0.00    +0.144 C 
ATOM      3  C   UNL     1      -2.149  -6.436   1.051  0.00  0.00    +0.243 C 
ATOM      4  N   UNL     1      -1.188  -7.536   1.138  0.00  0.00    -0.264 N 
ATOM      5  C   UNL     1       0.120  -7.340   0.916  0.00  0.00    +0.302 C 
ATOM      6  O   UNL     1       0.878  -8.286   1.012  0.00  0.00    -0.253 OA
ATOM      7  N   UNL     1       0.627  -6.139   0.593  0.00  0.00    -0.292 N 
ATOM      8  H   UNL     1      -1.503  -8.426   1.361  0.00  0.00    +0.153 HD
ATOM      9  H   UNL     1       1.580  -6.052   0.435  0.00  0.00    +0.151 HD
ENDROOT
BRANCH   1  12
ATOM     10  C   UNL     1       0.656  -1.801  -1.401  0.00  0.00    +0.162 A 
ATOM     11  C   UNL     1       0.131  -2.662  -0.451  0.00  0.00    +0.055 A 
ATOM     12  C   UNL     1       0.341  -4.024  -0.561  0.00  0.00    -0.023 A 
ATOM     13  C   UNL     1       1.074  -4.530  -1.618  0.00  0.00    +0.009 A 
ATOM     14  C   UNL     1       1.601  -3.676  -2.569  0.00  0.00    +0.049 A 
ATOM     15  C   UNL     1       1.389  -2.311  -2.468  0.00  0.00    +0.158 A 
BRANCH  15  16
ATOM     16  O   UNL     1       1.902  -1.470  -3.406  0.00  0.00    -0.503 OA
ATOM     17  H   UNL     1       2.792  -1.151  -3.204  0.00  0.00    +0.292 HD
ENDBRANCH  15  16
BRANCH  10  18
ATOM     18  O   UNL     1       0.450  -0.461  -1.294  0.00  0.00    -0.489 OA
BRANCH  18  20
ATOM     19  C   UNL     1      -0.437   1.515  -0.222  0.00  0.00    +0.048 C 
ATOM     20  C   UNL     1      -0.312  -0.009  -0.172  0.00  0.00    +0.226 C 
ENDBRANCH  18  20
ENDBRANCH  10  18
ENDBRANCH   1  12
BRANCH   3  21
ATOM     21  C   UNL     1      -2.304  -5.782   2.426  0.00  0.00    +0.436 C 
ATOM     22  F   UNL     1      -3.218  -4.726   2.339  0.00  0.00    -0.166 F 
ATOM     23  F   UNL     1      -2.773  -6.730   3.342  0.00  0.00    -0.166 F 
ATOM     24  F   UNL     1      -1.065  -5.294   2.853  0.00  0.00    -0.166 F 
ENDBRANCH   3  21
BRANCH   3  25
ATOM     25  O   UNL     1      -3.413  -6.939   0.614  0.00  0.00    -0.364 OA
ATOM     26  H   UNL     1      -3.797  -7.601   1.204  0.00  0.00    +0.212 HD
ENDBRANCH   3  25
BRANCH   2  27
ATOM     27  C   UNL     1      -1.579  -6.007  -1.331  0.00  0.00    +0.173 C 
ATOM     28  O   UNL     1      -0.615  -6.663  -1.665  0.00  0.00    -0.292 OA
BRANCH  27  29
ATOM     29  C   UNL     1      -2.692  -5.806  -2.271  0.00  0.00    +0.018 A 
ATOM     30  C   UNL     1      -3.803  -5.045  -1.891  0.00  0.00    +0.013 A 
ATOM     31  C   UNL     1      -4.842  -4.860  -2.777  0.00  0.00    +0.020 A 
ATOM     32  C   UNL     1      -4.789  -5.426  -4.041  0.00  0.00    +0.041 A 
ATOM     33  C   UNL     1      -3.692  -6.181  -4.423  0.00  0.00    +0.020 A 
ATOM     34  C   UNL     1      -2.643  -6.370  -3.550  0.00  0.00    +0.013 A 
ATOM     35 CL   UNL     1      -6.104  -5.189  -5.149  0.00  0.00    -0.084 Cl
ENDBRANCH  27  29
ENDBRANCH   2  27
TORSDOF 8
