REMARK  Name = ZINC04222301
REMARK  11 active torsions:
REMARK  status: ('A' for Active; 'I' for Inactive)
REMARK    1  A    between atoms: C_1  and  C_2
REMARK    2  A    between atoms: C_2  and  C_3
REMARK    3  A    between atoms: C_2  and  N_4
REMARK    4  A    between atoms: C_5  and  C_7
REMARK    5  A    between atoms: C_7  and  C_8
REMARK    6  A    between atoms: C_16  and  C_18
REMARK    7  A    between atoms: C_27  and  C_37
REMARK    8  A    between atoms: C_30  and  O_36
REMARK    9  A    between atoms: C_32  and  C_33
REMARK   10  A    between atoms: C_32  and  C_34
REMARK   11  A    between atoms: C_34  and  O_35
REMARK                            x       y       z     vdW  Elec       q    Type
REMARK                         _______ _______ _______ _____ _____    ______ ____
ROOT
ATOM      1  C   UNL     1      -0.941  -0.450   0.180  0.00  0.00    +0.054 C 
ATOM      2  C   UNL     1       0.353   0.338   0.041  0.00  0.00    +0.058 A 
ATOM      3  C   UNL     1       1.545  -0.311   0.002  0.00  0.00    +0.015 A 
ATOM      4  S   UNL     1       2.707   1.019  -0.155  0.00  0.00    -0.057 S 
ATOM      5  C   UNL     1       1.548   2.315  -0.159  0.00  0.00    +0.165 A 
ATOM      6  N   UNL     1       0.408   1.665  -0.045  0.00  0.00    -0.229 NA
ATOM      7  N   UNL     1       1.767   3.684  -0.257  0.00  0.00    -0.264 N 
ATOM      8  C   UNL     1       3.024   4.158  -0.367  0.00  0.00    +0.222 C 
ATOM      9  O   UNL     1       3.963   3.391  -0.381  0.00  0.00    -0.275 OA
ATOM     10  C   UNL     1       1.785  -1.777   0.073  0.00  0.00    +0.049 C 
ATOM     11  C   UNL     1       0.501  -2.472   0.566  0.00  0.00    +0.011 C 
ATOM     12  C   UNL     1      -0.695  -1.914  -0.208  0.00  0.00    -0.019 C 
ATOM     13  C   UNL     1      -1.963  -2.700   0.144  0.00  0.00    +0.010 C 
ATOM     14  C   UNL     1      -1.774  -4.183  -0.171  0.00  0.00    +0.032 C 
ATOM     15  C   UNL     1      -0.613  -4.721   0.670  0.00  0.00    +0.123 C 
ATOM     16  C   UNL     1       0.661  -3.970   0.286  0.00  0.00    +0.021 C 
ATOM     17  C   UNL     1       1.836  -4.515   1.100  0.00  0.00    +0.016 C 
ATOM     18  C   UNL     1      -0.428  -2.018  -1.710  0.00  0.00    +0.012 C 
ATOM     19  H   UNL     1       1.016   4.298  -0.246  0.00  0.00    +0.157 HD
ENDROOT
BRANCH   8  20
ATOM     20  C   UNL     1       3.262   5.643  -0.474  0.00  0.00    +0.075 C 
ATOM     21  C   UNL     1       2.552   6.185  -1.716  0.00  0.00    +0.013 C 
ATOM     22  C   UNL     1       2.794   7.692  -1.825  0.00  0.00    +0.001 C 
ATOM     23  C   UNL     1       4.295   7.960  -1.938  0.00  0.00    +0.000 C 
ATOM     24  C   UNL     1       5.006   7.418  -0.696  0.00  0.00    +0.001 C 
ATOM     25  C   UNL     1       4.764   5.911  -0.588  0.00  0.00    +0.013 C 
ENDBRANCH   8  20
BRANCH  15  26
ATOM     26  O   UNL     1      -0.442  -6.116   0.414  0.00  0.00    -0.391 OA
ATOM     27  H   UNL     1      -1.218  -6.653   0.625  0.00  0.00    +0.210 HD
ENDBRANCH  15  26
BRANCH   1  28
ATOM     28  C   UNL     1      -2.004   0.150  -0.742  0.00  0.00    +0.106 C 
BRANCH  28  30
ATOM     29  N   UNL     1      -3.320   2.239  -0.898  0.00  0.00    -0.313 N 
ATOM     30  C   UNL     1      -2.392   1.516  -0.239  0.00  0.00    +0.214 C 
ATOM     31  O   UNL     1      -1.869   1.967   0.758  0.00  0.00    -0.276 OA
ATOM     32  H   UNL     1      -3.738   1.879  -1.696  0.00  0.00    +0.149 HD
BRANCH  29  34
ATOM     33  C   UNL     1      -2.715   4.608  -0.951  0.00  0.00    +0.027 C 
ATOM     34  C   UNL     1      -3.697   3.567  -0.410  0.00  0.00    +0.067 C 
ATOM     35  C   UNL     1      -5.111   3.904  -0.887  0.00  0.00    +0.027 C 
ENDBRANCH  29  34
ENDBRANCH  28  30
ENDBRANCH   1  28
BRANCH  16  36
ATOM     36  C   UNL     1       0.941  -4.179  -1.204  0.00  0.00    +0.165 C 
BRANCH  36  37
ATOM     37  O   UNL     1       1.244  -5.555  -1.443  0.00  0.00    -0.394 OA
ATOM     38  H   UNL     1       1.433  -5.761  -2.369  0.00  0.00    +0.209 HD
ENDBRANCH  36  37
ENDBRANCH  16  36
TORSDOF 7
