REMARK  Name = ZINC10521790
REMARK  11 active torsions:
REMARK  status: ('A' for Active; 'I' for Inactive)
REMARK    1  A    between atoms: C_1  and  C_2
REMARK    2  A    between atoms: C_5  and  C_8
REMARK    3  A    between atoms: C_11  and  S_14
REMARK    4  A    between atoms: N_12  and  N_13
REMARK    5  A    between atoms: S_14  and  C_15
REMARK    6  A    between atoms: C_15  and  C_16
REMARK    7  A    between atoms: N_18  and  C_19
REMARK    8  A    between atoms: C_19  and  C_21
REMARK    9  A    between atoms: C_19  and  C_28
REMARK   10  A    between atoms: C_28  and  C_29
REMARK   11  A    between atoms: C_28  and  C_30
REMARK                            x       y       z     vdW  Elec       q    Type
REMARK                         _______ _______ _______ _____ _____    ______ ____
ROOT
ATOM      1  S   UNL     1      -0.367   4.494   6.111  0.00  0.00    -0.075 S 
ENDROOT
BRANCH   1   5
ATOM      2  C   UNL     1      -2.431   6.298   8.895  0.00  0.00    +0.182 A 
ATOM      3  N   UNL     1      -2.919   5.079   8.919  0.00  0.00    -0.127 NA
ATOM      4  N   UNL     1      -2.330   4.354   8.036  0.00  0.00    -0.121 NA
ATOM      5  C   UNL     1      -1.424   5.063   7.401  0.00  0.00    +0.209 A 
ATOM      6  N   UNL     1      -1.459   6.324   7.922  0.00  0.00    -0.224 N 
BRANCH   2  11
ATOM      7  C   UNL     1      -4.053  10.697  12.232  0.00  0.00    +0.044 C 
ATOM      8  C   UNL     1      -3.628   9.545  11.358  0.00  0.00    -0.050 A 
ATOM      9  C   UNL     1      -2.908   9.786  10.202  0.00  0.00    +0.004 A 
ATOM     10  C   UNL     1      -2.515   8.736   9.398  0.00  0.00    +0.012 A 
ATOM     11  C   UNL     1      -2.848   7.428   9.752  0.00  0.00    +0.021 A 
ATOM     12  C   UNL     1      -3.580   7.191  10.917  0.00  0.00    +0.012 A 
ATOM     13  C   UNL     1      -3.961   8.250  11.715  0.00  0.00    +0.004 A 
ENDBRANCH   2  11
BRANCH   6  14
ATOM     14  N   UNL     1      -0.689   7.391   7.554  0.00  0.00    -0.295 N 
ATOM     15  H   UNL     1      -1.171   7.971   6.884  0.00  0.00    +0.163 HD
ATOM     16  H   UNL     1      -0.406   7.928   8.360  0.00  0.00    +0.163 HD
ENDBRANCH   6  14
ENDBRANCH   1   5
BRANCH   1  17
ATOM     17  C   UNL     1      -0.911   2.771   5.997  0.00  0.00    +0.173 C 
BRANCH  17  18
ATOM     18  C   UNL     1      -0.121   2.065   4.925  0.00  0.00    +0.224 C 
ATOM     19  O   UNL     1       0.726   2.667   4.300  0.00  0.00    -0.275 OA
ATOM     20  N   UNL     1      -0.356   0.764   4.661  0.00  0.00    -0.308 N 
ATOM     21  H   UNL     1      -1.033   0.282   5.161  0.00  0.00    +0.149 HD
BRANCH  20  22
ATOM     22  C   UNL     1       0.412   0.078   3.619  0.00  0.00    +0.106 C 
BRANCH  22  23
ATOM     23  C   UNL     1       0.439  -1.401   3.906  0.00  0.00    -0.027 A 
ATOM     24  C   UNL     1      -0.694  -2.032   4.385  0.00  0.00    +0.008 A 
ATOM     25  C   UNL     1      -0.672  -3.390   4.643  0.00  0.00    +0.038 A 
ATOM     26  C   UNL     1       0.489  -4.115   4.435  0.00  0.00    +0.123 A 
ATOM     27  C   UNL     1       1.625  -3.480   3.961  0.00  0.00    +0.038 A 
ATOM     28  C   UNL     1       1.599  -2.124   3.697  0.00  0.00    +0.008 A 
ATOM     29  F   UNL     1       0.513  -5.441   4.693  0.00  0.00    -0.205 F 
ENDBRANCH  22  23
BRANCH  22  30
ATOM     30  C   UNL     1      -0.244   0.321   2.258  0.00  0.00    +0.008 C 
ATOM     31  C   UNL     1       0.557  -0.395   1.170  0.00  0.00    +0.009 C 
ATOM     32  C   UNL     1      -0.272   1.823   1.966  0.00  0.00    +0.009 C 
ENDBRANCH  22  30
ENDBRANCH  20  22
ENDBRANCH  17  18
ENDBRANCH   1  17
TORSDOF 8
