REMARK  Name = ZINC09451770
REMARK  10 active torsions:
REMARK  status: ('A' for Active; 'I' for Inactive)
REMARK    1  A    between atoms: C_1  and  C_2
REMARK    2  A    between atoms: C_5  and  C_8
REMARK    3  A    between atoms: C_10  and  C_14
REMARK    4  A    between atoms: C_17  and  S_20
REMARK    5  A    between atoms: N_18  and  N_19
REMARK    6  A    between atoms: S_20  and  C_21
REMARK    7  A    between atoms: C_21  and  C_22
REMARK    8  A    between atoms: N_24  and  C_25
REMARK    9  A    between atoms: C_28  and  C_32
REMARK   10  A    between atoms: C_29  and  C_31
REMARK                            x       y       z     vdW  Elec       q    Type
REMARK                         _______ _______ _______ _____ _____    ______ ____
ROOT
ATOM      1  C   UNL     1       0.124  -7.601   1.480  0.00  0.00    +0.202 A 
ATOM      2  N   UNL     1       0.125  -7.626   2.792  0.00  0.00    -0.125 NA
ATOM      3  N   UNL     1       0.135  -8.842   3.208  0.00  0.00    -0.120 NA
ATOM      4  C   UNL     1       0.142  -9.668   2.186  0.00  0.00    +0.209 A 
ATOM      5  N   UNL     1       0.130  -8.908   1.051  0.00  0.00    -0.222 N 
ENDROOT
BRANCH   1   8
ATOM      6  C   UNL     1       0.097  -4.252  -0.020  0.00  0.00    +0.066 A 
ATOM      7  C   UNL     1       0.106  -5.063   1.075  0.00  0.00    +0.061 A 
ATOM      8  C   UNL     1       0.112  -6.395   0.623  0.00  0.00    +0.132 A 
ATOM      9  N   UNL     1       0.106  -6.384  -0.695  0.00  0.00    -0.170 NA
ATOM     10  N   UNL     1       0.091  -5.051  -1.125  0.00  0.00    -0.276 N 
ATOM     11  H   UNL     1       0.081  -4.749  -2.047  0.00  0.00    +0.189 HD
BRANCH   6  16
ATOM     12  C   UNL     1       0.056   1.504   0.012  0.00  0.00    +0.044 C 
ATOM     13  C   UNL     1       0.067  -0.003   0.004  0.00  0.00    -0.050 A 
ATOM     14  C   UNL     1       0.062  -0.685  -1.200  0.00  0.00    +0.004 A 
ATOM     15  C   UNL     1       0.071  -2.065  -1.214  0.00  0.00    +0.010 A 
ATOM     16  C   UNL     1       0.087  -2.772  -0.012  0.00  0.00    -0.000 A 
ATOM     17  C   UNL     1       0.093  -2.078   1.198  0.00  0.00    +0.010 A 
ATOM     18  C   UNL     1       0.088  -0.698   1.199  0.00  0.00    +0.004 A 
ENDBRANCH   6  16
ENDBRANCH   1   8
BRANCH   5  19
ATOM     19  N   UNL     1       0.127  -9.353  -0.241  0.00  0.00    -0.295 N 
ATOM     20  H   UNL     1       1.068  -9.465  -0.587  0.00  0.00    +0.163 HD
ATOM     21  H   UNL     1      -0.394 -10.213  -0.326  0.00  0.00    +0.163 HD
ENDBRANCH   5  19
BRANCH   4  22
ATOM     22  S   UNL     1       0.158 -11.428   2.265  0.00  0.00    -0.075 S 
BRANCH  22  23
ATOM     23  C   UNL     1       0.161 -11.788   4.043  0.00  0.00    +0.173 C 
BRANCH  23  24
ATOM     24  C   UNL     1       0.174 -13.280   4.254  0.00  0.00    +0.227 C 
ATOM     25  O   UNL     1       0.180 -14.027   3.299  0.00  0.00    -0.275 OA
ATOM     26  N   UNL     1       0.178 -13.784   5.504  0.00  0.00    -0.285 N 
ATOM     27  H   UNL     1       0.240 -13.188   6.267  0.00  0.00    +0.155 HD
BRANCH  26  28
ATOM     28  C   UNL     1       0.092 -15.166   5.702  0.00  0.00    +0.034 A 
ATOM     29  C   UNL     1      -0.606 -15.672   6.791  0.00  0.00    +0.023 A 
ATOM     30  C   UNL     1      -0.689 -17.037   6.983  0.00  0.00    +0.005 A 
ATOM     31  C   UNL     1      -0.077 -17.900   6.092  0.00  0.00    -0.047 A 
ATOM     32  C   UNL     1       0.619 -17.400   5.008  0.00  0.00    -0.046 A 
ATOM     33  C   UNL     1       0.700 -16.036   4.806  0.00  0.00    +0.027 A 
ATOM     34  C   UNL     1       1.285 -18.344   4.040  0.00  0.00    +0.044 C 
ATOM     35  C   UNL     1      -0.169 -19.389   6.305  0.00  0.00    +0.044 C 
ENDBRANCH  26  28
ENDBRANCH  23  24
ENDBRANCH  22  23
ENDBRANCH   4  22
TORSDOF 7
