REMARK  Name = ZINC57324840
REMARK  14 active torsions:
REMARK  status: ('A' for Active; 'I' for Inactive)
REMARK    1  A    between atoms: C_1  and  C_2
REMARK    2  A    between atoms: C_2  and  O_3
REMARK    3  A    between atoms: O_3  and  C_4
REMARK    4  A    between atoms: C_7  and  C_13
REMARK    5  A    between atoms: C_9  and  N_10
REMARK    6  A    between atoms: C_13  and  O_15
REMARK    7  A    between atoms: O_15  and  C_16
REMARK    8  A    between atoms: C_16  and  C_17
REMARK    9  A    between atoms: C_17  and  S_18
REMARK   10  A    between atoms: S_18  and  C_19
REMARK   11  A    between atoms: C_21  and  C_35
REMARK   12  A    between atoms: C_22  and  N_26
REMARK   13  A    between atoms: C_23  and  C_25
REMARK   14  A    between atoms: C_27  and  C_29
REMARK                            x       y       z     vdW  Elec       q    Type
REMARK                         _______ _______ _______ _____ _____    ______ ____
ROOT
ATOM      1  S   UNL     1       0.004 -10.791   0.116  0.00  0.00    -0.122 S 
ENDROOT
BRANCH   1   2
ATOM      2  C   UNL     1       1.613 -11.504   0.022  0.00  0.00    +0.009 A 
ATOM      3  C   UNL     1       2.675 -10.914   0.696  0.00  0.00    +0.020 A 
ATOM      4  C   UNL     1       3.935 -11.473   0.622  0.00  0.00    -0.028 A 
ATOM      5  C   UNL     1       4.141 -12.626  -0.125  0.00  0.00    +0.040 A 
ATOM      6  C   UNL     1       3.079 -13.216  -0.798  0.00  0.00    -0.028 A 
ATOM      7  C   UNL     1       1.818 -12.661  -0.720  0.00  0.00    +0.020 A 
ATOM      8  C   UNL     1       3.303 -14.467  -1.609  0.00  0.00    +0.046 C 
ATOM      9  C   UNL     1       5.087 -10.833   1.352  0.00  0.00    +0.046 C 
BRANCH   5  10
ATOM     10  N   UNL     1       5.420 -13.192  -0.200  0.00  0.00    -0.281 N 
ATOM     11  C   UNL     1       5.611 -14.474   0.169  0.00  0.00    +0.248 C 
ATOM     12  O   UNL     1       4.661 -15.165   0.483  0.00  0.00    -0.270 OA
ATOM     13  H   UNL     1       6.167 -12.662  -0.517  0.00  0.00    +0.155 HD
BRANCH  11  14
ATOM     14  C   UNL     1       6.976 -15.040   0.193  0.00  0.00    +0.037 A 
ATOM     15  C   UNL     1       8.070 -14.248  -0.161  0.00  0.00    +0.013 A 
ATOM     16  C   UNL     1       9.342 -14.783  -0.137  0.00  0.00    +0.001 A 
ATOM     17  C   UNL     1       9.534 -16.101   0.237  0.00  0.00    +0.000 A 
ATOM     18  C   UNL     1       8.455 -16.892   0.589  0.00  0.00    +0.001 A 
ATOM     19  C   UNL     1       7.178 -16.368   0.575  0.00  0.00    +0.013 A 
ENDBRANCH  11  14
ENDBRANCH   5  10
ENDBRANCH   1   2
BRANCH   1  20
ATOM     20  C   UNL     1       0.232  -9.333   1.171  0.00  0.00    +0.115 C 
BRANCH  20  21
ATOM     21  C   UNL     1      -1.106  -8.610   1.337  0.00  0.00    +0.243 C 
BRANCH  21  22
ATOM     22  O   UNL     1      -0.927  -7.461   2.168  0.00  0.00    -0.460 OA
BRANCH  22  23
ATOM     23  C   UNL     1      -2.018  -6.709   2.415  0.00  0.00    +0.339 C 
ATOM     24  O   UNL     1      -3.091  -7.020   1.938  0.00  0.00    -0.245 OA
BRANCH  23  28
ATOM     25  C   UNL     1      -1.702  -3.253   4.860  0.00  0.00    +0.151 A 
ATOM     26  C   UNL     1      -0.576  -4.028   4.607  0.00  0.00    +0.049 A 
ATOM     27  C   UNL     1      -0.674  -5.149   3.815  0.00  0.00    +0.019 A 
ATOM     28  C   UNL     1      -1.908  -5.509   3.265  0.00  0.00    +0.061 A 
ATOM     29  C   UNL     1      -3.038  -4.727   3.522  0.00  0.00    +0.051 A 
ATOM     30  C   UNL     1      -2.932  -3.609   4.320  0.00  0.00    +0.168 A 
BRANCH  30  31
ATOM     31  N   UNL     1      -4.128  -2.783   4.597  0.00  0.00    +0.060 N 
ATOM     32  O   UNL     1      -5.199  -3.093   4.128  0.00  0.00    -0.126 OA
ATOM     33  O   UNL     1      -4.036  -1.799   5.293  0.00  0.00    -0.126 OA
ENDBRANCH  30  31
BRANCH  25  34
ATOM     34  O   UNL     1      -1.601  -2.148   5.641  0.00  0.00    -0.490 OA
BRANCH  34  36
ATOM     35  C   UNL     1      -0.391  -0.570   7.014  0.00  0.00    +0.048 C 
ATOM     36  C   UNL     1      -0.308  -1.839   6.165  0.00  0.00    +0.226 C 
ENDBRANCH  34  36
ENDBRANCH  25  34
ENDBRANCH  23  28
ENDBRANCH  22  23
ENDBRANCH  21  22
ENDBRANCH  20  21
ENDBRANCH   1  20
TORSDOF 11
