REMARK  Name = ZINC50032472
REMARK  5 active torsions:
REMARK  status: ('A' for Active; 'I' for Inactive)
REMARK    1  A    between atoms: C_1  and  N_2
REMARK    2  A    between atoms: C_3  and  C_5
REMARK    3  A    between atoms: N_11  and  C_12
REMARK    4  A    between atoms: C_14  and  C_20
REMARK    5  A    between atoms: C_15  and  N_19
REMARK                            x       y       z     vdW  Elec       q    Type
REMARK                         _______ _______ _______ _____ _____    ______ ____
ROOT
ATOM      1  C   UNL     1       1.487  -1.731  -3.304  0.00  0.00    +0.067 A 
ATOM      2  C   UNL     1       2.560  -0.873  -3.166  0.00  0.00    +0.043 A 
ATOM      3  C   UNL     1       2.885   0.009  -4.205  0.00  0.00    +0.086 A 
ATOM      4  C   UNL     1       2.115   0.014  -5.380  0.00  0.00    +0.042 A 
ATOM      5  C   UNL     1       1.039  -0.855  -5.503  0.00  0.00    +0.063 A 
ATOM      6  C   UNL     1       0.729  -1.725  -4.475  0.00  0.00    +0.146 A 
ATOM      7  F   UNL     1      -0.316  -2.571  -4.603  0.00  0.00    -0.203 F 
ENDROOT
BRANCH   1  13
ATOM      8  C   UNL     1       0.220  -2.215  -1.210  0.00  0.00    +0.159 C 
ATOM      9  C   UNL     1       0.882  -2.432   0.154  0.00  0.00    +0.032 C 
ATOM     10  C   UNL     1       1.363  -3.881   0.257  0.00  0.00    +0.004 C 
ATOM     11  C   UNL     1       2.402  -4.154  -0.833  0.00  0.00    +0.019 C 
ATOM     12  C   UNL     1       1.757  -3.956  -2.209  0.00  0.00    +0.106 C 
ATOM     13  N   UNL     1       1.161  -2.614  -2.265  0.00  0.00    -0.316 N 
BRANCH   8  16
ATOM     14  C   UNL     1      -1.748   1.066  -1.345  0.00  0.00    +0.128 C 
ATOM     15  N   UNL     1      -1.404  -0.349  -1.187  0.00  0.00    -0.317 N 
ATOM     16  C   UNL     1      -0.134  -0.759  -1.374  0.00  0.00    +0.233 C 
ATOM     17  O   UNL     1       0.724   0.044  -1.673  0.00  0.00    -0.274 OA
ATOM     18  H   UNL     1      -2.091  -0.991  -0.947  0.00  0.00    +0.148 HD
ENDBRANCH   8  16
ENDBRANCH   1  13
BRANCH   4  19
ATOM     19  N   UNL     1       2.429   0.885  -6.416  0.00  0.00    -0.357 N 
ATOM     20  H   UNL     1       3.329   1.238  -6.497  0.00  0.00    +0.142 HD
ATOM     21  H   UNL     1       1.748   1.141  -7.058  0.00  0.00    +0.142 HD
ENDBRANCH   4  19
BRANCH   3  22
ATOM     22  C   UNL     1       4.025   0.925  -4.066  0.00  0.00    +0.388 C 
ATOM     23  O   UNL     1       4.763   0.841  -3.092  0.00  0.00    -0.241 OA
ATOM     24  O   UNL     1       4.237   1.772  -4.923  0.00  0.00    -0.241 OA
ENDBRANCH   3  22
TORSDOF 4
