REMARK  Name = ZINC22616710
REMARK  8 active torsions:
REMARK  status: ('A' for Active; 'I' for Inactive)
REMARK    1  A    between atoms: C_4  and  N_7
REMARK    2  A    between atoms: N_10  and  C_11
REMARK    3  A    between atoms: C_11  and  C_12
REMARK    4  A    between atoms: N_14  and  N_15
REMARK    5  A    between atoms: C_16  and  C_18
REMARK    6  A    between atoms: C_21  and  C_24
REMARK    7  A    between atoms: C_24  and  S_25
REMARK    8  A    between atoms: S_25  and  C_26
REMARK                            x       y       z     vdW  Elec       q    Type
REMARK                         _______ _______ _______ _____ _____    ______ ____
ROOT
ATOM      1  N   UNL     1      -2.798  -6.521   0.611  0.00  0.00    -0.230 N 
ATOM      2  C   UNL     1      -3.804  -7.411   0.726  0.00  0.00    +0.260 C 
ATOM      3  O   UNL     1      -4.956  -7.024   0.759  0.00  0.00    -0.269 OA
ATOM      4  H   UNL     1      -1.755  -6.871   0.581  0.00  0.00    +0.173 HD
ENDROOT
BRANCH   2   5
ATOM      5  C   UNL     1      -3.506  -8.856   0.813  0.00  0.00    +0.038 A 
ATOM      6  C   UNL     1      -2.185  -9.304   0.770  0.00  0.00    +0.013 A 
ATOM      7  C   UNL     1      -1.914 -10.654   0.857  0.00  0.00    +0.005 A 
ATOM      8  C   UNL     1      -2.949 -11.564   0.976  0.00  0.00    -0.037 A 
ATOM      9  C   UNL     1      -4.261 -11.127   1.013  0.00  0.00    +0.005 A 
ATOM     10  C   UNL     1      -4.546  -9.780   0.933  0.00  0.00    +0.013 A 
BRANCH   8  11
ATOM     11  C   UNL     1      -2.646 -13.037   1.065  0.00  0.00    +0.111 C 
BRANCH  11  12
ATOM     12  S   UNL     1      -2.613 -13.749  -0.599  0.00  0.00    -0.094 S 
BRANCH  12  13
ATOM     13  C   UNL     1      -2.248 -15.427  -0.207  0.00  0.00    +0.136 A 
ATOM     14  N   UNL     1      -2.096 -16.449  -1.020  0.00  0.00    -0.233 NA
ATOM     15  C   UNL     1      -1.814 -17.693  -0.575  0.00  0.00    +0.079 A 
ATOM     16  C   UNL     1      -1.627 -18.870  -1.336  0.00  0.00    +0.029 A 
ATOM     17  C   UNL     1      -1.343 -20.063  -0.723  0.00  0.00    +0.002 A 
ATOM     18  C   UNL     1      -1.232 -20.160   0.657  0.00  0.00    +0.001 A 
ATOM     19  C   UNL     1      -1.409 -19.028   1.432  0.00  0.00    +0.017 A 
ATOM     20  C   UNL     1      -1.692 -17.830   0.826  0.00  0.00    +0.040 A 
ATOM     21  S   UNL     1      -1.983 -16.172   1.395  0.00  0.00    -0.061 S 
ENDBRANCH  12  13
ENDBRANCH  11  12
ENDBRANCH   8  11
ENDBRANCH   2   5
BRANCH   1  24
ATOM     22  C   UNL     1      -2.074  -4.262   0.412  0.00  0.00    +0.246 C 
ATOM     23  O   UNL     1      -0.924  -4.648   0.380  0.00  0.00    -0.273 OA
ATOM     24  N   UNL     1      -3.080  -5.152   0.528  0.00  0.00    -0.233 N 
ATOM     25  H   UNL     1      -4.123  -4.802   0.558  0.00  0.00    +0.173 HD
BRANCH  22  26
ATOM     26  C   UNL     1      -2.377  -2.789   0.324  0.00  0.00    +0.203 C 
BRANCH  26  30
ATOM     27  N   UNL     1       0.002  -0.004   0.002  0.00  0.00    -0.269 N 
ATOM     28  C   UNL     1      -1.150  -0.694   0.111  0.00  0.00    +0.304 C 
ATOM     29  O   UNL     1      -2.213  -0.104   0.124  0.00  0.00    -0.252 OA
ATOM     30  N   UNL     1      -1.125  -2.038   0.205  0.00  0.00    -0.291 N 
ATOM     31  H   UNL     1       0.958  -0.541  -0.087  0.00  0.00    +0.156 HD
ATOM     32  H   UNL     1      -0.163  -2.572   0.193  0.00  0.00    +0.151 HD
BRANCH  27  36
ATOM     33  C   UNL     1      -0.057   4.162   0.002  0.00  0.00    +0.000 A 
ATOM     34  C   UNL     1       0.994   3.487   0.596  0.00  0.00    +0.002 A 
ATOM     35  C   UNL     1       1.016   2.106   0.598  0.00  0.00    +0.023 A 
ATOM     36  C   UNL     1      -0.018   1.395   0.002  0.00  0.00    +0.035 A 
ATOM     37  C   UNL     1      -1.068   2.076  -0.598  0.00  0.00    +0.023 A 
ATOM     38  C   UNL     1      -1.087   3.457  -0.592  0.00  0.00    +0.002 A 
ENDBRANCH  27  36
ENDBRANCH  26  30
ENDBRANCH  22  26
ENDBRANCH   1  24
TORSDOF 8
