REMARK  Name = ZINC34802152
REMARK  7 active torsions:
REMARK  status: ('A' for Active; 'I' for Inactive)
REMARK    1  A    between atoms: C_1  and  C_2
REMARK    2  A    between atoms: C_2  and  C_16
REMARK    3  A    between atoms: C_5  and  CA_10
REMARK    4  A    between atoms: C_7  and  C_8
REMARK    5  A    between atoms: C_7  and  C_9
REMARK    6  A    between atoms: CA_10  and  C_12
REMARK    7  A    between atoms: CA_10  and  N_15
REMARK                            x       y       z     vdW  Elec       q    Type
REMARK                         _______ _______ _______ _____ _____    ______ ____
ROOT
ATOM      1  C   UNL     1      -0.513   1.679   0.384  0.00  0.00    +0.023 C 
ATOM      2  C   UNL     1      -0.575   0.164   0.180  0.00  0.00    +0.074 C 
ATOM      3  C   UNL     1      -2.012  -0.343   0.418  0.00  0.00    +0.019 C 
ATOM      4  C   UNL     1      -1.822  -1.712   1.117  0.00  0.00    +0.004 C 
ATOM      5  C   UNL     1      -0.609  -1.456   2.046  0.00  0.00    -0.008 C 
ATOM      6  C   UNL     1       0.318  -0.544   1.215  0.00  0.00    -0.017 C 
ATOM      7  C   UNL     1       0.988   0.489   2.123  0.00  0.00    +0.012 C 
ATOM      8  C   UNL     1       1.380  -1.384   0.504  0.00  0.00    +0.012 C 
ENDROOT
BRANCH   2   9
ATOM      9  C   UNL     1      -0.127  -0.189  -1.215  0.00  0.00    +0.362 C 
ATOM     10  O   UNL     1       0.227   0.691  -1.982  0.00  0.00    -0.246 OA
ATOM     11  O   UNL     1      -0.117  -1.353  -1.576  0.00  0.00    -0.246 OA
ENDBRANCH   2   9
BRANCH   5  12
ATOM     12  CA  UNL     1       0.094  -2.772   2.384  0.00  0.00    +0.044 C 
BRANCH  12  13
ATOM     13  N   UNL     1      -0.898  -3.753   2.844  0.00  0.00    +0.387 N 
ATOM     14  H1  UNL     1      -1.577  -3.912   2.115  0.00  0.00    -0.089 HD
ATOM     15  H2  UNL     1      -0.435  -4.621   3.067  0.00  0.00    -0.089 HD
ATOM     16  H3  UNL     1      -1.364  -3.399   3.666  0.00  0.00    -0.089 HD
ENDBRANCH  12  13
BRANCH  12  17
ATOM     17  C   UNL     1       1.108  -2.534   3.474  0.00  0.00    +0.342 C 
ATOM     18  O   UNL     1       0.874  -2.897   4.614  0.00  0.00    -0.248 OA
ATOM     19  OXT UNL     1       2.162  -1.980   3.215  0.00  0.00    -0.248 OA
ENDBRANCH  12  17
ENDBRANCH   5  12
TORSDOF 4
