REMARK  Name = ZINC12497192
REMARK  7 active torsions:
REMARK  status: ('A' for Active; 'I' for Inactive)
REMARK    1  A    between atoms: C_4  and  N_7
REMARK    2  A    between atoms: C_8  and  C_10
REMARK    3  A    between atoms: C_15  and  N_16
REMARK    4  A    between atoms: N_16  and  C_17
REMARK    5  A    between atoms: C_17  and  N_19
REMARK    6  A    between atoms: C_20  and  C_22
REMARK    7  A    between atoms: C_23  and  C_24
REMARK                            x       y       z     vdW  Elec       q    Type
REMARK                         _______ _______ _______ _____ _____    ______ ____
ROOT
ATOM      1  N   UNL     1       7.321   1.411  -0.151  0.00  0.00    -0.296 N 
ATOM      2  H   UNL     1       6.463   1.861  -0.109  0.00  0.00    +0.154 HD
ENDROOT
BRANCH   1   8
ATOM      3  C   UNL     1       6.483  -0.619  -1.175  0.00  0.00    +0.058 A 
ATOM      4  C   UNL     1       6.543  -2.007  -1.317  0.00  0.00    +0.015 A 
ATOM      5  C   UNL     1       7.483  -2.730  -0.615  0.00  0.00    +0.001 A 
ATOM      6  C   UNL     1       8.363  -2.087   0.242  0.00  0.00    +0.002 A 
ATOM      7  C   UNL     1       8.312  -0.717   0.397  0.00  0.00    +0.024 A 
ATOM      8  C   UNL     1       7.375   0.029  -0.307  0.00  0.00    +0.045 A 
BRANCH   3  10
ATOM      9  N   UNL     1       4.551  -0.472  -2.667  0.00  0.00    -0.281 N 
ATOM     10  C   UNL     1       5.483   0.161  -1.928  0.00  0.00    +0.250 C 
ATOM     11  O   UNL     1       5.500   1.377  -1.883  0.00  0.00    -0.270 OA
ATOM     12  H   UNL     1       4.489  -1.440  -2.643  0.00  0.00    +0.155 HD
BRANCH   9  16
ATOM     13  C   UNL     1       1.935   1.724  -5.051  0.00  0.00    +0.000 A 
ATOM     14  C   UNL     1       1.547   0.494  -4.554  0.00  0.00    +0.002 A 
ATOM     15  C   UNL     1       2.412  -0.237  -3.763  0.00  0.00    +0.023 A 
ATOM     16  C   UNL     1       3.673   0.265  -3.467  0.00  0.00    +0.034 A 
ATOM     17  C   UNL     1       4.059   1.501  -3.969  0.00  0.00    +0.023 A 
ATOM     18  C   UNL     1       3.190   2.227  -4.759  0.00  0.00    +0.002 A 
ENDBRANCH   9  16
ENDBRANCH   3  10
ENDBRANCH   1   8
BRANCH   1  19
ATOM     19  C   UNL     1       8.461   2.124  -0.060  0.00  0.00    +0.141 C 
ATOM     20  S   UNL     1       9.976   1.338  -0.201  0.00  0.00    -0.018 S 
BRANCH  19  21
ATOM     21  N   UNL     1       8.409   3.455   0.142  0.00  0.00    -0.264 N 
ATOM     22  C   UNL     1       9.549   4.168   0.233  0.00  0.00    +0.242 C 
ATOM     23  O   UNL     1      10.626   3.609   0.133  0.00  0.00    -0.270 OA
ATOM     24  H   UNL     1       7.551   3.900   0.222  0.00  0.00    +0.157 HD
BRANCH  22  25
ATOM     25  C   UNL     1       9.493   5.612   0.453  0.00  0.00    +0.068 C 
ATOM     26  C   UNL     1      10.636   6.327   0.544  0.00  0.00    +0.013 C 
BRANCH  26  27
ATOM     27  C   UNL     1      10.580   7.776   0.765  0.00  0.00    -0.017 A 
ATOM     28  C   UNL     1       9.357   8.430   0.882  0.00  0.00    +0.008 A 
ATOM     29  C   UNL     1       9.307   9.801   1.090  0.00  0.00    +0.001 A 
ATOM     30  C   UNL     1      10.438  10.554   1.187  0.00  0.00    +0.008 A 
ATOM     31  C   UNL     1      11.707   9.962   1.078  0.00  0.00    -0.017 A 
ATOM     32  C   UNL     1      11.808   8.564   0.872  0.00  0.00    -0.011 A 
ATOM     33  C   UNL     1      13.070   7.969   0.770  0.00  0.00    +0.009 A 
ATOM     34  C   UNL     1      14.189   8.741   0.876  0.00  0.00    +0.001 A 
ATOM     35  C   UNL     1      14.094  10.114   1.085  0.00  0.00    +0.001 A 
ATOM     36  C   UNL     1      12.882  10.727   1.176  0.00  0.00    +0.008 A 
ENDBRANCH  26  27
ENDBRANCH  22  25
ENDBRANCH  19  21
ENDBRANCH   1  19
TORSDOF 7
