REMARK  Name = ZINC08790397
REMARK  13 active torsions:
REMARK  status: ('A' for Active; 'I' for Inactive)
REMARK    1  A    between atoms: CD1_1  and  CG1_2
REMARK    2  A    between atoms: CG1_2  and  CB_3
REMARK    3  A    between atoms: CB_3  and  CG2_5
REMARK    4  A    between atoms: CB_3  and  CA_6
REMARK    5  A    between atoms: CA_6  and  C_8
REMARK    6  A    between atoms: CA_6  and  N_10
REMARK    7  A    between atoms: C_8  and  O_9
REMARK    8  A    between atoms: C_11  and  CA_13
REMARK    9  A    between atoms: CA_13  and  CB_15
REMARK   10  A    between atoms: CA_13  and  N_16
REMARK   11  A    between atoms: C_17  and  C_19
REMARK   12  A    between atoms: C_21  and  C_34
REMARK   13  A    between atoms: C_21  and  C_35
REMARK                            x       y       z     vdW  Elec       q    Type
REMARK                         _______ _______ _______ _____ _____    ______ ____
ROOT
ATOM      1  N   ALA A   1       0.133   2.723  -4.694  0.00  0.00    -0.303 N 
ATOM      2  C   UNK A   0      -0.105   3.572  -5.713  0.00  0.00    +0.236 C 
ATOM      3  O   UNK A   0      -1.089   4.281  -5.694  0.00  0.00    -0.274 OA
ATOM      4  H   ALA A   1       0.920   2.156  -4.709  0.00  0.00    +0.149 HD
ENDROOT
BRANCH   2   5
ATOM      5  C   UNK A   0       0.851   3.642  -6.875  0.00  0.00    +0.179 C 
ATOM      6  C   UNK A   0       2.094   4.459  -6.447  0.00  0.00    +0.040 C 
ATOM      7  S   UNK A   0       1.938   5.958  -7.514  0.00  0.00    -0.125 S 
ATOM      8  C   UNK A   0       0.176   5.703  -7.993  0.00  0.00    +0.167 C 
ATOM      9  N   UNK A   0       0.150   4.215  -8.026  0.00  0.00    -0.269 N 
ATOM     10  C   UNK A   0      -0.509   3.876  -9.157  0.00  0.00    +0.249 C 
ATOM     11  O   UNK A   0      -1.038   2.801  -9.365  0.00  0.00    -0.270 OA
ATOM     12  C   UNK A   0      -0.491   5.010 -10.101  0.00  0.00    +0.043 A 
ATOM     13  C   UNK A   0      -0.051   6.144  -9.410  0.00  0.00    -0.005 A 
ATOM     14  C   UNK A   0       0.086   7.344 -10.067  0.00  0.00    +0.007 A 
ATOM     15  C   UNK A   0      -0.227   7.437 -11.413  0.00  0.00    +0.000 A 
ATOM     16  C   UNK A   0      -0.676   6.325 -12.101  0.00  0.00    +0.001 A 
ATOM     17  C   UNK A   0      -0.810   5.113 -11.455  0.00  0.00    +0.013 A 
ATOM     18  C   UNK A   0       3.384   3.698  -6.756  0.00  0.00    +0.025 C 
ATOM     19  C   UNK A   0       2.021   4.831  -4.964  0.00  0.00    +0.025 C 
ENDBRANCH   2   5
BRANCH   1  20
ATOM     20  CA  ALA A   1      -0.797   2.654  -3.564  0.00  0.00    +0.156 C 
ATOM     21  CB  ALA A   1      -1.941   1.697  -3.902  0.00  0.00    +0.038 C 
BRANCH  20  23
ATOM     22  N   ALA A   1      -0.727   2.011  -1.176  0.00  0.00    -0.308 N 
ATOM     23  C   ALA A   1      -0.068   2.155  -2.343  0.00  0.00    +0.233 C 
ATOM     24  O   ALA A   1       1.112   1.883  -2.410  0.00  0.00    -0.274 OA
ATOM     25  H   ALA A   1      -1.671   2.229  -1.123  0.00  0.00    +0.149 HD
BRANCH  22  26
ATOM     26  CA  ALA A   1      -0.019   1.526   0.010  0.00  0.00    +0.101 C 
BRANCH  26  27
ATOM     27  CB  ALA A   1      -0.735   2.019   1.269  0.00  0.00    +0.008 C 
ATOM     28  CG2 ALA A   1      -0.756   3.549   1.278  0.00  0.00    +0.009 C 
BRANCH  27  30
ATOM     29  CD1 ALA A   1      -0.778   1.900   3.764  0.00  0.00    +0.004 C 
ATOM     30  CG1 ALA A   1       0.005   1.512   2.509  0.00  0.00    +0.002 C 
ENDBRANCH  27  30
ENDBRANCH  26  27
BRANCH  26  31
ATOM     31  C   ALA A   1       0.002  -0.004   0.002  0.00  0.00    +0.178 C 
BRANCH  31  32
ATOM     32  O   ALA A   1      -1.332  -0.499   0.130  0.00  0.00    -0.393 OA
ATOM     33  H   ALA A   1      -1.395  -1.464   0.132  0.00  0.00    +0.209 HD
ENDBRANCH  31  32
ENDBRANCH  26  31
ENDBRANCH  22  26
ENDBRANCH  20  23
ENDBRANCH   1  20
TORSDOF 8
