REMARK  Name = ZINC14460864
REMARK  4 active torsions:
REMARK  status: ('A' for Active; 'I' for Inactive)
REMARK    1  A    between atoms: C_1  and  C_2
REMARK    2  A    between atoms: C_4  and  N_26
REMARK    3  A    between atoms: C_9  and  C_18
REMARK    4  A    between atoms: C_23  and  O_24
REMARK                            x       y       z     vdW  Elec       q    Type
REMARK                         _______ _______ _______ _____ _____    ______ ____
ROOT
ATOM      1  C   UNL     1      -0.194   4.242  -0.373  0.00  0.00    +0.046 C 
ATOM      2  C   UNL     1       1.130   3.534  -0.238  0.00  0.00    -0.027 A 
ATOM      3  C   UNL     1       2.297   4.266  -0.252  0.00  0.00    +0.038 A 
ATOM      4  C   UNL     1       3.519   3.631  -0.128  0.00  0.00    +0.127 A 
ATOM      5  C   UNL     1       3.564   2.256   0.002  0.00  0.00    +0.038 A 
ATOM      6  C   UNL     1       2.401   1.515   0.009  0.00  0.00    -0.017 A 
ATOM      7  C   UNL     1       1.159   2.146  -0.099  0.00  0.00    +0.034 A 
ATOM      8  N   UNL     1      -0.062   1.475  -0.075  0.00  0.00    -0.336 N 
ATOM      9  C   UNL     1      -0.010   0.006  -0.017  0.00  0.00    +0.108 C 
ATOM     10  C   UNL     1       1.130  -0.363   0.909  0.00  0.00    +0.029 C 
ATOM     11  C   UNL     1       2.419   0.041   0.128  0.00  0.00    +0.049 C 
ATOM     12  C   UNL     1       3.491  -0.694   0.842  0.00  0.00    -0.023 C 
ATOM     13  C   UNL     1       2.966  -1.792   1.376  0.00  0.00    -0.030 C 
ATOM     14  C   UNL     1       1.465  -1.850   1.080  0.00  0.00    +0.033 C 
ATOM     15  H   UNL     1      -0.661   1.787  -0.825  0.00  0.00    +0.147 HD
ENDROOT
BRANCH   9  16
ATOM     16  C   UNL     1      -1.308  -0.534   0.526  0.00  0.00    +0.015 A 
ATOM     17  C   UNL     1      -2.071   0.235   1.383  0.00  0.00    +0.024 A 
ATOM     18  C   UNL     1      -3.263  -0.260   1.882  0.00  0.00    +0.018 A 
ATOM     19  C   UNL     1      -3.693  -1.525   1.524  0.00  0.00    +0.019 A 
ATOM     20  C   UNL     1      -2.933  -2.297   0.666  0.00  0.00    +0.047 A 
ATOM     21  C   UNL     1      -1.740  -1.800   0.160  0.00  0.00    +0.122 A 
ATOM     22 BR   UNL     1      -4.305   0.794   3.057  0.00  0.00    -0.050 Br
BRANCH  21  23
ATOM     23  O   UNL     1      -0.994  -2.555  -0.688  0.00  0.00    -0.506 OA
ATOM     24  H   UNL     1      -0.406  -3.181  -0.243  0.00  0.00    +0.292 HD
ENDBRANCH  21  23
ENDBRANCH   9  16
BRANCH   4  25
ATOM     25  N   UNL     1       4.771   4.420  -0.135  0.00  0.00    +0.056 N 
ATOM     26  O   UNL     1       5.846   3.857  -0.026  0.00  0.00    -0.126 OA
ATOM     27  O   UNL     1       4.728   5.631  -0.250  0.00  0.00    -0.126 OA
ENDBRANCH   4  25
TORSDOF 3
