REMARK  Name = ZINC36650229
REMARK  7 active torsions:
REMARK  status: ('A' for Active; 'I' for Inactive)
REMARK    1  A    between atoms: C_1  and  C_2
REMARK    2  A    between atoms: C_2  and  C_3
REMARK    3  A    between atoms: C_2  and  C_4
REMARK    4  A    between atoms: C_4  and  C_6
REMARK    5  A    between atoms: C_4  and  N_21
REMARK    6  A    between atoms: N_8  and  C_9
REMARK    7  A    between atoms: C_22  and  C_24
REMARK                            x       y       z     vdW  Elec       q    Type
REMARK                         _______ _______ _______ _____ _____    ______ ____
ROOT
ATOM      1  C   UNL     1      -2.031   0.003  -1.288  0.00  0.00    +0.238 C 
ATOM      2  O   UNL     1      -2.932   0.815  -1.278  0.00  0.00    -0.273 OA
ATOM      3  N   UNL     1      -1.635  -0.549  -2.452  0.00  0.00    -0.284 N 
ATOM      4  H   UNL     1      -0.866  -1.139  -2.472  0.00  0.00    +0.155 HD
ENDROOT
BRANCH   3   5
ATOM      5  C   UNL     1      -2.334  -0.269  -3.634  0.00  0.00    +0.036 A 
ATOM      6  C   UNL     1      -1.654  -0.209  -4.845  0.00  0.00    +0.025 A 
ATOM      7  C   UNL     1      -2.337   0.066  -6.012  0.00  0.00    +0.029 A 
ATOM      8  C   UNL     1      -3.706   0.282  -5.978  0.00  0.00    +0.067 A 
ATOM      9  C   UNL     1      -4.392   0.222  -4.764  0.00  0.00    +0.069 A 
ATOM     10  C   UNL     1      -3.704  -0.059  -3.594  0.00  0.00    +0.051 A 
ATOM     11  N   UNL     1      -5.732   0.478  -5.045  0.00  0.00    -0.306 N 
ATOM     12  H   UNL     1      -6.454   0.503  -4.397  0.00  0.00    +0.170 HD
ATOM     13  C   UNL     1      -5.857   0.684  -6.369  0.00  0.00    +0.325 A 
ATOM     14  O   UNL     1      -6.899   0.933  -6.945  0.00  0.00    -0.247 OA
ATOM     15  N   UNL     1      -4.652   0.573  -6.961  0.00  0.00    -0.306 N 
ATOM     16  H   UNL     1      -4.473   0.678  -7.908  0.00  0.00    +0.170 HD
ENDBRANCH   3   5
BRANCH   1  17
ATOM     17  C   UNL     1      -1.355  -0.389   0.000  0.00  0.00    +0.162 C 
BRANCH  17  18
ATOM     18  N   UNL     1      -1.962   0.345   1.113  0.00  0.00    -0.300 N 
ATOM     19  C   UNL     1      -1.910  -0.161   2.361  0.00  0.00    +0.245 C 
ATOM     20  O   UNL     1      -1.359  -1.225   2.564  0.00  0.00    -0.270 OA
ATOM     21  H   UNL     1      -2.402   1.194   0.952  0.00  0.00    +0.150 HD
BRANCH  19  22
ATOM     22  C   UNL     1      -2.523   0.579   3.484  0.00  0.00    +0.037 A 
ATOM     23  C   UNL     1      -3.162   1.799   3.254  0.00  0.00    +0.014 A 
ATOM     24  C   UNL     1      -3.732   2.485   4.306  0.00  0.00    +0.021 A 
ATOM     25  C   UNL     1      -3.672   1.966   5.589  0.00  0.00    +0.041 A 
ATOM     26  C   UNL     1      -3.040   0.755   5.823  0.00  0.00    +0.021 A 
ATOM     27  C   UNL     1      -2.471   0.058   4.779  0.00  0.00    +0.014 A 
ATOM     28 CL   UNL     1      -4.391   2.835   6.908  0.00  0.00    -0.084 Cl
ENDBRANCH  19  22
ENDBRANCH  17  18
BRANCH  17  30
ATOM     29  C   UNL     1       0.307   1.468  -0.185  0.00  0.00    +0.009 C 
ATOM     30  C   UNL     1       0.135  -0.049  -0.082  0.00  0.00    +0.012 C 
ATOM     31  C   UNL     1       0.844  -0.559   1.174  0.00  0.00    +0.009 C 
ENDBRANCH  17  30
ENDBRANCH   1  17
TORSDOF 5
