REMARK  Name = ZINC36610322
REMARK  9 active torsions:
REMARK  status: ('A' for Active; 'I' for Inactive)
REMARK    1  A    between atoms: C_4  and  N_7
REMARK    2  A    between atoms: N_7  and  C_8
REMARK    3  A    between atoms: C_8  and  C_10
REMARK    4  A    between atoms: C_8  and  C_17
REMARK    5  A    between atoms: C_15  and  O_16
REMARK    6  A    between atoms: N_19  and  C_20
REMARK    7  A    between atoms: C_26  and  C_28
REMARK    8  A    between atoms: C_32  and  O_35
REMARK    9  A    between atoms: C_33  and  O_34
REMARK                            x       y       z     vdW  Elec       q    Type
REMARK                         _______ _______ _______ _____ _____    ______ ____
ROOT
ATOM      1  N   UNL     1       3.133  -0.526  -0.625  0.00  0.00    -0.251 N 
ATOM      2  C   UNL     1       3.247   0.346   0.396  0.00  0.00    +0.255 C 
ATOM      3  O   UNL     1       2.263   0.926   0.813  0.00  0.00    -0.269 OA
ENDROOT
BRANCH   1   7
ATOM      4  C   UNL     1      -0.440  -0.787  -2.751  0.00  0.00    +0.000 A 
ATOM      5  C   UNL     1      -0.161  -1.705  -1.755  0.00  0.00    +0.002 A 
ATOM      6  C   UNL     1       1.022  -1.621  -1.048  0.00  0.00    +0.023 A 
ATOM      7  C   UNL     1       1.933  -0.614  -1.339  0.00  0.00    +0.038 A 
ATOM      8  C   UNL     1       1.651   0.307  -2.340  0.00  0.00    +0.023 A 
ATOM      9  C   UNL     1       0.465   0.218  -3.043  0.00  0.00    +0.002 A 
ENDBRANCH   1   7
BRANCH   2  10
ATOM     10  C   UNL     1       4.566   0.598   1.007  0.00  0.00    +0.082 A 
ATOM     11  C   UNL     1       5.479  -0.449   1.165  0.00  0.00    +0.017 A 
ATOM     12  C   UNL     1       6.709  -0.210   1.736  0.00  0.00    +0.005 A 
ATOM     13  C   UNL     1       7.050   1.065   2.156  0.00  0.00    +0.049 A 
ATOM     14  C   UNL     1       6.157   2.113   2.006  0.00  0.00    +0.159 A 
ATOM     15  C   UNL     1       4.912   1.888   1.426  0.00  0.00    +0.171 A 
BRANCH  15  16
ATOM     16  O   UNL     1       4.036   2.914   1.272  0.00  0.00    -0.503 OA
ATOM     17  H   UNL     1       3.445   3.042   2.026  0.00  0.00    +0.292 HD
ENDBRANCH  15  16
BRANCH  14  18
ATOM     18  O   UNL     1       6.499   3.362   2.421  0.00  0.00    -0.503 OA
ATOM     19  H   UNL     1       6.935   3.896   1.743  0.00  0.00    +0.292 HD
ENDBRANCH  14  18
ENDBRANCH   2  10
BRANCH   1  20
ATOM     20  C   UNL     1       4.265  -1.383  -0.987  0.00  0.00    +0.201 C 
BRANCH  20  21
ATOM     21  C   UNL     1       4.210  -2.655  -0.181  0.00  0.00    +0.024 A 
ATOM     22  C   UNL     1       3.142  -2.893   0.663  0.00  0.00    +0.009 A 
ATOM     23  C   UNL     1       3.091  -4.059   1.403  0.00  0.00    +0.001 A 
ATOM     24  C   UNL     1       4.108  -4.991   1.300  0.00  0.00    +0.004 A 
ATOM     25  C   UNL     1       5.177  -4.758   0.457  0.00  0.00    +0.046 A 
ATOM     26  C   UNL     1       5.228  -3.591  -0.290  0.00  0.00    +0.122 A 
BRANCH  26  27
ATOM     27  O   UNL     1       6.276  -3.361  -1.125  0.00  0.00    -0.506 OA
ATOM     28  H   UNL     1       7.016  -2.897  -0.709  0.00  0.00    +0.292 HD
ENDBRANCH  26  27
ENDBRANCH  20  21
BRANCH  20  29
ATOM     29  C   UNL     1       4.195  -1.715  -2.455  0.00  0.00    +0.239 C 
ATOM     30  O   UNL     1       3.668  -0.941  -3.227  0.00  0.00    -0.273 OA
ATOM     31  N   UNL     1       4.717  -2.871  -2.910  0.00  0.00    -0.311 N 
ATOM     32  H   UNL     1       5.138  -3.489  -2.293  0.00  0.00    +0.149 HD
BRANCH  31  33
ATOM     33  C   UNL     1       4.649  -3.193  -4.338  0.00  0.00    +0.073 C 
ATOM     34  C   UNL     1       3.302  -3.850  -4.648  0.00  0.00    +0.022 C 
ATOM     35  C   UNL     1       3.231  -4.187  -6.139  0.00  0.00    +0.002 C 
ATOM     36  C   UNL     1       4.363  -5.151  -6.499  0.00  0.00    +0.000 C 
ATOM     37  C   UNL     1       5.709  -4.495  -6.188  0.00  0.00    +0.002 C 
ATOM     38  C   UNL     1       5.781  -4.158  -4.697  0.00  0.00    +0.022 C 
ENDBRANCH  31  33
ENDBRANCH  20  29
ENDBRANCH   1  20
TORSDOF 9
