REMARK  Name = ZINC39362336
REMARK  11 active torsions:
REMARK  status: ('A' for Active; 'I' for Inactive)
REMARK    1  A    between atoms: C_1  and  O_2
REMARK    2  A    between atoms: O_2  and  C_3
REMARK    3  A    between atoms: C_6  and  N_9
REMARK    4  A    between atoms: C_10  and  C_12
REMARK    5  A    between atoms: C_12  and  S_13
REMARK    6  A    between atoms: S_13  and  C_14
REMARK    7  A    between atoms: C_17  and  C_28
REMARK    8  A    between atoms: N_19  and  C_20
REMARK    9  A    between atoms: C_23  and  O_26
REMARK   10  A    between atoms: O_26  and  C_27
REMARK   11  A    between atoms: C_28  and  C_29
REMARK                            x       y       z     vdW  Elec       q    Type
REMARK                         _______ _______ _______ _____ _____    ______ ____
ROOT
ATOM      1  C   UNL     1       4.320  -6.870  -6.543  0.00  0.00    +0.180 C 
ATOM      2  N   UNL     1       4.831  -6.125  -7.465  0.00  0.00    -0.162 NA
ATOM      3  N   UNL     1       5.472  -6.891  -8.446  0.00  0.00    -0.246 N 
ATOM      4  C   UNL     1       5.313  -8.298  -8.037  0.00  0.00    +0.187 C 
ATOM      5  N   UNL     1       4.554  -8.217  -6.778  0.00  0.00    -0.258 N 
ATOM      6  H   UNL     1       5.929  -6.562  -9.236  0.00  0.00    +0.170 HD
ENDROOT
BRANCH   5   7
ATOM      7  C   UNL     1       4.145  -9.289  -5.977  0.00  0.00    +0.038 A 
ATOM      8  C   UNL     1       5.090 -10.058  -5.310  0.00  0.00    +0.027 A 
ATOM      9  C   UNL     1       4.685 -11.116  -4.519  0.00  0.00    +0.047 A 
ATOM     10  C   UNL     1       3.336 -11.410  -4.391  0.00  0.00    +0.120 A 
ATOM     11  C   UNL     1       2.392 -10.643  -5.058  0.00  0.00    +0.047 A 
ATOM     12  C   UNL     1       2.794  -9.581  -5.844  0.00  0.00    +0.027 A 
BRANCH  10  13
ATOM     13  O   UNL     1       2.939 -12.452  -3.612  0.00  0.00    -0.495 OA
ATOM     14  C   UNL     1       1.534 -12.698  -3.526  0.00  0.00    +0.277 C 
ENDBRANCH  10  13
ENDBRANCH   5   7
BRANCH   1  15
ATOM     15  S   UNL     1       3.438  -6.249  -5.149  0.00  0.00    -0.079 S 
BRANCH  15  16
ATOM     16  C   UNL     1       3.457  -4.450  -5.384  0.00  0.00    +0.173 C 
BRANCH  16  18
ATOM     17  N   UNL     1       2.611  -2.445  -4.207  0.00  0.00    -0.285 N 
ATOM     18  C   UNL     1       2.725  -3.788  -4.245  0.00  0.00    +0.227 C 
ATOM     19  O   UNL     1       2.240  -4.463  -3.362  0.00  0.00    -0.275 OA
ATOM     20  H   UNL     1       2.933  -1.910  -4.950  0.00  0.00    +0.155 HD
BRANCH  17  24
ATOM     21  C   UNL     1       0.872  -0.592  -0.901  0.00  0.00    +0.120 A 
ATOM     22  C   UNL     1       1.606  -1.758  -0.737  0.00  0.00    +0.047 A 
ATOM     23  C   UNL     1       2.182  -2.372  -1.831  0.00  0.00    +0.027 A 
ATOM     24  C   UNL     1       2.026  -1.823  -3.097  0.00  0.00    +0.034 A 
ATOM     25  C   UNL     1       1.292  -0.656  -3.261  0.00  0.00    +0.027 A 
ATOM     26  C   UNL     1       0.712  -0.046  -2.167  0.00  0.00    +0.047 A 
BRANCH  21  28
ATOM     27  C   UNL     1       0.512  -0.604   1.449  0.00  0.00    +0.277 C 
ATOM     28  O   UNL     1       0.306   0.013   0.177  0.00  0.00    -0.495 OA
ENDBRANCH  21  28
ENDBRANCH  17  24
ENDBRANCH  16  18
ENDBRANCH  15  16
ENDBRANCH   1  15
BRANCH   4  29
ATOM     29  C   UNL     1       4.532  -9.080  -9.095  0.00  0.00    +0.097 C 
BRANCH  29  30
ATOM     30  C   UNL     1       5.348  -9.167 -10.359  0.00  0.00    +0.029 A 
ATOM     31  N   UNL     1       5.314  -8.147 -11.271  0.00  0.00    -0.311 N 
ATOM     32  C   UNL     1       6.039  -8.216 -12.402  0.00  0.00    +0.327 A 
ATOM     33  O   UNL     1       5.995  -7.298 -13.199  0.00  0.00    -0.247 OA
ATOM     34  N   UNL     1       6.814  -9.285 -12.665  0.00  0.00    -0.275 N 
ATOM     35  C   UNL     1       6.874 -10.311 -11.792  0.00  0.00    +0.254 A 
ATOM     36  O   UNL     1       7.574 -11.278 -12.028  0.00  0.00    -0.268 OA
ATOM     37  C   UNL     1       6.120 -10.250 -10.595  0.00  0.00    +0.091 A 
ATOM     38  H   UNL     1       7.330  -9.318 -13.485  0.00  0.00    +0.173 HD
ATOM     39  H   UNL     1       4.763  -7.368 -11.100  0.00  0.00    +0.170 HD
ENDBRANCH  29  30
ENDBRANCH   4  29
TORSDOF 9
