REMARK  Name = ZINC36507254
REMARK  16 active torsions:
REMARK  status: ('A' for Active; 'I' for Inactive)
REMARK    1  A    between atoms: C_1  and  C_2
REMARK    2  A    between atoms: C_2  and  C_3
REMARK    3  A    between atoms: C_3  and  C_4
REMARK    4  A    between atoms: C_4  and  C_5
REMARK    5  A    between atoms: N_7  and  C_8
REMARK    6  A    between atoms: N_7  and  C_14
REMARK    7  A    between atoms: C_8  and  C_9
REMARK    8  A    between atoms: C_14  and  C_16
REMARK    9  A    between atoms: C_14  and  C_25
REMARK   10  A    between atoms: C_17  and  O_24
REMARK   11  A    between atoms: C_19  and  O_23
REMARK   12  A    between atoms: C_21  and  O_22
REMARK   13  A    between atoms: N_27  and  C_28
REMARK   14  A    between atoms: C_28  and  C_29
REMARK   15  A    between atoms: C_28  and  C_30
REMARK   16  A    between atoms: C_28  and  C_31
REMARK                            x       y       z     vdW  Elec       q    Type
REMARK                         _______ _______ _______ _____ _____    ______ ____
ROOT
ATOM      1  C   UNL     1      -4.410  -4.146  -0.184  0.00  0.00    +0.200 C 
ENDROOT
BRANCH   1   2
ATOM      2  C   UNL     1      -3.933  -5.220   0.759  0.00  0.00    +0.065 A 
ATOM      3  C   UNL     1      -2.777  -5.931   0.472  0.00  0.00    +0.129 A 
ATOM      4  C   UNL     1      -2.338  -6.920   1.339  0.00  0.00    +0.091 A 
ATOM      5  C   UNL     1      -3.054  -7.198   2.494  0.00  0.00    +0.124 A 
ATOM      6  C   UNL     1      -4.209  -6.486   2.781  0.00  0.00    +0.091 A 
ATOM      7  C   UNL     1      -4.646  -5.495   1.916  0.00  0.00    +0.129 A 
BRANCH   7   8
ATOM      8  O   UNL     1      -5.776  -4.795   2.200  0.00  0.00    -0.506 OA
ATOM      9  H   UNL     1      -6.583  -5.190   1.844  0.00  0.00    +0.292 HD
ENDBRANCH   7   8
BRANCH   5  10
ATOM     10  O   UNL     1      -2.624  -8.167   3.343  0.00  0.00    -0.507 OA
ATOM     11  H   UNL     1      -2.022  -7.850   4.030  0.00  0.00    +0.292 HD
ENDBRANCH   5  10
BRANCH   3  12
ATOM     12  O   UNL     1      -2.075  -5.659  -0.659  0.00  0.00    -0.506 OA
ATOM     13  H   UNL     1      -1.338  -5.047  -0.527  0.00  0.00    +0.292 HD
ENDBRANCH   3  12
ENDBRANCH   1   2
BRANCH   1  14
ATOM     14  C   UNL     1      -5.078  -4.783  -1.375  0.00  0.00    +0.239 C 
ATOM     15  O   UNL     1      -4.406  -5.234  -2.278  0.00  0.00    -0.273 OA
ATOM     16  N   UNL     1      -6.423  -4.852  -1.437  0.00  0.00    -0.309 N 
ATOM     17  H   UNL     1      -6.960  -4.492  -0.715  0.00  0.00    +0.149 HD
BRANCH  16  18
ATOM     18  C   UNL     1      -7.072  -5.471  -2.595  0.00  0.00    +0.026 C 
ATOM     19  C   UNL     1      -6.621  -6.929  -2.713  0.00  0.00    +0.031 C 
ATOM     20  C   UNL     1      -8.591  -5.420  -2.416  0.00  0.00    +0.031 C 
ATOM     21  C   UNL     1      -6.682  -4.712  -3.865  0.00  0.00    +0.031 C 
ENDBRANCH  16  18
ENDBRANCH   1  14
BRANCH   1  24
ATOM     22  C   UNL     1      -2.443  -2.782   0.270  0.00  0.00    +0.217 C 
ATOM     23  O   UNL     1      -2.648  -2.933   1.456  0.00  0.00    -0.276 OA
ATOM     24  N   UNL     1      -3.267  -3.348  -0.634  0.00  0.00    -0.278 N 
BRANCH  22  25
ATOM     25  C   UNL     1      -1.267  -1.961  -0.193  0.00  0.00    +0.096 C 
BRANCH  25  26
ATOM     26  C   UNL     1      -0.500  -1.437   1.023  0.00  0.00    +0.009 C 
BRANCH  26  28
ATOM     27  C   UNL     1       1.460  -0.080   1.769  0.00  0.00    +0.004 C 
ATOM     28  C   UNL     1       0.694  -0.604   0.553  0.00  0.00    -0.003 C 
ENDBRANCH  26  28
ENDBRANCH  25  26
ENDBRANCH  22  25
BRANCH  24  29
ATOM     29  C   UNL     1      -3.019  -3.165  -2.066  0.00  0.00    +0.183 C 
BRANCH  29  30
ATOM     30  C   UNL     1      -1.818  -3.978  -2.476  0.00  0.00    +0.122 A 
ATOM     31  C   UNL     1      -1.849  -5.202  -3.032  0.00  0.00    +0.046 A 
ATOM     32  C   UNL     1      -0.507  -5.587  -3.252  0.00  0.00    +0.041 A 
ATOM     33  C   UNL     1       0.265  -4.574  -2.817  0.00  0.00    +0.195 A 
ATOM     34  O   UNL     1      -0.535  -3.600  -2.353  0.00  0.00    -0.466 OA
ENDBRANCH  29  30
ENDBRANCH  24  29
ENDBRANCH   1  24
TORSDOF 12
