REMARK  Name = ZINC44242799
REMARK  5 active torsions:
REMARK  status: ('A' for Active; 'I' for Inactive)
REMARK    1  A    between atoms: C_3  and  N_10
REMARK    2  A    between atoms: C_4  and  C_8
REMARK    3  A    between atoms: C_6  and  N_7
REMARK    4  A    between atoms: N_10  and  S_11
REMARK    5  A    between atoms: S_11  and  C_14
REMARK                            x       y       z     vdW  Elec       q    Type
REMARK                         _______ _______ _______ _____ _____    ______ ____
ROOT
ATOM      1  C   UNL     1      -0.017   1.387   0.010  0.00  0.00    +0.025 A 
ATOM      2  C   UNL     1       1.165   2.100   0.002  0.00  0.00    +0.030 A 
ATOM      3  C   UNL     1       2.382   1.433  -0.013  0.00  0.00    +0.092 A 
ATOM      4  C   UNL     1       2.409   0.030  -0.021  0.00  0.00    +0.078 A 
ATOM      5  C   UNL     1       1.208  -0.684  -0.013  0.00  0.00    +0.043 A 
ATOM      6  C   UNL     1       0.002  -0.004   0.002  0.00  0.00    +0.026 A 
ENDROOT
BRANCH   6   7
ATOM      7  N   UNL     1      -1.202  -0.719   0.010  0.00  0.00    -0.358 N 
ATOM      8  H   UNL     1      -2.048  -0.244   0.020  0.00  0.00    +0.142 HD
ATOM      9  H   UNL     1      -1.190  -1.688   0.004  0.00  0.00    +0.142 HD
ENDBRANCH   6   7
BRANCH   4  10
ATOM     10  C   UNL     1       3.660  -0.666  -0.038  0.00  0.00    +0.101 C 
ATOM     11  N   UNL     1       4.652  -1.218  -0.051  0.00  0.00    -0.191 NA
ENDBRANCH   4  10
BRANCH   3  12
ATOM     12  N   UNL     1       3.574   2.155  -0.022  0.00  0.00    -0.097 NA
BRANCH  12  13
ATOM     13  S   UNL     1       3.540   3.810  -0.013  0.00  0.00    +0.093 S 
ATOM     14  O   UNL     1       2.968   4.211  -1.251  0.00  0.00    -0.148 OA
ATOM     15  O   UNL     1       2.993   4.199   1.240  0.00  0.00    -0.148 OA
BRANCH  13  16
ATOM     16  C   UNL     1       5.212   4.366  -0.027  0.00  0.00    +0.129 A 
ATOM     17  C   UNL     1       5.892   4.576   1.163  0.00  0.00    +0.047 A 
ATOM     18  C   UNL     1       7.207   5.014   1.103  0.00  0.00    +0.038 A 
ATOM     19  C   UNL     1       7.791   5.224  -0.133  0.00  0.00    +0.126 A 
ATOM     20  N   UNL     1       7.113   5.014  -1.244  0.00  0.00    -0.260 NA
ATOM     21  C   UNL     1       5.863   4.593  -1.225  0.00  0.00    +0.139 A 
ATOM     22 BR   UNL     1       8.187   5.319   2.691  0.00  0.00    -0.049 Br
ENDBRANCH  13  16
ENDBRANCH  12  13
ENDBRANCH   3  12
TORSDOF 5
