REMARK  Name = ZINC12679748
REMARK  10 active torsions:
REMARK  status: ('A' for Active; 'I' for Inactive)
REMARK    1  A    between atoms: C_1  and  C_2
REMARK    2  A    between atoms: C_2  and  O_3
REMARK    3  A    between atoms: O_3  and  C_4
REMARK    4  A    between atoms: C_4  and  C_6
REMARK    5  A    between atoms: C_7  and  C_15
REMARK    6  A    between atoms: C_12  and  C_14
REMARK    7  A    between atoms: C_15  and  S_16
REMARK    8  A    between atoms: S_16  and  C_17
REMARK    9  A    between atoms: C_21  and  C_24
REMARK   10  A    between atoms: N_32  and  N_33
REMARK                            x       y       z     vdW  Elec       q    Type
REMARK                         _______ _______ _______ _____ _____    ______ ____
ROOT
ATOM      1  C   UNL     1       0.966   2.107   0.270  0.00  0.00    +0.190 A 
ATOM      2  N   UNL     1       2.203   2.545   0.143  0.00  0.00    -0.215 NA
ATOM      3  C   UNL     1       2.470   3.845   0.152  0.00  0.00    +0.117 A 
ATOM      4  C   UNL     1       1.460   4.813   0.295  0.00  0.00    +0.081 A 
ATOM      5  C   UNL     1       1.926   6.197   0.285  0.00  0.00    +0.004 A 
ATOM      6  C   UNL     1       3.250   6.437   0.142  0.00  0.00    +0.056 A 
ATOM      7  S   UNL     1       3.956   4.806   0.013  0.00  0.00    -0.076 S 
ATOM      8  C   UNL     1       0.130   4.310   0.432  0.00  0.00    +0.280 A 
ATOM      9  O   UNL     1      -0.809   5.076   0.561  0.00  0.00    -0.265 OA
ATOM     10  N   UNL     1      -0.074   2.980   0.408  0.00  0.00    -0.209 N 
ENDROOT
BRANCH   5  11
ATOM     11  C   UNL     1       0.966   7.317   0.427  0.00  0.00    -0.017 A 
ATOM     12  C   UNL     1      -0.172   7.370  -0.377  0.00  0.00    +0.008 A 
ATOM     13  C   UNL     1      -1.065   8.413  -0.236  0.00  0.00    +0.001 A 
ATOM     14  C   UNL     1      -0.827   9.410   0.693  0.00  0.00    +0.000 A 
ATOM     15  C   UNL     1       0.303   9.365   1.490  0.00  0.00    +0.001 A 
ATOM     16  C   UNL     1       1.200   8.325   1.362  0.00  0.00    +0.008 A 
ENDBRANCH   5  11
BRANCH  10  17
ATOM     17  N   UNL     1      -1.345   2.494   0.531  0.00  0.00    -0.293 N 
ATOM     18  H   UNL     1      -1.351   1.486   0.502  0.00  0.00    +0.163 HD
ATOM     19  H   UNL     1      -1.782   2.834   1.375  0.00  0.00    +0.163 HD
ENDBRANCH  10  17
BRANCH   1  20
ATOM     20  S   UNL     1       0.651   0.374   0.253  0.00  0.00    -0.080 S 
BRANCH  20  21
ATOM     21  C   UNL     1       2.337  -0.250   0.044  0.00  0.00    +0.128 C 
BRANCH  21  23
ATOM     22  C   UNL     1       2.365  -2.388  -1.191  0.00  0.00    +0.074 C 
ATOM     23  C   UNL     1       2.313  -1.756   0.001  0.00  0.00    +0.034 C 
ATOM     24  N   UNL     1       2.246  -2.461   1.169  0.00  0.00    -0.272 N 
ATOM     25  C   UNL     1       2.216  -3.798   1.230  0.00  0.00    +0.304 C 
ATOM     26  O   UNL     1       2.150  -4.336   2.317  0.00  0.00    -0.253 OA
ATOM     27  N   UNL     1       2.260  -4.567   0.124  0.00  0.00    -0.292 N 
ATOM     28  C   UNL     1       2.339  -3.903  -1.189  0.00  0.00    +0.110 C 
ATOM     29  C   UNL     1       1.136  -4.356  -2.019  0.00  0.00    +0.033 C 
ATOM     30  H   UNL     1       2.215  -1.964   2.002  0.00  0.00    +0.156 HD
ATOM     31  H   UNL     1       2.240  -5.534   0.190  0.00  0.00    +0.151 HD
BRANCH  22  32
ATOM     32  C   UNL     1       2.440  -1.660  -2.402  0.00  0.00    +0.338 C 
ATOM     33  O   UNL     1       2.316  -0.450  -2.393  0.00  0.00    -0.245 OA
BRANCH  32  34
ATOM     34  O   UNL     1       2.650  -2.308  -3.567  0.00  0.00    -0.462 OA
BRANCH  34  36
ATOM     35  C   UNL     1       2.956  -2.413  -5.962  0.00  0.00    +0.048 C 
ATOM     36  C   UNL     1       2.715  -1.510  -4.750  0.00  0.00    +0.229 C 
ENDBRANCH  34  36
ENDBRANCH  32  34
ENDBRANCH  22  32
ENDBRANCH  21  23
ENDBRANCH  20  21
ENDBRANCH   1  20
TORSDOF 8
