REMARK  Name = ZINC02256189
REMARK  5 active torsions:
REMARK  status: ('A' for Active; 'I' for Inactive)
REMARK    1  A    between atoms: C_6  and  N_7
REMARK    2  A    between atoms: C_8  and  C_10
REMARK    3  A    between atoms: C_10  and  S_11
REMARK    4  A    between atoms: S_11  and  C_12
REMARK    5  A    between atoms: N_28  and  N_29
REMARK                            x       y       z     vdW  Elec       q    Type
REMARK                         _______ _______ _______ _____ _____    ______ ____
ROOT
ATOM      1  C   UNL     1      -7.219  -0.042  -1.850  0.00  0.00    +0.199 A 
ATOM      2  N   UNL     1      -6.306  -0.059  -2.793  0.00  0.00    -0.122 NA
ATOM      3  N   UNL     1      -5.150   0.227  -2.301  0.00  0.00    -0.128 NA
ATOM      4  C   UNL     1      -5.260   0.442  -1.014  0.00  0.00    +0.174 A 
ATOM      5  N   UNL     1      -6.586   0.277  -0.679  0.00  0.00    -0.240 N 
ATOM      6  C   UNL     1      -7.001   0.440   0.615  0.00  0.00    +0.218 A 
ATOM      7  N   UNL     1      -6.156   0.756   1.567  0.00  0.00    -0.207 NA
ATOM      8  C   UNL     1      -4.858   0.936   1.333  0.00  0.00    +0.116 A 
ATOM      9  C   UNL     1      -4.301   0.800   0.054  0.00  0.00    +0.056 A 
ATOM     10  C   UNL     1      -2.862   1.029  -0.047  0.00  0.00    -0.024 A 
ATOM     11  C   UNL     1      -2.210   1.348   1.093  0.00  0.00    -0.004 A 
ATOM     12  S   UNL     1      -3.463   1.360   2.347  0.00  0.00    -0.073 S 
ATOM     13  C   UNL     1      -0.744   1.628   1.257  0.00  0.00    +0.043 C 
ATOM     14  C   UNL     1      -0.018   1.139  -0.004  0.00  0.00    +0.005 C 
ATOM     15  C   UNL     1      -0.771   1.648  -1.237  0.00  0.00    +0.005 C 
ATOM     16  C   UNL     1      -2.108   0.918  -1.369  0.00  0.00    +0.037 C 
ATOM     17  N   UNL     1      -8.331   0.267   0.923  0.00  0.00    -0.253 N 
ATOM     18  H   UNL     1      -8.964   0.033   0.226  0.00  0.00    +0.169 HD
ENDROOT
BRANCH  17  19
ATOM     19  N   UNL     1      -8.760   0.426   2.210  0.00  0.00    -0.254 NA
ATOM     20  H   UNL     1      -8.511   1.338   2.564  0.00  0.00    +0.140 HD
ATOM     21  H   UNL     1      -9.754   0.269   2.282  0.00  0.00    +0.140 HD
ENDBRANCH  17  19
BRANCH   1  22
ATOM     22  S   UNL     1      -8.938  -0.372  -2.053  0.00  0.00    -0.076 S 
BRANCH  22  23
ATOM     23  C   UNL     1      -9.111  -0.721  -3.825  0.00  0.00    +0.173 C 
BRANCH  23  25
ATOM     24  N   UNL     1     -10.922  -1.315  -5.402  0.00  0.00    -0.285 N 
ATOM     25  C   UNL     1     -10.554  -1.024  -4.138  0.00  0.00    +0.227 C 
ATOM     26  O   UNL     1     -11.383  -1.006  -3.254  0.00  0.00    -0.275 OA
ATOM     27  H   UNL     1     -10.273  -1.264  -6.120  0.00  0.00    +0.155 HD
BRANCH  24  33
ATOM     28  C   UNL     1     -12.507  -2.628  -6.666  0.00  0.00    +0.025 A 
ATOM     29  C   UNL     1     -13.810  -3.001  -6.932  0.00  0.00    +0.022 A 
ATOM     30  C   UNL     1     -14.852  -2.432  -6.221  0.00  0.00    +0.041 A 
ATOM     31  C   UNL     1     -14.592  -1.493  -5.239  0.00  0.00    +0.022 A 
ATOM     32  C   UNL     1     -13.290  -1.121  -4.965  0.00  0.00    +0.025 A 
ATOM     33  C   UNL     1     -12.242  -1.690  -5.677  0.00  0.00    +0.033 A 
ATOM     34 CL   UNL     1     -16.489  -2.897  -6.563  0.00  0.00    -0.084 Cl
ENDBRANCH  24  33
ENDBRANCH  23  25
ENDBRANCH  22  23
ENDBRANCH   1  22
TORSDOF 5
