REMARK  Name = ZINC29566596
REMARK  9 active torsions:
REMARK  status: ('A' for Active; 'I' for Inactive)
REMARK    1  A    between atoms: C_1  and  C_2
REMARK    2  A    between atoms: C_2  and  C_4
REMARK    3  A    between atoms: C_2  and  N_18
REMARK    4  A    between atoms: N_6  and  C_7
REMARK    5  A    between atoms: N_18  and  C_19
REMARK    6  A    between atoms: C_22  and  N_25
REMARK    7  A    between atoms: C_26  and  C_28
REMARK    8  A    between atoms: C_28  and  C_29
REMARK    9  A    between atoms: C_28  and  C_30
REMARK                            x       y       z     vdW  Elec       q    Type
REMARK                         _______ _______ _______ _____ _____    ______ ____
ROOT
ATOM      1  C   UNL     1      -0.255   1.306   0.176  0.00  0.00    +0.038 C 
ATOM      2  C   UNL     1      -0.045  -0.204   0.049  0.00  0.00    +0.154 C 
ENDROOT
BRANCH   2   3
ATOM      3  C   UNL     1       0.760  -0.699   1.223  0.00  0.00    +0.233 C 
ATOM      4  O   UNL     1       1.829  -1.241   1.039  0.00  0.00    -0.274 OA
ATOM      5  N   UNL     1       0.291  -0.540   2.476  0.00  0.00    -0.307 N 
ATOM      6  H   UNL     1      -0.564  -0.107   2.623  0.00  0.00    +0.149 HD
BRANCH   5   7
ATOM      7  C   UNL     1       1.074  -1.022   3.618  0.00  0.00    +0.110 C 
ATOM      8  C   UNL     1       0.699  -0.221   4.867  0.00  0.00    +0.068 C 
ATOM      9  C   UNL     1       1.298  -0.927   6.090  0.00  0.00    +0.231 C 
ATOM     10  O   UNL     1       0.674  -2.205   6.223  0.00  0.00    -0.492 OA
ATOM     11  C   UNL     1       0.602  -2.994   5.119  0.00  0.00    +0.125 A 
ATOM     12  C   UNL     1       0.781  -2.483   3.845  0.00  0.00    +0.014 A 
ATOM     13  C   UNL     1       0.693  -3.324   2.749  0.00  0.00    +0.009 A 
ATOM     14  C   UNL     1       0.429  -4.670   2.921  0.00  0.00    +0.001 A 
ATOM     15  C   UNL     1       0.252  -5.182   4.193  0.00  0.00    +0.004 A 
ATOM     16  C   UNL     1       0.339  -4.349   5.288  0.00  0.00    +0.046 A 
ENDBRANCH   5   7
ENDBRANCH   2   3
BRANCH   2  17
ATOM     17  N   UNL     1       0.675  -0.493  -1.194  0.00  0.00    -0.333 N 
ATOM     18  H   UNL     1       1.639  -0.594  -1.183  0.00  0.00    +0.147 HD
BRANCH  17  19
ATOM     19  C   UNL     1      -0.029  -0.626  -2.395  0.00  0.00    +0.028 A 
ATOM     20  C   UNL     1      -1.410  -0.477  -2.411  0.00  0.00    +0.025 A 
ATOM     21  C   UNL     1      -2.105  -0.608  -3.597  0.00  0.00    +0.025 A 
ATOM     22  C   UNL     1      -1.424  -0.888  -4.774  0.00  0.00    +0.034 A 
ATOM     23  C   UNL     1      -0.043  -1.038  -4.758  0.00  0.00    +0.025 A 
ATOM     24  C   UNL     1       0.653  -0.901  -3.573  0.00  0.00    +0.025 A 
BRANCH  22  25
ATOM     25  N   UNL     1      -2.129  -1.022  -5.977  0.00  0.00    -0.285 N 
ATOM     26  C   UNL     1      -3.236  -0.283  -6.195  0.00  0.00    +0.220 C 
ATOM     27  O   UNL     1      -3.567   0.564  -5.392  0.00  0.00    -0.275 OA
ATOM     28  H   UNL     1      -1.821  -1.645  -6.654  0.00  0.00    +0.155 HD
BRANCH  26  29
ATOM     29  C   UNL     1      -4.061  -0.511  -7.435  0.00  0.00    +0.069 C 
ATOM     30  C   UNL     1      -4.570  -1.954  -7.452  0.00  0.00    +0.017 C 
ATOM     31  C   UNL     1      -5.252   0.450  -7.438  0.00  0.00    +0.017 C 
ENDBRANCH  26  29
ENDBRANCH  22  25
ENDBRANCH  17  19
ENDBRANCH   2  17
TORSDOF 6
