REMARK  Name = ZINC59170712
REMARK  9 active torsions:
REMARK  status: ('A' for Active; 'I' for Inactive)
REMARK    1  A    between atoms: C_1  and  C_2
REMARK    2  A    between atoms: C_2  and  O_3
REMARK    3  A    between atoms: O_3  and  C_4
REMARK    4  A    between atoms: N_12  and  C_13
REMARK    5  A    between atoms: C_16  and  S_19
REMARK    6  A    between atoms: S_19  and  N_22
REMARK    7  A    between atoms: C_23  and  C_25
REMARK    8  A    between atoms: N_27  and  C_28
REMARK    9  A    between atoms: C_32  and  N_34
REMARK                            x       y       z     vdW  Elec       q    Type
REMARK                         _______ _______ _______ _____ _____    ______ ____
ROOT
ATOM      1  C   UNL     1      -1.641  -1.554   0.025  0.00  0.00    +0.163 A 
ATOM      2  C   UNL     1      -0.612  -2.138   0.745  0.00  0.00    +0.049 A 
ATOM      3  C   UNL     1      -0.863  -3.203   1.597  0.00  0.00    +0.004 A 
ATOM      4  C   UNL     1      -2.140  -3.698   1.738  0.00  0.00    +0.012 A 
ATOM      5  C   UNL     1      -3.192  -3.122   1.016  0.00  0.00    +0.022 A 
ATOM      6  C   UNL     1      -2.939  -2.035   0.158  0.00  0.00    +0.179 A 
ATOM      7  O   UNL     1      -3.960  -1.469  -0.532  0.00  0.00    -0.435 OA
ATOM      8  C   UNL     1      -5.023  -2.261  -0.823  0.00  0.00    +0.212 A 
ATOM      9  N   UNL     1      -5.614  -2.198  -1.996  0.00  0.00    -0.325 N 
ATOM     10  C   UNL     1      -5.494  -3.197   0.217  0.00  0.00    +0.098 A 
ATOM     11  C   UNL     1      -4.558  -3.635   1.143  0.00  0.00    +0.030 A 
ATOM     12  H   UNL     1      -6.300  -2.844  -2.229  0.00  0.00    +0.169 HD
ENDROOT
BRANCH   9  13
ATOM     13  C   UNL     1      -5.262  -1.224  -2.888  0.00  0.00    +0.042 A 
ATOM     14  C   UNL     1      -5.101   0.096  -2.458  0.00  0.00    +0.027 A 
ATOM     15  C   UNL     1      -4.745   1.074  -3.364  0.00  0.00    +0.030 A 
ATOM     16  C   UNL     1      -4.548   0.751  -4.695  0.00  0.00    +0.105 A 
ATOM     17  C   UNL     1      -4.705  -0.554  -5.128  0.00  0.00    +0.030 A 
ATOM     18  C   UNL     1      -5.055  -1.544  -4.232  0.00  0.00    +0.027 A 
BRANCH  16  19
ATOM     19  S   UNL     1      -4.095   2.007  -5.844  0.00  0.00    +0.056 S 
ATOM     20  O   UNL     1      -4.501   1.550  -7.127  0.00  0.00    -0.153 OA
ATOM     21  O   UNL     1      -4.543   3.239  -5.297  0.00  0.00    -0.153 OA
BRANCH  19  22
ATOM     22  N   UNL     1      -2.440   2.075  -5.868  0.00  0.00    -0.204 NA
ATOM     23  H   UNL     1      -1.922   1.478  -5.306  0.00  0.00    +0.144 HD
ATOM     24  H   UNL     1      -1.989   2.711  -6.445  0.00  0.00    +0.144 HD
ENDBRANCH  19  22
ENDBRANCH  16  19
ENDBRANCH   9  13
BRANCH  10  25
ATOM     25  C   UNL     1      -6.893  -3.653   0.264  0.00  0.00    +0.253 C 
ATOM     26  O   UNL     1      -7.223  -4.523   1.048  0.00  0.00    -0.270 OA
ATOM     27  N   UNL     1      -7.808  -3.107  -0.561  0.00  0.00    -0.281 N 
ATOM     28  H   UNL     1      -7.535  -2.452  -1.223  0.00  0.00    +0.155 HD
BRANCH  27  29
ATOM     29  C   UNL     1      -9.151  -3.485  -0.465  0.00  0.00    +0.036 A 
ATOM     30  C   UNL     1      -9.484  -4.793  -0.139  0.00  0.00    +0.023 A 
ATOM     31  C   UNL     1     -10.811  -5.163  -0.044  0.00  0.00    +0.004 A 
ATOM     32  C   UNL     1     -11.808  -4.232  -0.273  0.00  0.00    +0.033 A 
ATOM     33  C   UNL     1     -11.479  -2.928  -0.598  0.00  0.00    +0.128 A 
ATOM     34  C   UNL     1     -10.154  -2.551  -0.689  0.00  0.00    +0.056 A 
BRANCH  33  35
ATOM     35  N   UNL     1     -12.550  -1.935  -0.843  0.00  0.00    +0.056 N 
ATOM     36  O   UNL     1     -13.710  -2.264  -0.759  0.00  0.00    -0.126 OA
ATOM     37  O   UNL     1     -12.263  -0.795  -1.126  0.00  0.00    -0.126 OA
ENDBRANCH  33  35
ENDBRANCH  27  29
ENDBRANCH  10  25
BRANCH   1  38
ATOM     38  O   UNL     1      -1.383  -0.510  -0.807  0.00  0.00    -0.489 OA
BRANCH  38  40
ATOM     39  C   UNL     1       0.066   1.106  -1.870  0.00  0.00    +0.048 C 
ATOM     40  C   UNL     1      -0.027  -0.069  -0.894  0.00  0.00    +0.226 C 
ENDBRANCH  38  40
ENDBRANCH   1  38
TORSDOF 8
