REMARK  Name = ZINC20872926
REMARK  13 active torsions:
REMARK  status: ('A' for Active; 'I' for Inactive)
REMARK    1  A    between atoms: C_1  and  C_2
REMARK    2  A    between atoms: C_2  and  C_4
REMARK    3  A    between atoms: C_2  and  O_26
REMARK    4  A    between atoms: C_4  and  N_5
REMARK    5  A    between atoms: N_5  and  C_6
REMARK    6  A    between atoms: C_6  and  C_7
REMARK    7  A    between atoms: C_16  and  O_17
REMARK    8  A    between atoms: O_17  and  C_18
REMARK    9  A    between atoms: C_18  and  C_19
REMARK   10  A    between atoms: N_21  and  C_22
REMARK   11  A    between atoms: C_22  and  C_23
REMARK   12  A    between atoms: C_22  and  C_24
REMARK   13  A    between atoms: C_22  and  C_25
REMARK                            x       y       z     vdW  Elec       q    Type
REMARK                         _______ _______ _______ _____ _____    ______ ____
ROOT
ATOM      1  C   UNL     1      -0.112   5.253   0.031  0.00  0.00    -0.015 A 
ATOM      2  C   UNL     1      -0.095   3.849   0.024  0.00  0.00    -0.013 A 
ATOM      3  C   UNL     1      -1.288   3.105   0.031  0.00  0.00    +0.009 A 
ATOM      4  C   UNL     1      -1.235   1.746   0.018  0.00  0.00    +0.001 A 
ATOM      5  C   UNL     1      -0.013   1.076   0.008  0.00  0.00    +0.001 A 
ATOM      6  C   UNL     1       1.163   1.762   0.000  0.00  0.00    +0.008 A 
ATOM      7  C   UNL     1       1.148   3.167   0.008  0.00  0.00    -0.017 A 
ATOM      8  C   UNL     1       2.342   3.909   0.000  0.00  0.00    +0.012 A 
ATOM      9  C   UNL     1       2.292   5.268   0.007  0.00  0.00    +0.046 A 
ATOM     10  C   UNL     1       1.067   5.942   0.023  0.00  0.00    +0.123 A 
ENDROOT
BRANCH   1  11
ATOM     11  C   UNL     1      -1.423   5.995   0.047  0.00  0.00    -0.042 C 
BRANCH  11  12
ATOM     12  N   UNL     1      -1.836   6.229   1.437  0.00  0.00    +0.383 N 
ATOM     13  H   UNL     1      -1.058   6.821   1.941  0.00  0.00    -0.085 HD
ATOM     14  H   UNL     1      -1.943   5.258   1.942  0.00  0.00    -0.085 HD
BRANCH  12  15
ATOM     15  C   UNL     1      -3.114   6.952   1.492  0.00  0.00    -0.051 C 
BRANCH  15  17
ATOM     16  C   UNL     1      -4.841   7.930   3.009  0.00  0.00    +0.035 C 
ATOM     17  C   UNL     1      -3.510   7.177   2.952  0.00  0.00    +0.095 C 
BRANCH  17  18
ATOM     18  O   UNL     1      -3.649   5.915   3.608  0.00  0.00    -0.394 OA
ATOM     19  H   UNL     1      -2.791   5.230   3.668  0.00  0.00    +0.210 HD
ENDBRANCH  17  18
ENDBRANCH  15  17
ENDBRANCH  12  15
ENDBRANCH  11  12
ENDBRANCH   1  11
BRANCH  10  20
ATOM     20  O   UNL     1       1.050   7.301   0.029  0.00  0.00    -0.483 OA
BRANCH  20  21
ATOM     21  C   UNL     1       2.315   7.966   0.020  0.00  0.00    +0.324 C 
BRANCH  21  22
ATOM     22  C   UNL     1       2.098   9.457   0.029  0.00  0.00    +0.251 C 
ATOM     23  O   UNL     1       0.972   9.906   0.042  0.00  0.00    -0.272 OA
ATOM     24  N   UNL     1       3.156  10.292   0.023  0.00  0.00    -0.308 N 
ATOM     25  H   UNL     1       4.178   9.885   0.012  0.00  0.00    +0.149 HD
BRANCH  24  26
ATOM     26  C   UNL     1       2.946  11.742   0.032  0.00  0.00    +0.026 C 
ATOM     27  C   UNL     1       2.171  12.137   1.290  0.00  0.00    +0.031 C 
ATOM     28  C   UNL     1       4.300  12.454   0.022  0.00  0.00    +0.031 C 
ATOM     29  C   UNL     1       2.147  12.149  -1.208  0.00  0.00    +0.031 C 
ENDBRANCH  24  26
ENDBRANCH  21  22
ENDBRANCH  20  21
ENDBRANCH  10  20
TORSDOF 9
