REMARK  Name = ZINC57350651
REMARK  6 active torsions:
REMARK  status: ('A' for Active; 'I' for Inactive)
REMARK    1  A    between atoms: C_1  and  C_2
REMARK    2  A    between atoms: C_7  and  C_8
REMARK    3  A    between atoms: C_10  and  C_13
REMARK    4  A    between atoms: C_13  and  N_14
REMARK    5  A    between atoms: N_17  and  C_20
REMARK    6  A    between atoms: C_25  and  C_26
REMARK                            x       y       z     vdW  Elec       q    Type
REMARK                         _______ _______ _______ _____ _____    ______ ____
ROOT
ATOM      1  C   UNL     1      -0.025  -0.178   6.195  0.00  0.00    +0.183 C 
ENDROOT
BRANCH   1   2
ATOM      2  N   UNL     1       1.370  -0.059   6.640  0.00  0.00    -0.291 NA
ATOM      3  C   UNL     1       1.838   1.330   6.538  0.00  0.00    +0.104 C 
ATOM      4  C   UNL     1       3.340   1.382   6.837  0.00  0.00    +0.120 C 
ATOM      5  N   UNL     1       3.581   0.739   8.137  0.00  0.00    -0.327 N 
ATOM      6  C   UNL     1       3.022  -0.603   8.364  0.00  0.00    +0.120 C 
ATOM      7  C   UNL     1       1.533  -0.577   8.005  0.00  0.00    +0.104 C 
BRANCH   5   8
ATOM      8  C   UNL     1       4.320   1.385   9.131  0.00  0.00    +0.033 A 
ATOM      9  C   UNL     1       3.679   2.195  10.060  0.00  0.00    +0.023 A 
ATOM     10  C   UNL     1       4.413   2.831  11.041  0.00  0.00    +0.002 A 
ATOM     11  C   UNL     1       5.785   2.663  11.099  0.00  0.00    +0.000 A 
ATOM     12  C   UNL     1       6.426   1.858  10.176  0.00  0.00    +0.005 A 
ATOM     13  C   UNL     1       5.697   1.214   9.196  0.00  0.00    -0.029 A 
ATOM     14  C   UNL     1       6.396   0.331   8.194  0.00  0.00    +0.045 C 
ENDBRANCH   5   8
ENDBRANCH   1   2
BRANCH   1  17
ATOM     15  C   UNL     1      -0.122  -0.120   2.567  0.00  0.00    +0.202 A 
ATOM     16  N   UNL     1       0.006  -0.736   3.756  0.00  0.00    -0.190 NA
ATOM     17  C   UNL     1      -0.110   0.129   4.722  0.00  0.00    +0.242 A 
ATOM     18  O   UNL     1      -0.317   1.339   4.186  0.00  0.00    -0.336 OA
ATOM     19  N   UNL     1      -0.316   1.159   2.777  0.00  0.00    -0.056 NA
BRANCH  15  26
ATOM     20  C   UNL     1       2.011  -1.993   2.010  0.00  0.00    +0.044 C 
ATOM     21  C   UNL     1       0.975  -1.681   0.961  0.00  0.00    -0.040 A 
ATOM     22  C   UNL     1       1.035  -2.294  -0.274  0.00  0.00    +0.004 A 
ATOM     23  C   UNL     1       0.085  -2.008  -1.238  0.00  0.00    +0.000 A 
ATOM     24  C   UNL     1      -0.930  -1.107  -0.970  0.00  0.00    +0.001 A 
ATOM     25  C   UNL     1      -1.000  -0.489   0.262  0.00  0.00    +0.012 A 
ATOM     26  C   UNL     1      -0.048  -0.777   1.238  0.00  0.00    +0.025 A 
ENDBRANCH  15  26
ENDBRANCH   1  17
TORSDOF 4
