REMARK  Name = ZINC01871624
REMARK  7 active torsions:
REMARK  status: ('A' for Active; 'I' for Inactive)
REMARK    1  A    between atoms: C_1  and  C_2
REMARK    2  A    between atoms: C_2  and  C_19
REMARK    3  A    between atoms: C_3  and  C_4
REMARK    4  A    between atoms: C_4  and  C_5
REMARK    5  A    between atoms: C_5  and  O_18
REMARK    6  A    between atoms: C_14  and  C_15
REMARK    7  A    between atoms: C_14  and  O_17
REMARK                            x       y       z     vdW  Elec       q    Type
REMARK                         _______ _______ _______ _____ _____    ______ ____
ROOT
ATOM      1  C   UNL     1      -0.858  -2.423   0.431  0.00  0.00    +0.175 C 
ATOM      2  C   UNL     1       0.544  -1.864   0.394  0.00  0.00    +0.199 C 
ATOM      3  O   UNL     1       1.568  -2.512   0.346  0.00  0.00    -0.289 OA
ATOM      4  C   UNL     1       0.451  -0.395   0.427  0.00  0.00    +0.027 A 
ATOM      5  C   UNL     1       1.467   0.574   0.412  0.00  0.00    +0.012 A 
ATOM      6  C   UNL     1       1.144   1.912   0.450  0.00  0.00    +0.001 A 
ATOM      7  C   UNL     1      -0.181   2.307   0.505  0.00  0.00    +0.000 A 
ATOM      8  C   UNL     1      -1.189   1.360   0.520  0.00  0.00    +0.008 A 
ATOM      9  C   UNL     1      -0.881   0.013   0.481  0.00  0.00    +0.009 A 
ATOM     10  C   UNL     1      -1.782  -1.199   0.488  0.00  0.00    +0.229 C 
ENDROOT
BRANCH  10  11
ATOM     11  C   UNL     1      -2.602  -1.228   1.752  0.00  0.00    +0.395 C 
ATOM     12  O   UNL     1      -2.193  -0.683   2.749  0.00  0.00    -0.243 OA
ATOM     13  O   UNL     1      -3.786  -1.860   1.769  0.00  0.00    -0.243 OA
ENDBRANCH  10  11
BRANCH  10  14
ATOM     14  O   UNL     1      -2.640  -1.179  -0.655  0.00  0.00    -0.371 OA
ATOM     15  H   UNL     1      -3.231  -0.414  -0.689  0.00  0.00    +0.211 HD
ENDBRANCH  10  14
BRANCH   1  16
ATOM     16  O   UNL     1      -1.117  -3.186  -0.750  0.00  0.00    -0.377 OA
ATOM     17  H   UNL     1      -0.536  -3.950  -0.861  0.00  0.00    +0.211 HD
ENDBRANCH   1  16
BRANCH   1  18
ATOM     18  C   UNL     1      -1.049  -3.293   1.675  0.00  0.00    +0.074 C 
BRANCH  18  21
ATOM     19  C   UNL     1       0.876  -3.603   3.712  0.00  0.00    +0.038 C 
ATOM     20  C   UNL     1       0.770  -4.626   2.610  0.00  0.00    -0.080 C 
ATOM     21  C   UNL     1      -0.084  -4.449   1.633  0.00  0.00    -0.025 C 
ATOM     22  C   UNL     1       1.646  -5.852   2.633  0.00  0.00    +0.038 C 
ENDBRANCH  18  21
ENDBRANCH   1  18
TORSDOF 5
