REMARK  Name = ZINC61690592
REMARK  6 active torsions:
REMARK  status: ('A' for Active; 'I' for Inactive)
REMARK    1  A    between atoms: C_1  and  C_2
REMARK    2  A    between atoms: C_5  and  S_7
REMARK    3  A    between atoms: S_7  and  C_8
REMARK    4  A    between atoms: C_8  and  C_9
REMARK    5  A    between atoms: C_8  and  C_10
REMARK    6  A    between atoms: C_8  and  C_18
REMARK                            x       y       z     vdW  Elec       q    Type
REMARK                         _______ _______ _______ _____ _____    ______ ____
ROOT
ATOM      1  C   UNL     1       0.070  -5.237  -0.738  0.00  0.00    +0.146 C 
ATOM      2  C   UNL     1      -1.187  -4.881  -1.534  0.00  0.00    +0.040 C 
ENDROOT
BRANCH   1   3
ATOM      3  C   UNL     1       0.091  -6.720  -0.470  0.00  0.00    -0.019 A 
ATOM      4  C   UNL     1      -0.935  -7.521  -0.937  0.00  0.00    +0.008 A 
ATOM      5  C   UNL     1      -0.917  -8.881  -0.693  0.00  0.00    +0.040 A 
ATOM      6  C   UNL     1       0.128  -9.442   0.021  0.00  0.00    +0.137 A 
ATOM      7  C   UNL     1       1.155  -8.639   0.489  0.00  0.00    +0.053 A 
ATOM      8  C   UNL     1       1.138  -7.279   0.239  0.00  0.00    +0.023 A 
ATOM      9 BR   UNL     1       2.584  -9.403   1.465  0.00  0.00    -0.047 Br
ATOM     10  F   UNL     1       0.146 -10.772   0.261  0.00  0.00    -0.204 F 
ENDBRANCH   1   3
BRANCH   1  11
ATOM     11  C   UNL     1       1.293  -4.853  -1.530  0.00  0.00    +0.376 C 
ATOM     12  O   UNL     1       2.086  -4.047  -1.075  0.00  0.00    -0.244 OA
ATOM     13  O   UNL     1       1.489  -5.348  -2.627  0.00  0.00    -0.244 OA
ENDBRANCH   1  11
BRANCH   1  14
ATOM     14  S   UNL     1       0.064  -4.338   0.838  0.00  0.00    -0.074 S 
BRANCH  14  19
ATOM     15  C   UNL     1      -0.018   1.503   0.010  0.00  0.00    +0.075 C 
ATOM     16  C   UNL     1       0.002  -0.004   0.002  0.00  0.00    +0.100 A 
ATOM     17  N   UNL     1       0.010  -0.845  -1.012  0.00  0.00    -0.146 NA
ATOM     18  N   UNL     1       0.027  -2.095  -0.849  0.00  0.00    -0.135 NA
ATOM     19  C   UNL     1       0.039  -2.642   0.360  0.00  0.00    +0.160 A 
ATOM     20  S   UNL     1       0.031  -1.162   1.368  0.00  0.00    -0.044 S 
ENDBRANCH  14  19
ENDBRANCH   1  14
TORSDOF 4
