REMARK  Name = ZINC36849378
REMARK  10 active torsions:
REMARK  status: ('A' for Active; 'I' for Inactive)
REMARK    1  A    between atoms: C_1  and  C_2
REMARK    2  A    between atoms: C_5  and  N_9
REMARK    3  A    between atoms: C_7  and  C_8
REMARK    4  A    between atoms: C_10  and  C_26
REMARK    5  A    between atoms: C_13  and  S_14
REMARK    6  A    between atoms: S_14  and  C_15
REMARK    7  A    between atoms: C_15  and  C_17
REMARK    8  A    between atoms: C_15  and  C_20
REMARK    9  A    between atoms: C_17  and  C_18
REMARK   10  A    between atoms: C_17  and  C_19
REMARK                            x       y       z     vdW  Elec       q    Type
REMARK                         _______ _______ _______ _____ _____    ______ ____
ROOT
ATOM      1  N   UNL     1      -0.019  -4.262   0.053  0.00  0.00    -0.270 N 
ATOM      2  C   UNL     1      -0.935  -5.124  -0.510  0.00  0.00    +0.169 A 
ATOM      3  N   UNL     1      -0.436  -6.335  -0.412  0.00  0.00    -0.128 NA
ATOM      4  N   UNL     1       0.712  -6.292   0.165  0.00  0.00    -0.122 NA
ATOM      5  C   UNL     1       1.020  -5.049   0.467  0.00  0.00    +0.197 A 
ENDROOT
BRANCH   1  10
ATOM      6  C   UNL     1      -0.459   1.375   0.533  0.00  0.00    +0.044 C 
ATOM      7  C   UNL     1      -0.342  -0.121   0.406  0.00  0.00    -0.047 A 
ATOM      8  C   UNL     1      -0.265  -0.704  -0.846  0.00  0.00    +0.005 A 
ATOM      9  C   UNL     1      -0.158  -2.075  -0.966  0.00  0.00    +0.026 A 
ATOM     10  C   UNL     1      -0.127  -2.870   0.172  0.00  0.00    +0.051 A 
ATOM     11  C   UNL     1      -0.204  -2.283   1.427  0.00  0.00    +0.030 A 
ATOM     12  C   UNL     1      -0.307  -0.910   1.541  0.00  0.00    -0.046 A 
ATOM     13  C   UNL     1      -0.385  -0.271   2.904  0.00  0.00    +0.044 C 
ENDBRANCH   1  10
BRANCH   2  14
ATOM     14  C   UNL     1      -2.234  -4.756  -1.110  0.00  0.00    +0.022 A 
ATOM     15  C   UNL     1      -2.797  -3.493  -0.889  0.00  0.00    +0.031 A 
ATOM     16  C   UNL     1      -4.011  -3.192  -1.469  0.00  0.00    +0.111 A 
ATOM     17  N   UNL     1      -4.640  -4.074  -2.222  0.00  0.00    -0.263 NA
ATOM     18  C   UNL     1      -4.146  -5.275  -2.455  0.00  0.00    +0.111 A 
ATOM     19  C   UNL     1      -2.934  -5.659  -1.920  0.00  0.00    +0.031 A 
ENDBRANCH   2  14
BRANCH   5  20
ATOM     20  S   UNL     1       2.495  -4.500   1.259  0.00  0.00    -0.073 S 
BRANCH  20  21
ATOM     21  C   UNL     1       3.376  -6.035   1.657  0.00  0.00    +0.143 C 
BRANCH  21  22
ATOM     22  C   UNL     1       3.812  -6.709   0.381  0.00  0.00    +0.234 C 
ATOM     23  O   UNL     1       3.978  -6.053  -0.625  0.00  0.00    -0.274 OA
ATOM     24  N   UNL     1       4.018  -8.041   0.358  0.00  0.00    -0.239 N 
ATOM     25  C   UNL     1       4.408  -8.643  -0.783  0.00  0.00    +0.303 C 
ATOM     26  O   UNL     1       4.574  -7.985  -1.791  0.00  0.00    -0.253 OA
ATOM     27  N   UNL     1       4.614  -9.975  -0.805  0.00  0.00    -0.313 N 
ATOM     28  H   UNL     1       3.886  -8.566   1.163  0.00  0.00    +0.159 HD
ATOM     29  H   UNL     1       4.482 -10.500  -0.001  0.00  0.00    +0.146 HD
ATOM     30  H   UNL     1       4.895 -10.408  -1.627  0.00  0.00    +0.146 HD
ENDBRANCH  21  22
BRANCH  21  31
ATOM     31  C   UNL     1       4.606  -5.712   2.508  0.00  0.00    +0.005 C 
ATOM     32  C   UNL     1       4.162  -5.035   3.807  0.00  0.00    +0.009 C 
ATOM     33  C   UNL     1       5.353  -7.006   2.838  0.00  0.00    +0.009 C 
ENDBRANCH  21  31
ENDBRANCH  20  21
ENDBRANCH   5  20
TORSDOF 6
