REMARK  Name = ZINC53626418
REMARK  4 active torsions:
REMARK  status: ('A' for Active; 'I' for Inactive)
REMARK    1  A    between atoms: C_1  and  C_2
REMARK    2  A    between atoms: C_6  and  C_8
REMARK    3  A    between atoms: C_19  and  C_21
REMARK    4  A    between atoms: C_24  and  C_28
REMARK                            x       y       z     vdW  Elec       q    Type
REMARK                         _______ _______ _______ _____ _____    ______ ____
ROOT
ATOM      1  C   UNL     1      -0.013   1.086   0.008  0.00  0.00    +0.066 C 
ATOM      2  C   UNL     1      -0.742   1.585  -1.213  0.00  0.00    +0.054 A 
ATOM      3  N   UNL     1      -2.044   1.798  -1.199  0.00  0.00    -0.229 NA
ATOM      4  C   UNL     1      -2.674   2.233  -2.269  0.00  0.00    +0.165 A 
ATOM      5  N   UNL     1      -4.027   2.507  -2.424  0.00  0.00    -0.264 N 
ATOM      6  C   UNL     1      -4.873   2.328  -1.390  0.00  0.00    +0.225 C 
ATOM      7  O   UNL     1      -4.453   1.928  -0.325  0.00  0.00    -0.275 OA
ATOM      8  S   UNL     1      -1.441   2.380  -3.405  0.00  0.00    -0.053 S 
ATOM      9  C   UNL     1      -0.088   1.841  -2.373  0.00  0.00    +0.059 A 
ATOM     10  H   UNL     1      -4.364   2.827  -3.275  0.00  0.00    +0.157 HD
ENDROOT
BRANCH   6  11
ATOM     11  C   UNL     1      -6.341   2.624  -1.557  0.00  0.00    +0.048 C 
ATOM     12  C   UNL     1      -6.525   4.096  -1.934  0.00  0.00    +0.019 C 
ATOM     13  C   UNL     1      -8.015   4.397  -2.104  0.00  0.00    -0.009 C 
ATOM     14  C   UNL     1      -8.746   4.112  -0.790  0.00  0.00    +0.007 C 
ATOM     15  C   UNL     1      -8.563   2.640  -0.414  0.00  0.00    -0.009 C 
ATOM     16  C   UNL     1      -7.072   2.339  -0.244  0.00  0.00    +0.019 C 
ATOM     17  C   UNL     1      -9.139   1.755  -1.521  0.00  0.00    +0.007 C 
ATOM     18  C   UNL     1      -8.408   2.040  -2.834  0.00  0.00    -0.009 C 
ATOM     19  C   UNL     1      -8.591   3.511  -3.211  0.00  0.00    +0.007 C 
ATOM     20  C   UNL     1      -6.918   1.739  -2.664  0.00  0.00    +0.019 C 
ENDBRANCH   6  11
BRANCH   9  21
ATOM     21  C   UNL     1       1.377   1.706  -2.700  0.00  0.00    +0.250 C 
ATOM     22  N   UNL     1       1.778   2.723  -3.698  0.00  0.00    -0.265 NA
ATOM     23  C   UNL     1       3.140   3.158  -3.322  0.00  0.00    +0.187 C 
ATOM     24  N   UNL     1       3.491   2.382  -2.109  0.00  0.00    -0.177 NA
ATOM     25  O   UNL     1       2.182   1.994  -1.534  0.00  0.00    -0.274 OA
ATOM     26  H   UNL     1       1.766   2.339  -4.631  0.00  0.00    +0.127 HD
ATOM     27  H   UNL     1       4.036   1.566  -2.347  0.00  0.00    +0.156 HD
BRANCH  23  28
ATOM     28  C   UNL     1       4.110   2.853  -4.435  0.00  0.00    +0.023 A 
ATOM     29  C   UNL     1       5.430   2.555  -4.359  0.00  0.00    +0.014 A 
ATOM     30  C   UNL     1       6.129   2.308  -5.525  0.00  0.00    +0.008 A 
ATOM     31  C   UNL     1       5.474   2.370  -6.710  0.00  0.00    +0.045 A 
ATOM     32  S   UNL     1       3.816   2.783  -6.194  0.00  0.00    -0.099 S 
ENDBRANCH  23  28
ENDBRANCH   9  21
TORSDOF 3
