REMARK  Name = ZINC39451001
REMARK  1 active torsions:
REMARK  status: ('A' for Active; 'I' for Inactive)
REMARK    1  A    between atoms: C_2  and  O_20
REMARK                            x       y       z     vdW  Elec       q    Type
REMARK                         _______ _______ _______ _____ _____    ______ ____
ROOT
ATOM      1  C   UNL     1      -0.017   1.390   0.010  0.00  0.00    +0.062 A 
ATOM      2  C   UNL     1       1.202   2.058   0.002  0.00  0.00    +0.136 A 
ATOM      3  C   UNL     1       2.386   1.324  -0.013  0.00  0.00    +0.156 A 
ATOM      4  N   UNL     1       2.378   0.009  -0.020  0.00  0.00    -0.249 NA
ATOM      5  C   UNL     1       1.243  -0.678  -0.012  0.00  0.00    +0.100 A 
ATOM      6  C   UNL     1       0.002  -0.004   0.002  0.00  0.00    +0.073 A 
ATOM      7  C   UNL     1      -1.237  -0.795   0.008  0.00  0.00    +0.297 A 
ATOM      8  O   UNL     1      -2.317  -0.233   0.022  0.00  0.00    -0.264 OA
ATOM      9  N   UNL     1      -1.178  -2.139  -0.002  0.00  0.00    -0.088 N 
ATOM     10  C   UNL     1       0.029  -2.826  -0.018  0.00  0.00    +0.154 A 
ATOM     11  C   UNL     1       1.234  -2.147  -0.018  0.00  0.00    +0.085 A 
ATOM     12  N   UNL     1       2.423  -2.852  -0.019  0.00  0.00    -0.324 N 
ATOM     13  C   UNL     1       2.431  -4.205   0.557  0.00  0.00    +0.171 C 
ATOM     14  C   UNL     1       1.310  -5.015  -0.105  0.00  0.00    +0.120 C 
ATOM     15  C   UNL     1       0.021  -4.239  -0.030  0.00  0.00    +0.188 C 
ATOM     16  O   UNL     1      -1.037  -4.834   0.022  0.00  0.00    -0.290 OA
ATOM     17 CL   UNL     1       2.146  -4.112   2.335  0.00  0.00    -0.101 Cl
ATOM     18  O   UNL     1      -2.386  -2.877   0.004  0.00  0.00    -0.160 OA
ATOM     19  H   UNL     1       3.231  -2.464  -0.390  0.00  0.00    +0.148 HD
ENDROOT
BRANCH   2  20
ATOM     20  O   UNL     1       1.238   3.415   0.008  0.00  0.00    -0.505 OA
ATOM     21  H   UNL     1       1.257   3.804   0.893  0.00  0.00    +0.292 HD
ENDBRANCH   2  20
TORSDOF 1
