REMARK  Name = ZINC50397198
REMARK  4 active torsions:
REMARK  status: ('A' for Active; 'I' for Inactive)
REMARK    1  A    between atoms: C_3  and  S_9
REMARK    2  A    between atoms: C_6  and  N_7
REMARK    3  A    between atoms: S_9  and  N_12
REMARK    4  A    between atoms: N_12  and  C_13
REMARK                            x       y       z     vdW  Elec       q    Type
REMARK                         _______ _______ _______ _____ _____    ______ ____
ROOT
ATOM      1  S   UNL     1       4.125   2.399  -0.102  0.00  0.00    +0.060 S 
ATOM      2  O   UNL     1       5.175   1.943  -0.943  0.00  0.00    -0.153 OA
ATOM      3  O   UNL     1       3.652   3.739  -0.132  0.00  0.00    -0.153 OA
ENDROOT
BRANCH   1   6
ATOM      4  C   UNL     1       1.741  -0.451  -1.628  0.00  0.00    +0.025 A 
ATOM      5  C   UNL     1       2.829   0.360  -1.370  0.00  0.00    +0.032 A 
ATOM      6  C   UNL     1       2.734   1.367  -0.428  0.00  0.00    +0.124 A 
ATOM      7  C   UNL     1       1.550   1.566   0.261  0.00  0.00    +0.069 A 
ATOM      8  C   UNL     1       0.458   0.757   0.008  0.00  0.00    +0.044 A 
ATOM      9  C   UNL     1       0.551  -0.255  -0.939  0.00  0.00    +0.026 A 
ATOM     10 CL   UNL     1       1.436   2.832   1.443  0.00  0.00    -0.081 Cl
BRANCH   9  11
ATOM     11  N   UNL     1      -0.551  -1.073  -1.198  0.00  0.00    -0.358 N 
ATOM     12  H   UNL     1      -0.486  -1.780  -1.859  0.00  0.00    +0.142 HD
ATOM     13  H   UNL     1      -1.382  -0.935  -0.716  0.00  0.00    +0.142 HD
ENDBRANCH   9  11
ENDBRANCH   1   6
BRANCH   1  14
ATOM     14  N   UNL     1       4.602   2.101   1.455  0.00  0.00    -0.178 NA
ATOM     15  H   UNL     1       4.514   2.792   2.130  0.00  0.00    +0.149 HD
BRANCH  14  16
ATOM     16  C   UNL     1       5.156   0.793   1.814  0.00  0.00    +0.162 C 
ATOM     17  C   UNL     1       6.336   0.985   2.769  0.00  0.00    +0.031 C 
ATOM     18  C   UNL     1       6.722  -0.383   3.344  0.00  0.00    +0.021 C 
ATOM     19  C   UNL     1       5.590  -0.872   4.248  0.00  0.00    +0.104 C 
ATOM     20  N   UNL     1       4.311  -0.790   3.553  0.00  0.00    -0.314 N 
ATOM     21  C   UNL     1       4.093  -0.035   2.478  0.00  0.00    +0.232 C 
ATOM     22  O   UNL     1       2.974  -0.015   2.010  0.00  0.00    -0.274 OA
ATOM     23  H   UNL     1       3.573  -1.319   3.896  0.00  0.00    +0.149 HD
ENDBRANCH  14  16
ENDBRANCH   1  14
TORSDOF 4
