REMARK  Name = ZINC06541125
REMARK  4 active torsions:
REMARK  status: ('A' for Active; 'I' for Inactive)
REMARK    1  A    between atoms: C_1  and  C_2
REMARK    2  A    between atoms: C_5  and  N_9
REMARK    3  A    between atoms: N_9  and  S_10
REMARK    4  A    between atoms: S_10  and  C_13
REMARK                            x       y       z     vdW  Elec       q    Type
REMARK                         _______ _______ _______ _____ _____    ______ ____
ROOT
ATOM      1  S   UNL     1       0.780  -4.980  -1.274  0.00  0.00    +0.072 S 
ATOM      2  O   UNL     1       0.556  -6.364  -1.043  0.00  0.00    -0.150 OA
ATOM      3  O   UNL     1       0.369  -4.331  -2.469  0.00  0.00    -0.150 OA
ENDROOT
BRANCH   1   4
ATOM      4  C   UNL     1       2.517  -4.720  -1.131  0.00  0.00    +0.109 A 
ATOM      5  C   UNL     1       3.106  -3.636  -1.756  0.00  0.00    +0.030 A 
ATOM      6  C   UNL     1       4.467  -3.429  -1.646  0.00  0.00    +0.025 A 
ATOM      7  C   UNL     1       5.244  -4.310  -0.906  0.00  0.00    +0.037 A 
ATOM      8  C   UNL     1       4.649  -5.397  -0.279  0.00  0.00    -0.024 A 
ATOM      9  C   UNL     1       3.287  -5.596  -0.388  0.00  0.00    +0.034 A 
ATOM     10  C   UNL     1       5.492  -6.352   0.525  0.00  0.00    +0.046 C 
ATOM     11  C   UNL     1       6.874  -6.479  -0.117  0.00  0.00    +0.101 C 
ATOM     12  C   UNL     1       7.431  -5.112  -0.408  0.00  0.00    +0.218 C 
ATOM     13  O   UNL     1       8.622  -4.914  -0.299  0.00  0.00    -0.275 OA
ATOM     14  N   UNL     1       6.622  -4.106  -0.790  0.00  0.00    -0.285 N 
ATOM     15  H   UNL     1       6.998  -3.233  -0.986  0.00  0.00    +0.155 HD
ENDBRANCH   1   4
BRANCH   1  16
ATOM     16  N   UNL     1       0.059  -4.169  -0.023  0.00  0.00    -0.215 N 
ATOM     17  H   UNL     1      -0.469  -4.655   0.630  0.00  0.00    +0.174 HD
BRANCH  16  22
ATOM     18  C   UNL     1       0.671   1.451   0.442  0.00  0.00    +0.044 C 
ATOM     19  C   UNL     1       0.508  -0.042   0.319  0.00  0.00    -0.049 A 
ATOM     20  C   UNL     1       0.417  -0.625  -0.932  0.00  0.00    +0.005 A 
ATOM     21  C   UNL     1       0.268  -1.994  -1.048  0.00  0.00    +0.026 A 
ATOM     22  C   UNL     1       0.210  -2.784   0.092  0.00  0.00    +0.066 A 
ATOM     23  C   UNL     1       0.303  -2.195   1.347  0.00  0.00    +0.064 A 
ATOM     24  C   UNL     1       0.457  -0.826   1.456  0.00  0.00    +0.025 A 
ATOM     25 CL   UNL     1       0.231  -3.179   2.776  0.00  0.00    -0.082 Cl
ENDBRANCH  16  22
ENDBRANCH   1  16
TORSDOF 3
