REMARK  Name = ZINC36574201
REMARK  18 active torsions:
REMARK  status: ('A' for Active; 'I' for Inactive)
REMARK    1  A    between atoms: C_1  and  C_2
REMARK    2  A    between atoms: C_2  and  C_3
REMARK    3  A    between atoms: C_3  and  N_4
REMARK    4  A    between atoms: N_4  and  C_5
REMARK    5  A    between atoms: C_5  and  C_7
REMARK    6  A    between atoms: C_5  and  C_16
REMARK    7  A    between atoms: C_8  and  O_15
REMARK    8  A    between atoms: C_10  and  O_14
REMARK    9  A    between atoms: C_12  and  O_13
REMARK   10  A    between atoms: N_18  and  C_19
REMARK   11  A    between atoms: C_19  and  C_20
REMARK   12  A    between atoms: C_19  and  C_21
REMARK   13  A    between atoms: C_19  and  C_22
REMARK   14  A    between atoms: C_22  and  C_23
REMARK   15  A    between atoms: C_23  and  C_24
REMARK   16  A    between atoms: C_23  and  C_25
REMARK   17  A    between atoms: C_23  and  C_26
REMARK   18  A    between atoms: C_27  and  C_29
REMARK                            x       y       z     vdW  Elec       q    Type
REMARK                         _______ _______ _______ _____ _____    ______ ____
ROOT
ATOM      1  C   UNL     1      -1.247  -2.639   2.117  0.00  0.00    +0.199 C 
ENDROOT
BRANCH   1   2
ATOM      2  C   UNL     1      -2.060  -1.518   2.712  0.00  0.00    +0.065 A 
ATOM      3  C   UNL     1      -3.070  -1.800   3.619  0.00  0.00    +0.129 A 
ATOM      4  C   UNL     1      -3.818  -0.769   4.167  0.00  0.00    +0.091 A 
ATOM      5  C   UNL     1      -3.556   0.545   3.807  0.00  0.00    +0.124 A 
ATOM      6  C   UNL     1      -2.545   0.827   2.901  0.00  0.00    +0.091 A 
ATOM      7  C   UNL     1      -1.794  -0.204   2.357  0.00  0.00    +0.129 A 
BRANCH   7   8
ATOM      8  O   UNL     1      -0.800   0.073   1.472  0.00  0.00    -0.506 OA
ATOM      9  H   UNL     1      -1.088   0.089   0.549  0.00  0.00    +0.292 HD
ENDBRANCH   7   8
BRANCH   5  10
ATOM     10  O   UNL     1      -4.289   1.556   4.343  0.00  0.00    -0.507 OA
ATOM     11  H   UNL     1      -3.924   1.914   5.164  0.00  0.00    +0.292 HD
ENDBRANCH   5  10
BRANCH   3  12
ATOM     12  O   UNL     1      -3.327  -3.087   3.971  0.00  0.00    -0.506 OA
ATOM     13  H   UNL     1      -2.886  -3.368   4.784  0.00  0.00    +0.292 HD
ENDBRANCH   3  12
ENDBRANCH   1   2
BRANCH   1  14
ATOM     14  C   UNL     1       0.093  -2.706   2.803  0.00  0.00    +0.239 C 
ATOM     15  O   UNL     1       0.891  -1.802   2.665  0.00  0.00    -0.273 OA
ATOM     16  N   UNL     1       0.406  -3.770   3.569  0.00  0.00    -0.308 N 
ATOM     17  H   UNL     1      -0.232  -4.492   3.679  0.00  0.00    +0.149 HD
BRANCH  16  18
ATOM     18  C   UNL     1       1.709  -3.835   4.235  0.00  0.00    +0.030 C 
ATOM     19  C   UNL     1       2.820  -3.851   3.183  0.00  0.00    +0.031 C 
ATOM     20  C   UNL     1       1.881  -2.613   5.140  0.00  0.00    +0.031 C 
BRANCH  18  21
ATOM     21  C   UNL     1       1.787  -5.109   5.079  0.00  0.00    +0.031 C 
BRANCH  21  22
ATOM     22  C   UNL     1       0.466  -5.310   5.823  0.00  0.00    -0.036 C 
ATOM     23  C   UNL     1      -0.522  -6.048   4.917  0.00  0.00    +0.010 C 
ATOM     24  C   UNL     1       0.713  -6.135   7.087  0.00  0.00    +0.010 C 
ATOM     25  C   UNL     1      -0.115  -3.948   6.208  0.00  0.00    +0.010 C 
ENDBRANCH  21  22
ENDBRANCH  18  21
ENDBRANCH  16  18
ENDBRANCH   1  14
BRANCH   1  26
ATOM     26  N   UNL     1      -1.052  -2.394   0.686  0.00  0.00    -0.285 N 
ATOM     27  C   UNL     1      -2.100  -2.463  -0.159  0.00  0.00    +0.231 C 
ATOM     28  O   UNL     1      -1.938  -2.260  -1.344  0.00  0.00    -0.274 OA
BRANCH  27  29
ATOM     29  C   UNL     1      -3.472  -2.792   0.369  0.00  0.00    +0.204 C 
ATOM     30 CL   UNL     1      -4.652  -2.809  -0.994  0.00  0.00    -0.116 Cl
ENDBRANCH  27  29
BRANCH  26  31
ATOM     31  C   UNL     1       0.283  -2.074   0.173  0.00  0.00    +0.108 C 
BRANCH  31  33
ATOM     32  C   UNL     1       2.445  -3.044  -0.620  0.00  0.00    +0.005 C 
ATOM     33  C   UNL     1       1.097  -3.362   0.031  0.00  0.00    +0.016 C 
ENDBRANCH  31  33
ENDBRANCH  26  31
ENDBRANCH   1  26
TORSDOF 12
