REMARK  Name = ZINC25588676
REMARK  9 active torsions:
REMARK  status: ('A' for Active; 'I' for Inactive)
REMARK    1  A    between atoms: C_1  and  C_2
REMARK    2  A    between atoms: C_2  and  C_3
REMARK    3  A    between atoms: C_4  and  C_23
REMARK    4  A    between atoms: C_5  and  N_22
REMARK    5  A    between atoms: C_7  and  S_9
REMARK    6  A    between atoms: S_9  and  C_10
REMARK    7  A    between atoms: C_10  and  C_11
REMARK    8  A    between atoms: N_13  and  N_14
REMARK    9  A    between atoms: C_15  and  C_17
REMARK                            x       y       z     vdW  Elec       q    Type
REMARK                         _______ _______ _______ _____ _____    ______ ____
ROOT
ATOM      1  C   UNL     1      -3.385   1.084  -1.058  0.00  0.00    +0.055 A 
ATOM      2  C   UNL     1      -2.505   1.003   0.019  0.00  0.00    +0.043 A 
ATOM      3  C   UNL     1      -2.861   0.190   1.111  0.00  0.00    +0.129 A 
ATOM      4  N   UNL     1      -4.013  -0.469   1.072  0.00  0.00    -0.207 NA
ATOM      5  C   UNL     1      -4.817  -0.365   0.023  0.00  0.00    +0.191 A 
ATOM      6  N   UNL     1      -4.512   0.392  -1.022  0.00  0.00    -0.226 NA
ENDROOT
BRANCH   2   7
ATOM      7  C   UNL     1      -1.228   1.758   0.017  0.00  0.00    -0.013 A 
ATOM      8  C   UNL     1      -0.013   1.076   0.008  0.00  0.00    +0.010 A 
ATOM      9  C   UNL     1       1.172   1.783   0.000  0.00  0.00    +0.020 A 
ATOM     10  C   UNL     1       1.155   3.167   0.008  0.00  0.00    +0.041 A 
ATOM     11  C   UNL     1      -0.050   3.849   0.022  0.00  0.00    +0.020 A 
ATOM     12  C   UNL     1      -1.240   3.151   0.030  0.00  0.00    +0.010 A 
ATOM     13 CL   UNL     1       2.649   4.051  -0.002  0.00  0.00    -0.084 Cl
ENDBRANCH   2   7
BRANCH   3  14
ATOM     14  N   UNL     1      -2.025   0.079   2.208  0.00  0.00    -0.343 N 
ATOM     15  H   UNL     1      -2.312  -0.559   3.057  0.00  0.00    +0.144 HD
ATOM     16  H   UNL     1      -1.072   0.628   2.231  0.00  0.00    +0.144 HD
ENDBRANCH   3  14
BRANCH   1  18
ATOM     17  C   UNL     1      -2.283   1.117  -3.278  0.00  0.00    +0.010 C 
ATOM     18  C   UNL     1      -3.055   1.945  -2.250  0.00  0.00    +0.053 C 
ENDBRANCH   1  18
BRANCH   5  19
ATOM     19  S   UNL     1      -6.336  -1.258   0.018  0.00  0.00    -0.077 S 
BRANCH  19  20
ATOM     20  C   UNL     1      -6.224  -2.078   1.627  0.00  0.00    +0.174 C 
BRANCH  20  21
ATOM     21  C   UNL     1      -7.452  -2.924   1.847  0.00  0.00    +0.239 C 
ATOM     22  O   UNL     1      -8.318  -2.967   0.999  0.00  0.00    -0.273 OA
ATOM     23  N   UNL     1      -7.588  -3.632   2.986  0.00  0.00    -0.233 N 
ATOM     24  H   UNL     1      -6.802  -3.593   3.755  0.00  0.00    +0.173 HD
BRANCH  23  25
ATOM     25  N   UNL     1      -8.729  -4.418   3.190  0.00  0.00    -0.228 N 
ATOM     26  C   UNL     1      -8.865  -5.126   4.329  0.00  0.00    +0.295 C 
ATOM     27  O   UNL     1      -7.996  -5.082   5.180  0.00  0.00    -0.265 OA
ATOM     28  H   UNL     1      -9.515  -4.457   2.421  0.00  0.00    +0.173 HD
BRANCH  26  29
ATOM     29  C   UNL     1     -10.060  -5.948   4.543  0.00  0.00    +0.190 A 
ATOM     30  C   UNL     1     -10.323  -6.711   5.645  0.00  0.00    +0.054 A 
ATOM     31  C   UNL     1     -11.567  -7.322   5.425  0.00  0.00    +0.042 A 
ATOM     32  C   UNL     1     -12.004  -6.912   4.214  0.00  0.00    +0.196 A 
ATOM     33  O   UNL     1     -11.096  -6.080   3.688  0.00  0.00    -0.458 OA
ENDBRANCH  26  29
ENDBRANCH  23  25
ENDBRANCH  20  21
ENDBRANCH  19  20
ENDBRANCH   5  19
TORSDOF 8
