REMARK  Name = ZINC06364341
REMARK  8 active torsions:
REMARK  status: ('A' for Active; 'I' for Inactive)
REMARK    1  A    between atoms: C_1  and  C_2
REMARK    2  A    between atoms: C_2  and  C_3
REMARK    3  A    between atoms: C_2  and  C_4
REMARK    4  A    between atoms: C_4  and  C_5
REMARK    5  A    between atoms: N_7  and  C_8
REMARK    6  A    between atoms: C_11  and  C_14
REMARK    7  A    between atoms: N_16  and  N_17
REMARK    8  A    between atoms: N_20  and  C_21
REMARK                            x       y       z     vdW  Elec       q    Type
REMARK                         _______ _______ _______ _____ _____    ______ ____
ROOT
ATOM      1  C   UNL     1      -5.094   4.032   0.180  0.00  0.00    +0.260 C 
ATOM      2  O   UNL     1      -6.144   3.422   0.129  0.00  0.00    -0.269 OA
ATOM      3  N   UNL     1      -5.089   5.376   0.085  0.00  0.00    -0.229 N 
ATOM      4  H   UNL     1      -4.250   5.862   0.125  0.00  0.00    +0.173 HD
ENDROOT
BRANCH   1   8
ATOM      5  C   UNL     1      -1.438   1.924   0.659  0.00  0.00    +0.033 A 
ATOM      6  C   UNL     1      -1.431   3.312   0.566  0.00  0.00    +0.024 A 
ATOM      7  C   UNL     1      -2.614   3.998   0.406  0.00  0.00    +0.015 A 
ATOM      8  C   UNL     1      -3.823   3.299   0.347  0.00  0.00    +0.038 A 
ATOM      9  C   UNL     1      -3.826   1.905   0.446  0.00  0.00    +0.015 A 
ATOM     10  C   UNL     1      -2.639   1.225   0.601  0.00  0.00    +0.024 A 
BRANCH   5  13
ATOM     11  C   UNL     1       0.754   1.762   1.559  0.00  0.00    +0.217 C 
ATOM     12  O   UNL     1       0.633   2.875   2.025  0.00  0.00    -0.275 OA
ATOM     13  N   UNL     1      -0.237   1.232   0.816  0.00  0.00    -0.285 N 
ATOM     14  H   UNL     1      -0.115   0.370   0.387  0.00  0.00    +0.155 HD
BRANCH  11  15
ATOM     15  C   UNL     1       2.013   0.973   1.810  0.00  0.00    +0.099 C 
BRANCH  15  17
ATOM     16  C   UNL     1       4.191   0.951   3.032  0.00  0.00    +0.008 C 
ATOM     17  C   UNL     1       2.969   1.797   2.674  0.00  0.00    -0.008 C 
ATOM     18  C   UNL     1       3.417   3.038   1.898  0.00  0.00    +0.008 C 
ENDBRANCH  15  17
ENDBRANCH  11  15
ENDBRANCH   5  13
ENDBRANCH   1   8
BRANCH   3  19
ATOM     19  N   UNL     1      -6.295   6.071  -0.074  0.00  0.00    -0.218 N 
ATOM     20  C   UNL     1      -6.290   7.415  -0.169  0.00  0.00    +0.320 C 
ATOM     21  O   UNL     1      -7.337   8.019  -0.307  0.00  0.00    -0.251 OA
ATOM     22  N   UNL     1      -5.125   8.091  -0.113  0.00  0.00    -0.268 N 
ATOM     23  H   UNL     1      -7.133   5.585  -0.115  0.00  0.00    +0.174 HD
ATOM     24  H   UNL     1      -4.285   7.607  -0.078  0.00  0.00    +0.156 HD
BRANCH  22  25
ATOM     25  C   UNL     1      -5.128   9.491  -0.103  0.00  0.00    +0.035 A 
ATOM     26  C   UNL     1      -4.094  10.192  -0.709  0.00  0.00    +0.025 A 
ATOM     27  C   UNL     1      -4.101  11.573  -0.704  0.00  0.00    +0.022 A 
ATOM     28  C   UNL     1      -5.132  12.258  -0.085  0.00  0.00    +0.041 A 
ATOM     29  C   UNL     1      -6.161  11.562   0.525  0.00  0.00    +0.022 A 
ATOM     30  C   UNL     1      -6.161  10.181   0.517  0.00  0.00    +0.025 A 
ATOM     31 CL   UNL     1      -5.135  13.994  -0.073  0.00  0.00    -0.084 Cl
ENDBRANCH  22  25
ENDBRANCH   3  19
TORSDOF 6
