REMARK  Name = ZINC39383961
REMARK  7 active torsions:
REMARK  status: ('A' for Active; 'I' for Inactive)
REMARK    1  A    between atoms: C_7  and  C_10
REMARK    2  A    between atoms: C_10  and  C_11
REMARK    3  A    between atoms: C_11  and  N_12
REMARK    4  A    between atoms: C_13  and  C_15
REMARK    5  A    between atoms: C_15  and  C_16
REMARK    6  A    between atoms: C_20  and  N_23
REMARK    7  A    between atoms: C_24  and  C_26
REMARK                            x       y       z     vdW  Elec       q    Type
REMARK                         _______ _______ _______ _____ _____    ______ ____
ROOT
ATOM      1  N   UNL     1      -4.962   5.047  -1.362  0.00  0.00    -0.315 N 
ATOM      2  C   UNL     1      -5.120   5.719  -2.519  0.00  0.00    +0.215 C 
ATOM      3  O   UNL     1      -4.826   5.191  -3.571  0.00  0.00    -0.276 OA
ATOM      4  H   UNL     1      -5.197   5.469  -0.520  0.00  0.00    +0.149 HD
ENDROOT
BRANCH   1   5
ATOM      5  C   UNL     1      -4.437   3.680  -1.374  0.00  0.00    +0.109 C 
BRANCH   5   6
ATOM      6  C   UNL     1      -4.358   3.151   0.060  0.00  0.00    +0.056 C 
BRANCH   6  13
ATOM      7  C   UNL     1      -0.017   1.384   0.010  0.00  0.00    +0.001 A 
ATOM      8  C   UNL     1       0.002  -0.004   0.002  0.00  0.00    +0.002 A 
ATOM      9  C   UNL     1      -1.173  -0.723   0.009  0.00  0.00    +0.026 A 
ATOM     10  C   UNL     1      -2.392  -0.053   0.024  0.00  0.00    +0.047 A 
ATOM     11  N   UNL     1      -3.704  -0.472   0.034  0.00  0.00    -0.360 N 
ATOM     12  C   UNL     1      -4.539   0.612   0.047  0.00  0.00    +0.087 A 
ATOM     13  C   UNL     1      -3.818   1.744   0.047  0.00  0.00    -0.021 A 
ATOM     14  C   UNL     1      -2.406   1.353   0.032  0.00  0.00    +0.003 A 
ATOM     15  C   UNL     1      -1.203   2.062   0.030  0.00  0.00    +0.010 A 
ATOM     16  H   UNL     1      -3.993  -1.398   0.030  0.00  0.00    +0.165 HD
ENDBRANCH   6  13
ENDBRANCH   5   6
ENDBRANCH   1   5
BRANCH   2  17
ATOM     17  C   UNL     1      -5.660   7.126  -2.507  0.00  0.00    +0.115 C 
BRANCH  17  18
ATOM     18  C   UNL     1      -5.739   7.655  -3.941  0.00  0.00    +0.075 C 
ATOM     19  C   UNL     1      -6.171   9.152  -3.924  0.00  0.00    +0.091 C 
ATOM     20  S   UNL     1      -6.780   9.305  -5.659  0.00  0.00    -0.121 S 
ATOM     21  C   UNL     1      -7.058   7.518  -6.006  0.00  0.00    +0.202 C 
ATOM     22  N   UNL     1      -6.743   6.886  -4.699  0.00  0.00    -0.286 NA
ATOM     23  H   UNL     1      -6.448   5.929  -4.823  0.00  0.00    +0.125 HD
BRANCH  21  24
ATOM     24  N   UNL     1      -8.452   7.273  -6.383  0.00  0.00    -0.285 N 
ATOM     25  C   UNL     1      -8.883   7.596  -7.619  0.00  0.00    +0.281 C 
ATOM     26  O   UNL     1      -8.114   8.092  -8.421  0.00  0.00    -0.267 OA
ATOM     27  H   UNL     1      -9.066   6.877  -5.744  0.00  0.00    +0.151 HD
BRANCH  25  28
ATOM     28  C   UNL     1     -10.278   7.350  -7.997  0.00  0.00    +0.189 A 
ATOM     29  C   UNL     1     -10.841   7.624  -9.211  0.00  0.00    +0.054 A 
ATOM     30  C   UNL     1     -12.186   7.229  -9.130  0.00  0.00    +0.042 A 
ATOM     31  C   UNL     1     -12.383   6.739  -7.886  0.00  0.00    +0.196 A 
ATOM     32  O   UNL     1     -11.230   6.809  -7.208  0.00  0.00    -0.458 OA
ENDBRANCH  25  28
ENDBRANCH  21  24
ENDBRANCH  17  18
ENDBRANCH   2  17
TORSDOF 7
