REMARK  Name = ZINC17092860
REMARK  7 active torsions:
REMARK  status: ('A' for Active; 'I' for Inactive)
REMARK    1  A    between atoms: C_1  and  C_2
REMARK    2  A    between atoms: C_9  and  N_14
REMARK    3  A    between atoms: C_10  and  C_11
REMARK    4  A    between atoms: N_14  and  C_15
REMARK    5  A    between atoms: C_15  and  N_17
REMARK    6  A    between atoms: C_18  and  C_20
REMARK    7  A    between atoms: C_20  and  C_21
REMARK                            x       y       z     vdW  Elec       q    Type
REMARK                         _______ _______ _______ _____ _____    ______ ____
ROOT
ATOM      1  N   UNL     1      -2.305  -5.916   0.763  0.00  0.00    -0.291 N 
ATOM      2  H   UNL     1      -1.723  -6.620   1.090  0.00  0.00    +0.154 HD
ENDROOT
BRANCH   1  10
ATOM      3  C   UNL     1      -0.019   1.526   0.010  0.00  0.00    +0.008 C 
ATOM      4  C   UNL     1       0.002  -0.004   0.002  0.00  0.00    -0.009 C 
ATOM      5  C   UNL     1       0.742  -0.514   1.242  0.00  0.00    +0.008 C 
ATOM      6  C   UNL     1       0.984  -2.020   1.121  0.00  0.00    +0.037 C 
ATOM      7  C   UNL     1      -0.340  -2.706   0.809  0.00  0.00    -0.023 A 
ATOM      8  C   UNL     1      -1.390  -2.006   0.327  0.00  0.00    -0.004 A 
ATOM      9  S   UNL     1      -2.678  -3.203   0.125  0.00  0.00    -0.077 S 
ATOM     10  C   UNL     1      -1.837  -4.615   0.673  0.00  0.00    +0.084 A 
ATOM     11  C   UNL     1      -0.579  -4.127   0.999  0.00  0.00    +0.068 A 
ATOM     12  C   UNL     1      -1.437  -0.538   0.030  0.00  0.00    +0.046 C 
BRANCH  11  13
ATOM     13  C   UNL     1       0.469  -5.011   1.516  0.00  0.00    +0.244 C 
ATOM     14  O   UNL     1       0.577  -5.192   2.715  0.00  0.00    -0.270 OA
ATOM     15  N   UNL     1       1.314  -5.625   0.663  0.00  0.00    -0.325 N 
ATOM     16  H   UNL     1       1.228  -5.480  -0.292  0.00  0.00    +0.145 HD
ATOM     17  H   UNL     1       2.008  -6.210   1.005  0.00  0.00    +0.145 HD
ENDBRANCH  11  13
ENDBRANCH   1  10
BRANCH   1  18
ATOM     18  C   UNL     1      -3.570  -6.204   0.396  0.00  0.00    +0.141 C 
ATOM     19  S   UNL     1      -4.597  -4.962  -0.181  0.00  0.00    -0.018 S 
BRANCH  18  20
ATOM     20  N   UNL     1      -4.026  -7.469   0.484  0.00  0.00    -0.267 N 
ATOM     21  C   UNL     1      -5.290  -7.757   0.117  0.00  0.00    +0.223 C 
ATOM     22  O   UNL     1      -6.018  -6.877  -0.292  0.00  0.00    -0.275 OA
ATOM     23  H   UNL     1      -3.443  -8.172   0.811  0.00  0.00    +0.157 HD
BRANCH  21  24
ATOM     24  C   UNL     1      -5.800  -9.171   0.215  0.00  0.00    +0.131 C 
BRANCH  24  25
ATOM     25  C   UNL     1      -7.231  -9.223  -0.252  0.00  0.00    -0.039 A 
ATOM     26  C   UNL     1      -8.261  -9.041   0.653  0.00  0.00    +0.005 A 
ATOM     27  C   UNL     1      -9.574  -9.082   0.224  0.00  0.00    +0.020 A 
ATOM     28  C   UNL     1      -9.859  -9.318  -1.109  0.00  0.00    +0.041 A 
ATOM     29  C   UNL     1      -8.829  -9.506  -2.014  0.00  0.00    +0.020 A 
ATOM     30  C   UNL     1      -7.516  -9.458  -1.585  0.00  0.00    +0.005 A 
ATOM     31 CL   UNL     1     -11.508  -9.377  -1.647  0.00  0.00    -0.084 Cl
ENDBRANCH  24  25
ENDBRANCH  21  24
ENDBRANCH  18  20
ENDBRANCH   1  18
TORSDOF 6
