REMARK  Name = ZINC03336480
REMARK  5 active torsions:
REMARK  status: ('A' for Active; 'I' for Inactive)
REMARK    1  A    between atoms: C_1  and  O_2
REMARK    2  A    between atoms: O_2  and  C_3
REMARK    3  A    between atoms: C_8  and  N_9
REMARK    4  A    between atoms: C_10  and  C_12
REMARK    5  A    between atoms: C_14  and  C_22
REMARK                            x       y       z     vdW  Elec       q    Type
REMARK                         _______ _______ _______ _____ _____    ______ ____
ROOT
ATOM      1  C   UNL     1      -1.329   1.945   0.035  0.00  0.00    +0.144 C 
ATOM      2  C   UNL     1      -2.489   0.940   0.037  0.00  0.00    +0.126 C 
ATOM      3  N   UNL     1      -3.740   1.641   0.321  0.00  0.00    -0.318 N 
ATOM      4  C   UNL     1      -3.793   2.732   1.097  0.00  0.00    +0.135 C 
ATOM      5  S   UNL     1      -5.321   3.420   1.449  0.00  0.00    -0.019 S 
ATOM      6  N   UNL     1      -2.690   3.307   1.611  0.00  0.00    -0.300 N 
ATOM      7  C   UNL     1      -1.436   2.769   1.303  0.00  0.00    +0.016 C 
ATOM      8  C   UNL     1      -0.391   2.970   2.083  0.00  0.00    +0.029 C 
ATOM      9  H   UNL     1      -4.563   1.304  -0.067  0.00  0.00    +0.148 HD
ATOM     10  H   UNL     1      -2.764   4.083   2.187  0.00  0.00    +0.154 HD
ENDROOT
BRANCH   2  11
ATOM     11  C   UNL     1      -2.246  -0.104   1.097  0.00  0.00    +0.011 A 
ATOM     12  C   UNL     1      -1.766  -1.364   0.959  0.00  0.00    +0.013 A 
ATOM     13  C   UNL     1      -1.621  -2.154   2.084  0.00  0.00    +0.008 A 
ATOM     14  C   UNL     1      -1.975  -1.648   3.291  0.00  0.00    +0.045 A 
ATOM     15  S   UNL     1      -2.524  -0.006   2.857  0.00  0.00    -0.100 S 
ENDBRANCH   2  11
BRANCH   1  17
ATOM     16  N   UNL     1       1.143   1.899   0.001  0.00  0.00    -0.282 N 
ATOM     17  C   UNL     1      -0.015   1.209   0.013  0.00  0.00    +0.228 C 
ATOM     18  O   UNL     1       0.002  -0.004  -0.001  0.00  0.00    -0.275 OA
ATOM     19  H   UNL     1       1.131   2.866  -0.069  0.00  0.00    +0.155 HD
BRANCH  16  25
ATOM     20  C   UNL     1       3.525   1.792  -0.424  0.00  0.00    +0.143 A 
ATOM     21  C   UNL     1       4.731   1.118  -0.327  0.00  0.00    +0.067 A 
ATOM     22  C   UNL     1       4.780  -0.129   0.271  0.00  0.00    +0.045 A 
ATOM     23  C   UNL     1       3.627  -0.703   0.778  0.00  0.00    +0.022 A 
ATOM     24  C   UNL     1       2.422  -0.033   0.690  0.00  0.00    +0.028 A 
ATOM     25  C   UNL     1       2.365   1.218   0.092  0.00  0.00    +0.076 A 
ATOM     26 CL   UNL     1       6.291  -0.976   0.385  0.00  0.00    -0.083 Cl
BRANCH  20  28
ATOM     27  C   UNL     1       4.702   3.543  -1.522  0.00  0.00    +0.277 C 
ATOM     28  O   UNL     1       3.474   3.015  -1.016  0.00  0.00    -0.493 OA
ENDBRANCH  20  28
ENDBRANCH  16  25
ENDBRANCH   1  17
TORSDOF 4
