REMARK  Name = ZINC20624042
REMARK  4 active torsions:
REMARK  status: ('A' for Active; 'I' for Inactive)
REMARK    1  A    between atoms: C_4  and  C_7
REMARK    2  A    between atoms: C_7  and  C_8
REMARK    3  A    between atoms: C_8  and  N_9
REMARK    4  A    between atoms: C_12  and  C_19
REMARK                            x       y       z     vdW  Elec       q    Type
REMARK                         _______ _______ _______ _____ _____    ______ ____
ROOT
ATOM      1  N   UNL     1       3.712   2.640  -0.019  0.00  0.00    -0.260 N 
ATOM      2  C   UNL     1       2.634   3.449  -0.005  0.00  0.00    +0.262 A 
ATOM      3  O   UNL     1       2.774   4.659   0.000  0.00  0.00    -0.267 OA
ATOM      4  C   UNL     1       1.345   2.886   0.005  0.00  0.00    +0.073 A 
ATOM      5  C   UNL     1       1.214   1.529  -0.001  0.00  0.00    +0.260 A 
ATOM      6  N   UNL     1       2.339   0.743  -0.011  0.00  0.00    -0.275 N 
ATOM      7  H   UNL     1       2.244  -0.353  -0.006  0.00  0.00    +0.173 HD
ATOM      8  C   UNL     1       3.562   1.303  -0.025  0.00  0.00    +0.332 A 
ATOM      9  O   UNL     1       4.547   0.590  -0.038  0.00  0.00    -0.246 OA
ATOM     10  O   UNL     1      -0.011   0.963   0.007  0.00  0.00    -0.267 OA
ENDROOT
BRANCH   4  11
ATOM     11  C   UNL     1       0.125   3.770   0.021  0.00  0.00    +0.018 C 
ATOM     12  C   UNL     1       0.060   4.569  -1.260  0.00  0.00    +0.011 A 
ATOM     13  C   UNL     1      -0.245   5.889  -1.287  0.00  0.00    -0.022 A 
ATOM     14  C   UNL     1      -0.202   6.308  -2.670  0.00  0.00    +0.004 A 
ATOM     15  C   UNL     1      -0.426   7.536  -3.300  0.00  0.00    +0.030 A 
ATOM     16  C   UNL     1      -0.294   7.568  -4.667  0.00  0.00    +0.042 A 
ATOM     17  C   UNL     1       0.046   6.441  -5.399  0.00  0.00    +0.022 A 
ATOM     18  C   UNL     1       0.274   5.213  -4.802  0.00  0.00    +0.027 A 
ATOM     19  C   UNL     1       0.146   5.152  -3.416  0.00  0.00    +0.047 A 
ATOM     20  N   UNL     1       0.297   4.124  -2.529  0.00  0.00    -0.359 N 
ATOM     21  H   UNL     1       0.563   3.071  -2.701  0.00  0.00    +0.166 HD
ATOM     22 CL   UNL     1      -0.561   9.065  -5.503  0.00  0.00    -0.084 Cl
ATOM     23  C   UNL     1      -0.563   6.697  -0.053  0.00  0.00    +0.018 C 
ATOM     24  C   UNL     1      -0.857   5.718   1.092  0.00  0.00    -0.076 C 
ATOM     25  N   UNL     1       0.206   4.705   1.155  0.00  0.00    +0.388 N 
ATOM     26  H   UNL     1       0.102   4.147   2.097  0.00  0.00    -0.084 HD
ATOM     27  H   UNL     1       1.179   5.218   1.138  0.00  0.00    -0.084 HD
ENDBRANCH   4  11
BRANCH   1  28
ATOM     28  C   UNL     1       5.056   3.221  -0.029  0.00  0.00    +0.134 C 
BRANCH  28  29
ATOM     29  C   UNL     1       5.538   3.416   1.411  0.00  0.00    +0.057 C 
BRANCH  29  33
ATOM     30  C   UNL     1       9.459   5.111   1.384  0.00  0.00    +0.000 A 
ATOM     31  C   UNL     1       8.349   5.935   1.399  0.00  0.00    +0.000 A 
ATOM     32  C   UNL     1       7.081   5.387   1.407  0.00  0.00    +0.004 A 
ATOM     33  C   UNL     1       6.921   4.014   1.401  0.00  0.00    -0.046 A 
ATOM     34  C   UNL     1       8.031   3.189   1.392  0.00  0.00    +0.004 A 
ATOM     35  C   UNL     1       9.299   3.738   1.378  0.00  0.00    +0.000 A 
ENDBRANCH  29  33
ENDBRANCH  28  29
ENDBRANCH   1  28
TORSDOF 4
