REMARK  Name = ZINC01248401
REMARK  8 active torsions:
REMARK  status: ('A' for Active; 'I' for Inactive)
REMARK    1  A    between atoms: C_1  and  C_2
REMARK    2  A    between atoms: C_2  and  C_3
REMARK    3  A    between atoms: C_3  and  C_29
REMARK    4  A    between atoms: C_10  and  N_26
REMARK    5  A    between atoms: C_12  and  S_14
REMARK    6  A    between atoms: S_14  and  C_15
REMARK    7  A    between atoms: C_15  and  C_16
REMARK    8  A    between atoms: N_18  and  C_19
REMARK                            x       y       z     vdW  Elec       q    Type
REMARK                         _______ _______ _______ _____ _____    ______ ____
ROOT
ATOM      1  C   UNL     1      -0.907   2.337  -0.538  0.00  0.00    +0.071 C 
ATOM      2  C   UNL     1      -0.261   1.713  -1.778  0.00  0.00    +0.071 C 
ATOM      3  C   UNL     1      -0.862   2.380  -3.014  0.00  0.00    -0.020 A 
ATOM      4  C   UNL     1      -1.508   3.562  -2.882  0.00  0.00    +0.021 A 
ATOM      5  S   UNL     1      -2.046   3.985  -4.517  0.00  0.00    -0.071 S 
ATOM      6  C   UNL     1      -1.407   2.582  -5.376  0.00  0.00    +0.115 A 
ATOM      7  C   UNL     1      -0.788   1.820  -4.351  0.00  0.00    +0.051 A 
ATOM      8  C   UNL     1      -0.166   0.599  -4.741  0.00  0.00    +0.129 A 
ATOM      9  N   UNL     1      -0.232   0.298  -6.036  0.00  0.00    -0.207 NA
ATOM     10  C   UNL     1      -0.829   1.059  -6.941  0.00  0.00    +0.191 A 
ATOM     11  N   UNL     1      -1.429   2.213  -6.641  0.00  0.00    -0.214 NA
ATOM     12  C   UNL     1      -1.707   4.325  -1.610  0.00  0.00    +0.203 C 
ATOM     13  O   UNL     1      -0.838   3.764  -0.614  0.00  0.00    -0.368 OA
ATOM     14  C   UNL     1      -2.372   1.903  -0.459  0.00  0.00    +0.042 C 
ENDROOT
BRANCH   8  15
ATOM     15  N   UNL     1       0.468  -0.225  -3.829  0.00  0.00    -0.343 N 
ATOM     16  H   UNL     1       0.569   0.059  -2.907  0.00  0.00    +0.144 HD
ATOM     17  H   UNL     1       0.812  -1.087  -4.111  0.00  0.00    +0.144 HD
ENDBRANCH   8  15
BRANCH   1  19
ATOM     18  C   UNL     1      -0.895   2.368   1.960  0.00  0.00    +0.007 C 
ATOM     19  C   UNL     1      -0.168   1.860   0.714  0.00  0.00    +0.032 C 
ENDBRANCH   1  19
BRANCH  10  20
ATOM     20  S   UNL     1      -0.832   0.522  -8.620  0.00  0.00    -0.077 S 
BRANCH  20  21
ATOM     21  C   UNL     1       0.080  -1.033  -8.454  0.00  0.00    +0.173 C 
BRANCH  21  22
ATOM     22  C   UNL     1       0.204  -1.689  -9.805  0.00  0.00    +0.227 C 
ATOM     23  O   UNL     1      -0.277  -1.157 -10.784  0.00  0.00    -0.275 OA
ATOM     24  N   UNL     1       0.849  -2.866  -9.926  0.00  0.00    -0.285 N 
ATOM     25  H   UNL     1       1.164  -3.330  -9.135  0.00  0.00    +0.155 HD
BRANCH  24  26
ATOM     26  C   UNL     1       1.065  -3.418 -11.194  0.00  0.00    +0.033 A 
ATOM     27  C   UNL     1       1.040  -4.796 -11.366  0.00  0.00    +0.024 A 
ATOM     28  C   UNL     1       1.249  -5.338 -12.619  0.00  0.00    +0.017 A 
ATOM     29  C   UNL     1       1.493  -4.511 -13.700  0.00  0.00    +0.018 A 
ATOM     30  C   UNL     1       1.525  -3.138 -13.531  0.00  0.00    +0.017 A 
ATOM     31  C   UNL     1       1.311  -2.590 -12.281  0.00  0.00    +0.024 A 
ATOM     32 BR   UNL     1       1.785  -5.257 -15.413  0.00  0.00    -0.050 Br
ENDBRANCH  24  26
ENDBRANCH  21  22
ENDBRANCH  20  21
ENDBRANCH  10  20
TORSDOF 6
