REMARK  Name = ZINC44988328
REMARK  5 active torsions:
REMARK  status: ('A' for Active; 'I' for Inactive)
REMARK    1  A    between atoms: C_1  and  C_2
REMARK    2  A    between atoms: C_4  and  C_7
REMARK    3  A    between atoms: C_7  and  N_8
REMARK    4  A    between atoms: N_8  and  C_9
REMARK    5  A    between atoms: C_14  and  N_15
REMARK                            x       y       z     vdW  Elec       q    Type
REMARK                         _______ _______ _______ _____ _____    ______ ____
ROOT
ATOM      1  C   UNL     1       1.691  -4.797  -2.748  0.00  0.00    +0.050 A 
ATOM      2  C   UNL     1       0.644  -5.530  -3.281  0.00  0.00    +0.048 A 
ATOM      3  C   UNL     1       0.904  -6.629  -4.097  0.00  0.00    +0.039 A 
ATOM      4  C   UNL     1       2.222  -6.976  -4.365  0.00  0.00    -0.016 A 
ATOM      5  C   UNL     1       3.268  -6.250  -3.838  0.00  0.00    +0.030 A 
ATOM      6  C   UNL     1       3.010  -5.152  -3.029  0.00  0.00    +0.046 A 
ATOM      7  C   UNL     1       2.168  -8.190  -5.264  0.00  0.00    +0.133 C 
ATOM      8  C   UNL     1       0.688  -8.451  -5.443  0.00  0.00    +0.222 C 
ATOM      9  O   UNL     1       0.188  -9.342  -6.097  0.00  0.00    -0.275 OA
ATOM     10  N   UNL     1       0.032  -7.511  -4.742  0.00  0.00    -0.285 N 
ATOM     11  H   UNL     1      -0.934  -7.452  -4.689  0.00  0.00    +0.155 HD
ENDROOT
BRANCH   6  12
ATOM     12  N   UNL     1       4.070  -4.406  -2.494  0.00  0.00    -0.357 N 
ATOM     13  H   UNL     1       3.887  -3.641  -1.927  0.00  0.00    +0.142 HD
ATOM     14  H   UNL     1       4.987  -4.655  -2.692  0.00  0.00    +0.142 HD
ENDBRANCH   6  12
BRANCH   1  15
ATOM     15  N   UNL     1       1.424  -3.694  -1.928  0.00  0.00    -0.335 N 
ATOM     16  H   UNL     1       2.156  -3.177  -1.557  0.00  0.00    +0.147 HD
BRANCH  15  17
ATOM     17  C   UNL     1       0.039  -3.320  -1.631  0.00  0.00    +0.178 C 
BRANCH  17  21
ATOM     18  C   UNL     1      -0.018   1.503   0.010  0.00  0.00    +0.069 C 
ATOM     19  C   UNL     1       0.002  -0.004   0.002  0.00  0.00    +0.081 A 
ATOM     20  C   UNL     1       0.008  -0.824  -1.141  0.00  0.00    +0.072 A 
ATOM     21  C   UNL     1       0.027  -2.108  -0.735  0.00  0.00    +0.154 A 
ATOM     22  O   UNL     1       0.034  -2.119   0.606  0.00  0.00    -0.358 OA
ATOM     23  N   UNL     1       0.023  -0.775   1.052  0.00  0.00    -0.083 NA
ENDBRANCH  17  21
ENDBRANCH  15  17
ENDBRANCH   1  15
TORSDOF 4
