REMARK  Name = ZINC34382083
REMARK  3 active torsions:
REMARK  status: ('A' for Active; 'I' for Inactive)
REMARK    1  A    between atoms: N_4  and  C_6
REMARK    2  A    between atoms: C_10  and  S_12
REMARK    3  A    between atoms: S_12  and  N_15
REMARK                            x       y       z     vdW  Elec       q    Type
REMARK                         _______ _______ _______ _____ _____    ______ ____
ROOT
ATOM      1  C   UNL     1       1.744  -1.744  -0.024  0.00  0.00    +0.048 A 
ATOM      2  C   UNL     1       3.103  -2.029  -0.034  0.00  0.00    +0.026 A 
ATOM      3  C   UNL     1       3.532  -3.341  -0.045  0.00  0.00    +0.004 A 
ATOM      4  C   UNL     1       2.610  -4.372  -0.047  0.00  0.00    +0.028 A 
ATOM      5  C   UNL     1       1.256  -4.092  -0.038  0.00  0.00    +0.107 A 
ATOM      6  C   UNL     1       0.821  -2.781  -0.021  0.00  0.00    +0.054 A 
ENDROOT
BRANCH   1  10
ATOM      7  C   UNL     1      -0.016   1.344   0.009  0.00  0.00    +0.019 A 
ATOM      8  C   UNL     1       1.322   1.786  -0.001  0.00  0.00    +0.019 A 
ATOM      9  C   UNL     1       2.109   0.691  -0.014  0.00  0.00    +0.091 A 
ATOM     10  N   UNL     1       1.305  -0.413  -0.013  0.00  0.00    -0.323 N 
ATOM     11  C   UNL     1       0.002  -0.004   0.002  0.00  0.00    +0.091 A 
ENDBRANCH   1  10
BRANCH   5  12
ATOM     12  S   UNL     1       0.085  -5.408  -0.042  0.00  0.00    +0.056 S 
ATOM     13  O   UNL     1      -1.118  -4.880  -0.583  0.00  0.00    -0.153 OA
ATOM     14  O   UNL     1       0.743  -6.535  -0.604  0.00  0.00    -0.153 OA
BRANCH  12  15
ATOM     15  N   UNL     1      -0.233  -5.786   1.539  0.00  0.00    -0.204 NA
ATOM     16  H   UNL     1      -1.102  -6.135   1.789  0.00  0.00    +0.144 HD
ATOM     17  H   UNL     1       0.451  -5.657   2.215  0.00  0.00    +0.144 HD
ENDBRANCH  12  15
ENDBRANCH   5  12
TORSDOF 3
