REMARK  Name = ZINC37835224
REMARK  4 active torsions:
REMARK  status: ('A' for Active; 'I' for Inactive)
REMARK    1  A    between atoms: C_1  and  C_2
REMARK    2  A    between atoms: C_6  and  C_23
REMARK    3  A    between atoms: C_10  and  C_12
REMARK    4  A    between atoms: C_18  and  C_20
REMARK                            x       y       z     vdW  Elec       q    Type
REMARK                         _______ _______ _______ _____ _____    ______ ____
ROOT
ATOM      1  C   UNL     1      -0.081   1.527   0.063  0.00  0.00    +0.028 C 
ATOM      2  C   UNL     1       0.223   0.045  -0.161  0.00  0.00    +0.073 C 
ATOM      3  C   UNL     1      -1.089  -0.744  -0.227  0.00  0.00    +0.023 C 
ATOM      4  C   UNL     1      -0.776  -2.240  -0.312  0.00  0.00    +0.016 C 
ATOM      5  C   UNL     1      -0.013  -2.675   0.941  0.00  0.00    +0.092 C 
ATOM      6  C   UNL     1       1.311  -1.908   1.020  0.00  0.00    +0.120 C 
ATOM      7  N   UNL     1       1.030  -0.467   0.954  0.00  0.00    -0.298 N 
ATOM      8  C   UNL     1       1.502   0.368   1.901  0.00  0.00    +0.220 C 
ATOM      9  O   UNL     1       1.193   1.541   1.883  0.00  0.00    -0.275 OA
ENDROOT
BRANCH   8  10
ATOM     10  C   UNL     1       2.412  -0.154   2.982  0.00  0.00    +0.089 C 
ATOM     11  C   UNL     1       1.621  -1.075   3.914  0.00  0.00    +0.013 C 
ATOM     12  C   UNL     1       0.471  -0.290   4.550  0.00  0.00    +0.001 C 
ATOM     13  C   UNL     1       1.037   0.883   5.352  0.00  0.00    +0.001 C 
ATOM     14  C   UNL     1       1.828   1.804   4.420  0.00  0.00    +0.015 C 
ATOM     15  C   UNL     1       2.977   1.019   3.784  0.00  0.00    +0.114 C 
BRANCH  15  16
ATOM     16  C   UNL     1       3.757   1.926   2.867  0.00  0.00    +0.360 C 
ATOM     17  O   UNL     1       3.825   3.120   3.103  0.00  0.00    -0.246 OA
ATOM     18  O   UNL     1       4.319   1.465   1.888  0.00  0.00    -0.246 OA
ENDBRANCH  15  16
ENDBRANCH   8  10
BRANCH   5  19
ATOM     19  C   UNL     1       0.266  -4.155   0.872  0.00  0.00    +0.215 C 
ATOM     20  O   UNL     1       1.410  -4.558   0.887  0.00  0.00    -0.276 OA
ATOM     21  N   UNL     1      -0.756  -5.030   0.793  0.00  0.00    -0.329 N 
ATOM     22  H   UNL     1      -1.671  -4.708   0.780  0.00  0.00    +0.145 HD
ATOM     23  H   UNL     1      -0.577  -5.982   0.748  0.00  0.00    +0.145 HD
ENDBRANCH   5  19
TORSDOF 3
