REMARK  Name = ZINC02194050
REMARK  9 active torsions:
REMARK  status: ('A' for Active; 'I' for Inactive)
REMARK    1  A    between atoms: C_1  and  C_2
REMARK    2  A    between atoms: C_2  and  C_3
REMARK    3  A    between atoms: C_2  and  N_4
REMARK    4  A    between atoms: C_8  and  C_9
REMARK    5  A    between atoms: C_10  and  N_20
REMARK    6  A    between atoms: C_26  and  C_28
REMARK    7  A    between atoms: C_28  and  C_29
REMARK    8  A    between atoms: C_29  and  O_31
REMARK    9  A    between atoms: O_31  and  C_32
REMARK                            x       y       z     vdW  Elec       q    Type
REMARK                         _______ _______ _______ _____ _____    ______ ____
ROOT
ATOM      1  C   UNL     1      -6.715   1.793   1.372  0.00  0.00    +0.081 A 
ATOM      2  C   UNL     1      -7.931   2.506   1.501  0.00  0.00    +0.137 A 
ATOM      3  N   UNL     1      -9.009   1.882   1.951  0.00  0.00    -0.214 NA
ATOM      4  C   UNL     1      -8.982   0.593   2.288  0.00  0.00    +0.142 A 
ATOM      5  C   UNL     1     -10.159  -0.017   2.759  0.00  0.00    +0.047 A 
ATOM      6  C   UNL     1     -10.141  -1.335   3.106  0.00  0.00    +0.005 A 
ATOM      7  C   UNL     1      -8.951  -2.065   2.988  0.00  0.00    +0.018 A 
ATOM      8  C   UNL     1      -7.829  -1.463   2.532  0.00  0.00    +0.096 A 
ATOM      9  N   UNL     1      -7.836  -0.146   2.183  0.00  0.00    -0.268 N 
ATOM     10  C   UNL     1      -6.699   0.423   1.727  0.00  0.00    +0.267 A 
ATOM     11  O   UNL     1      -5.676  -0.231   1.627  0.00  0.00    -0.267 OA
ENDROOT
BRANCH   1  16
ATOM     12  N   UNL     1      -4.777   4.280  -2.173  0.00  0.00    -0.253 N 
ATOM     13  C   UNL     1      -4.535   3.805  -0.964  0.00  0.00    +0.259 C 
ATOM     14  O   UNL     1      -3.475   4.026  -0.404  0.00  0.00    -0.269 OA
ATOM     15  C   UNL     1      -5.548   3.028  -0.333  0.00  0.00    +0.077 C 
ATOM     16  C   UNL     1      -5.547   2.432   0.895  0.00  0.00    +0.037 C 
ATOM     17  S   UNL     1      -6.821   3.045  -1.588  0.00  0.00    -0.061 S 
ATOM     18  C   UNL     1      -5.954   4.039  -2.792  0.00  0.00    +0.121 C 
ATOM     19  S   UNL     1      -6.480   4.554  -4.338  0.00  0.00    -0.027 S 
BRANCH  12  21
ATOM     20  C   UNL     1      -4.319   6.473  -3.153  0.00  0.00    +0.028 C 
ATOM     21  C   UNL     1      -3.756   5.083  -2.851  0.00  0.00    +0.077 C 
ATOM     22  C   UNL     1      -3.355   4.400  -4.160  0.00  0.00    +0.028 C 
ENDBRANCH  12  21
ENDBRANCH   1  16
BRANCH   2  23
ATOM     23  N   UNL     1      -7.992   3.840   1.162  0.00  0.00    -0.301 N 
ATOM     24  C   UNL     1      -7.169   4.654   2.072  0.00  0.00    +0.126 C 
ATOM     25  C   UNL     1      -7.021   6.056   1.479  0.00  0.00    +0.123 C 
ATOM     26  N   UNL     1      -8.331   6.584   1.109  0.00  0.00    -0.312 N 
ATOM     27  C   UNL     1      -9.408   5.808   0.947  0.00  0.00    +0.234 C 
ATOM     28  O   UNL     1     -10.451   6.325   0.608  0.00  0.00    -0.274 OA
ATOM     29  C   UNL     1      -9.379   4.322   1.167  0.00  0.00    +0.171 C 
ATOM     30  H   UNL     1      -8.425   7.540   0.975  0.00  0.00    +0.149 HD
BRANCH  29  31
ATOM     31  C   UNL     1     -10.161   3.628   0.050  0.00  0.00    +0.152 C 
BRANCH  31  32
ATOM     32  C   UNL     1     -11.623   3.977   0.168  0.00  0.00    +0.309 C 
ATOM     33  O   UNL     1     -12.021   4.591   1.129  0.00  0.00    -0.251 OA
BRANCH  32  34
ATOM     34  O   UNL     1     -12.482   3.605  -0.794  0.00  0.00    -0.468 OA
ATOM     35  C   UNL     1     -13.874   3.975  -0.614  0.00  0.00    +0.280 C 
ENDBRANCH  32  34
ENDBRANCH  31  32
ENDBRANCH  29  31
ENDBRANCH   2  23
TORSDOF 6
