REMARK  Name = ZINC01431856
REMARK  6 active torsions:
REMARK  status: ('A' for Active; 'I' for Inactive)
REMARK    1  A    between atoms: C_1  and  C_2
REMARK    2  A    between atoms: C_2  and  C_3
REMARK    3  A    between atoms: C_2  and  N_4
REMARK    4  A    between atoms: N_4  and  C_5
REMARK    5  A    between atoms: C_8  and  N_11
REMARK    6  A    between atoms: C_20  and  C_22
REMARK                            x       y       z     vdW  Elec       q    Type
REMARK                         _______ _______ _______ _____ _____    ______ ____
ROOT
ATOM      1  C   UNL     1      -1.009   0.525   2.083  0.00  0.00    +0.037 A 
ATOM      2  C   UNL     1      -0.847  -0.827   1.808  0.00  0.00    +0.025 A 
ATOM      3  C   UNL     1      -0.998  -1.759   2.814  0.00  0.00    +0.031 A 
ATOM      4  C   UNL     1      -1.323  -1.346   4.100  0.00  0.00    +0.086 A 
ATOM      5  C   UNL     1      -1.491   0.006   4.374  0.00  0.00    +0.031 A 
ATOM      6  C   UNL     1      -1.334   0.938   3.369  0.00  0.00    +0.025 A 
ENDROOT
BRANCH   4   7
ATOM      7  N   UNL     1      -1.481  -2.292   5.120  0.00  0.00    -0.149 N 
ATOM      8  N   UNL     1      -1.775  -1.986   6.336  0.00  0.00    -0.147 NA
ATOM      9  C   UNL     1      -1.855  -3.099   7.050  0.00  0.00    +0.113 A 
ATOM     10  C   UNL     1      -2.133  -3.434   8.386  0.00  0.00    +0.032 A 
ATOM     11  C   UNL     1      -2.117  -4.739   8.765  0.00  0.00    +0.002 A 
ATOM     12  C   UNL     1      -1.832  -5.763   7.860  0.00  0.00    +0.002 A 
ATOM     13  C   UNL     1      -1.555  -5.506   6.555  0.00  0.00    +0.032 A 
ATOM     14  C   UNL     1      -1.554  -4.177   6.096  0.00  0.00    +0.113 A 
ATOM     15  N   UNL     1      -1.341  -3.560   4.945  0.00  0.00    -0.147 NA
ENDBRANCH   4   7
BRANCH   1  16
ATOM     16  N   UNL     1      -0.850   1.470   1.064  0.00  0.00    -0.265 N 
ATOM     17  C   UNL     1      -0.897   2.785   1.352  0.00  0.00    +0.258 C 
ATOM     18  O   UNL     1      -1.332   3.158   2.426  0.00  0.00    -0.269 OA
BRANCH  17  19
ATOM     19  C   UNL     1      -0.423   3.767   0.373  0.00  0.00    +0.074 A 
ATOM     20  C   UNL     1      -0.488   5.151   0.421  0.00  0.00    +0.021 A 
ATOM     21  C   UNL     1       0.038   5.839  -0.644  0.00  0.00    +0.008 A 
ATOM     22  C   UNL     1       0.587   5.146  -1.676  0.00  0.00    +0.046 A 
ATOM     23  S   UNL     1       0.395   3.493  -1.189  0.00  0.00    -0.092 S 
ENDBRANCH  17  19
BRANCH  16  25
ATOM     24  C   UNL     1      -1.745   0.059  -0.722  0.00  0.00    +0.028 C 
ATOM     25  C   UNL     1      -0.633   1.029  -0.316  0.00  0.00    +0.076 C 
ATOM     26  C   UNL     1       0.721   0.325  -0.420  0.00  0.00    +0.028 C 
ENDBRANCH  16  25
ENDBRANCH   1  16
TORSDOF 4
