REMARK  Name = ZINC12180155
REMARK  8 active torsions:
REMARK  status: ('A' for Active; 'I' for Inactive)
REMARK    1  A    between atoms: C_1  and  C_2
REMARK    2  A    between atoms: N_4  and  S_5
REMARK    3  A    between atoms: S_5  and  C_8
REMARK    4  A    between atoms: C_11  and  N_14
REMARK    5  A    between atoms: N_17  and  C_18
REMARK    6  A    between atoms: N_23  and  C_25
REMARK    7  A    between atoms: C_29  and  O_31
REMARK    8  A    between atoms: O_31  and  C_32
REMARK                            x       y       z     vdW  Elec       q    Type
REMARK                         _______ _______ _______ _____ _____    ______ ____
ROOT
ATOM      1  N   UNL     1       2.222   0.723   0.215  0.00  0.00    -0.269 N 
ATOM      2  C   UNL     1       1.113   1.489   0.200  0.00  0.00    +0.304 C 
ATOM      3  O   UNL     1       1.211   2.701   0.191  0.00  0.00    -0.253 OA
ATOM      4  N   UNL     1      -0.105   0.911   0.194  0.00  0.00    -0.294 N 
ATOM      5  H   UNL     1       2.144  -0.241   0.288  0.00  0.00    +0.156 HD
ATOM      6  H   UNL     1      -0.183  -0.055   0.201  0.00  0.00    +0.151 HD
ENDROOT
BRANCH   1  10
ATOM      7  C   UNL     1       5.982   2.496  -0.047  0.00  0.00    +0.109 A 
ATOM      8  C   UNL     1       4.964   3.137   0.635  0.00  0.00    +0.030 A 
ATOM      9  C   UNL     1       3.716   2.551   0.724  0.00  0.00    +0.025 A 
ATOM     10  C   UNL     1       3.485   1.319   0.127  0.00  0.00    +0.035 A 
ATOM     11  C   UNL     1       4.511   0.676  -0.552  0.00  0.00    +0.025 A 
ATOM     12  C   UNL     1       5.755   1.269  -0.642  0.00  0.00    +0.030 A 
BRANCH   7  13
ATOM     13  S   UNL     1       7.573   3.247  -0.158  0.00  0.00    +0.074 S 
ATOM     14  O   UNL     1       8.199   2.702  -1.312  0.00  0.00    -0.150 OA
ATOM     15  O   UNL     1       7.376   4.643   0.014  0.00  0.00    -0.150 OA
BRANCH  13  19
ATOM     16  C   UNL     1       9.573   0.952   2.453  0.00  0.00    +0.111 C 
ATOM     17  C   UNL     1       8.773   1.424   1.266  0.00  0.00    +0.229 C 
ATOM     18  O   UNL     1       8.419   0.632   0.419  0.00  0.00    -0.275 OA
ATOM     19  N   UNL     1       8.451   2.728   1.146  0.00  0.00    -0.186 N 
ATOM     20  H   UNL     1       8.734   3.362   1.823  0.00  0.00    +0.177 HD
ENDBRANCH  13  19
ENDBRANCH   7  13
ENDBRANCH   1  10
BRANCH   4  21
ATOM     21  C   UNL     1      -1.310   1.744   0.171  0.00  0.00    +0.101 C 
ATOM     22  C   UNL     1      -1.696   2.120  -1.278  0.00  0.00    +0.120 C 
ATOM     23  C   UNL     1      -3.208   2.086  -1.280  0.00  0.00    +0.222 C 
ATOM     24  O   UNL     1      -3.913   2.585  -2.132  0.00  0.00    -0.275 OA
ATOM     25  N   UNL     1      -3.658   1.424  -0.201  0.00  0.00    -0.269 N 
ATOM     26  C   UNL     1      -2.547   0.939   0.627  0.00  0.00    +0.136 C 
BRANCH  25  27
ATOM     27  C   UNL     1      -5.010   1.224   0.096  0.00  0.00    +0.040 A 
ATOM     28  C   UNL     1      -5.378   0.619   1.292  0.00  0.00    +0.024 A 
ATOM     29  C   UNL     1      -6.713   0.425   1.587  0.00  0.00    +0.005 A 
ATOM     30  C   UNL     1      -7.686   0.823   0.690  0.00  0.00    +0.046 A 
ATOM     31  C   UNL     1      -7.325   1.422  -0.508  0.00  0.00    +0.122 A 
ATOM     32  C   UNL     1      -5.986   1.623  -0.805  0.00  0.00    +0.069 A 
BRANCH  31  33
ATOM     33  O   UNL     1      -8.283   1.813  -1.389  0.00  0.00    -0.495 OA
ATOM     34  C   UNL     1      -9.642   1.575  -1.017  0.00  0.00    +0.277 C 
ENDBRANCH  31  33
ENDBRANCH  25  27
ENDBRANCH   4  21
TORSDOF 6
