REMARK  Name = ZINC04083314
REMARK  4 active torsions:
REMARK  status: ('A' for Active; 'I' for Inactive)
REMARK    1  A    between atoms: C_7  and  C_19
REMARK    2  A    between atoms: N_9  and  C_10
REMARK    3  A    between atoms: C_10  and  C_11
REMARK    4  A    between atoms: N_20  and  N_21
REMARK                            x       y       z     vdW  Elec       q    Type
REMARK                         _______ _______ _______ _____ _____    ______ ____
ROOT
ATOM      1  C   UNL     1      -5.708   1.898   0.041  0.00  0.00    +0.001 A 
ATOM      2  C   UNL     1      -6.606   2.955   0.051  0.00  0.00    +0.002 A 
ATOM      3  C   UNL     1      -6.158   4.258   0.055  0.00  0.00    +0.026 A 
ATOM      4  C   UNL     1      -4.791   4.519   0.049  0.00  0.00    +0.050 A 
ATOM      5  C   UNL     1      -3.887   3.443   0.039  0.00  0.00    +0.009 A 
ATOM      6  C   UNL     1      -4.361   2.133   0.034  0.00  0.00    +0.010 A 
ATOM      7  C   UNL     1      -2.541   4.045   0.036  0.00  0.00    +0.020 A 
ATOM      8  C   UNL     1      -2.719   5.393   0.050  0.00  0.00    +0.096 A 
ATOM      9  N   UNL     1      -4.051   5.681   0.052  0.00  0.00    -0.342 N 
ENDROOT
BRANCH   7  10
ATOM     10  C   UNL     1      -1.256   3.326   0.026  0.00  0.00    +0.140 C 
ATOM     11  N   UNL     1      -1.239   2.027   0.019  0.00  0.00    -0.186 NA
BRANCH  11  12
ATOM     12  N   UNL     1      -0.016   1.344   0.009  0.00  0.00    -0.191 N 
ATOM     13  C   UNL     1       0.002  -0.004   0.002  0.00  0.00    +0.317 C 
ATOM     14  O   UNL     1       1.063  -0.598  -0.011  0.00  0.00    -0.251 OA
ATOM     15  N   UNL     1      -1.156  -0.694   0.009  0.00  0.00    -0.312 N 
ATOM     16  H   UNL     1       0.817   1.840   0.004  0.00  0.00    +0.179 HD
ATOM     17  H   UNL     1      -2.002  -0.220   0.020  0.00  0.00    +0.147 HD
ATOM     18  H   UNL     1      -1.143  -1.664   0.004  0.00  0.00    +0.147 HD
ENDBRANCH  11  12
ENDBRANCH   7  10
BRANCH   9  19
ATOM     19  C   UNL     1      -4.615   7.033   0.062  0.00  0.00    +0.158 C 
BRANCH  19  20
ATOM     20  C   UNL     1      -4.917   7.441   1.481  0.00  0.00    -0.009 A 
ATOM     21  C   UNL     1      -6.188   7.269   1.995  0.00  0.00    +0.008 A 
ATOM     22  C   UNL     1      -6.464   7.638   3.298  0.00  0.00    +0.020 A 
ATOM     23  C   UNL     1      -5.470   8.191   4.086  0.00  0.00    +0.042 A 
ATOM     24  C   UNL     1      -4.198   8.369   3.571  0.00  0.00    +0.040 A 
ATOM     25  C   UNL     1      -3.922   7.994   2.268  0.00  0.00    +0.047 A 
ATOM     26 CL   UNL     1      -2.326   8.217   1.620  0.00  0.00    -0.083 Cl
ATOM     27 CL   UNL     1      -5.818   8.661   5.720  0.00  0.00    -0.083 Cl
ENDBRANCH  19  20
ENDBRANCH   9  19
TORSDOF 4
