REMARK  Name = ZINC19845611
REMARK  5 active torsions:
REMARK  status: ('A' for Active; 'I' for Inactive)
REMARK    1  A    between atoms: C_1  and  O_2
REMARK    2  A    between atoms: O_2  and  C_3
REMARK    3  A    between atoms: C_11  and  S_13
REMARK    4  A    between atoms: S_13  and  C_14
REMARK    5  A    between atoms: C_19  and  N_20
REMARK                            x       y       z     vdW  Elec       q    Type
REMARK                         _______ _______ _______ _____ _____    ______ ____
ROOT
ATOM      1  C   UNL     1       0.187   1.594   2.398  0.00  0.00    +0.122 A 
ATOM      2  C   UNL     1       1.187   0.626   2.426  0.00  0.00    +0.048 A 
ATOM      3  C   UNL     1       1.615   0.101   3.624  0.00  0.00    +0.033 A 
ATOM      4  C   UNL     1       1.044   0.541   4.821  0.00  0.00    +0.090 A 
ATOM      5  C   UNL     1       0.036   1.518   4.789  0.00  0.00    +0.070 A 
ATOM      6  C   UNL     1      -0.383   2.043   3.576  0.00  0.00    +0.073 A 
ATOM      7  N   UNL     1      -0.325   1.744   6.107  0.00  0.00    -0.333 N 
ATOM      8  H   UNL     1      -1.108   2.478   6.345  0.00  0.00    +0.168 HD
ATOM      9  C   UNL     1       0.447   0.925   6.884  0.00  0.00    +0.172 A 
ATOM     10  N   UNL     1       1.250   0.220   6.126  0.00  0.00    -0.222 NA
ENDROOT
BRANCH   1  12
ATOM     11  C   UNL     1       0.408   1.602   0.030  0.00  0.00    +0.277 C 
ATOM     12  O   UNL     1      -0.226   2.105   1.208  0.00  0.00    -0.495 OA
ENDBRANCH   1  12
BRANCH   9  13
ATOM     13  S   UNL     1       0.373   0.832   8.642  0.00  0.00    -0.050 S 
BRANCH  13  14
ATOM     14  C   UNL     1       1.712  -0.272   8.947  0.00  0.00    +0.036 A 
ATOM     15  C   UNL     1       1.461  -1.596   9.274  0.00  0.00    +0.018 A 
ATOM     16  C   UNL     1       2.513  -2.462   9.507  0.00  0.00    +0.016 A 
ATOM     17  C   UNL     1       3.818  -2.009   9.426  0.00  0.00    +0.020 A 
ATOM     18  C   UNL     1       4.077  -0.688   9.107  0.00  0.00    +0.039 A 
ATOM     19  C   UNL     1       3.028   0.185   8.866  0.00  0.00    +0.040 A 
ATOM     20 BR   UNL     1       5.251  -3.198   9.755  0.00  0.00    -0.050 Br
BRANCH  19  21
ATOM     21  N   UNL     1       3.288   1.522   8.541  0.00  0.00    -0.357 N 
ATOM     22  H   UNL     1       4.326   1.881   8.478  0.00  0.00    +0.142 HD
ATOM     23  H   UNL     1       2.454   2.213   8.350  0.00  0.00    +0.142 HD
ENDBRANCH  19  21
ENDBRANCH  13  14
ENDBRANCH   9  13
TORSDOF 4
