REMARK  Name = ZINC44023315
REMARK  4 active torsions:
REMARK  status: ('A' for Active; 'I' for Inactive)
REMARK    1  A    between atoms: C_3  and  N_8
REMARK    2  A    between atoms: C_5  and  O_7
REMARK    3  A    between atoms: N_8  and  C_9
REMARK    4  A    between atoms: N_13  and  C_18
REMARK                            x       y       z     vdW  Elec       q    Type
REMARK                         _______ _______ _______ _____ _____    ______ ____
ROOT
ATOM      1  C   UNL     1       3.562   3.500  -0.119  0.00  0.00    +0.109 A 
ATOM      2  C   UNL     1       4.730   4.201  -0.236  0.00  0.00    +0.112 A 
ATOM      3  C   UNL     1       4.678   5.600  -0.333  0.00  0.00    +0.259 A 
ATOM      4  O   UNL     1       5.707   6.246  -0.439  0.00  0.00    -0.267 OA
ATOM      5  N   UNL     1       3.485   6.226  -0.310  0.00  0.00    -0.258 N 
ATOM      6  C   UNL     1       2.345   5.520  -0.194  0.00  0.00    +0.331 A 
ATOM      7  O   UNL     1       1.279   6.104  -0.175  0.00  0.00    -0.246 OA
ATOM      8  N   UNL     1       2.367   4.178  -0.104  0.00  0.00    -0.296 N 
ATOM      9  H   UNL     1       1.534   3.686  -0.025  0.00  0.00    +0.172 HD
ENDROOT
BRANCH   5  10
ATOM     10  C   UNL     1       3.428   7.686  -0.411  0.00  0.00    +0.095 C 
ATOM     11  C   UNL     1       2.760   8.258   0.841  0.00  0.00    +0.025 C 
ATOM     12  C   UNL     1       2.701   9.783   0.736  0.00  0.00    +0.002 C 
ATOM     13  C   UNL     1       1.890  10.178  -0.500  0.00  0.00    +0.000 C 
ATOM     14  C   UNL     1       2.558   9.606  -1.752  0.00  0.00    +0.002 C 
ATOM     15  C   UNL     1       2.618   8.081  -1.647  0.00  0.00    +0.025 C 
ENDBRANCH   5  10
BRANCH   1  16
ATOM     16  N   UNL     1       3.583   2.131  -0.022  0.00  0.00    -0.301 N 
ATOM     17  H   UNL     1       4.419   1.650  -0.125  0.00  0.00    +0.154 HD
BRANCH  16  20
ATOM     18  C   UNL     1       0.973  -0.455  -0.200  0.00  0.00    +0.005 A 
ATOM     19  C   UNL     1       2.143   0.239  -0.445  0.00  0.00    +0.023 A 
ATOM     20  C   UNL     1       2.399   1.429   0.225  0.00  0.00    +0.036 A 
ATOM     21  C   UNL     1       1.477   1.921   1.139  0.00  0.00    +0.068 A 
ATOM     22  C   UNL     1       0.305   1.222   1.381  0.00  0.00    +0.119 A 
ATOM     23  C   UNL     1       0.055   0.034   0.710  0.00  0.00    +0.045 A 
BRANCH  22  24
ATOM     24  O   UNL     1      -0.599   1.701   2.276  0.00  0.00    -0.507 OA
ATOM     25  H   UNL     1      -1.262   2.289   1.889  0.00  0.00    +0.292 HD
ENDBRANCH  22  24
ENDBRANCH  16  20
ENDBRANCH   1  16
TORSDOF 4
