REMARK  Name = ZINC35129669
REMARK  14 active torsions:
REMARK  status: ('A' for Active; 'I' for Inactive)
REMARK    1  A    between atoms: C_1  and  C_2
REMARK    2  A    between atoms: C_7  and  N_8
REMARK    3  A    between atoms: C_9  and  C_34
REMARK    4  A    between atoms: C_12  and  S_13
REMARK    5  A    between atoms: S_13  and  C_14
REMARK    6  A    between atoms: C_14  and  C_15
REMARK    7  A    between atoms: C_15  and  C_16
REMARK    8  A    between atoms: C_16  and  C_17
REMARK    9  A    between atoms: C_23  and  C_26
REMARK   10  A    between atoms: C_27  and  C_29
REMARK   11  A    between atoms: C_29  and  C_30
REMARK   12  A    between atoms: C_30  and  C_31
REMARK   13  A    between atoms: C_30  and  C_32
REMARK   14  A    between atoms: C_30  and  C_33
REMARK                            x       y       z     vdW  Elec       q    Type
REMARK                         _______ _______ _______ _____ _____    ______ ____
ROOT
ATOM      1  C   UNL     1       3.579   1.395   3.929  0.00  0.00    +0.078 C 
ENDROOT
BRANCH   1   2
ATOM      2  S   UNL     1       2.575   0.847   2.522  0.00  0.00    -0.086 S 
BRANCH   2   7
ATOM      3  N   UNL     1      -0.220   0.804   2.350  0.00  0.00    -0.268 N 
ATOM      4  C   UNL     1      -1.270   1.136   3.181  0.00  0.00    +0.205 A 
ATOM      5  N   UNL     1      -0.747   1.579   4.304  0.00  0.00    -0.125 NA
ATOM      6  N   UNL     1       0.536   1.547   4.233  0.00  0.00    -0.122 NA
ATOM      7  C   UNL     1       0.915   1.078   3.066  0.00  0.00    +0.196 A 
BRANCH   3  14
ATOM      8  C   UNL     1      -0.275   2.642   0.178  0.00  0.00    +0.046 C 
ATOM      9  C   UNL     1      -0.327   1.152  -0.039  0.00  0.00    -0.026 A 
ATOM     10  C   UNL     1      -0.399   0.641  -1.321  0.00  0.00    +0.005 A 
ATOM     11  C   UNL     1      -0.447  -0.726  -1.520  0.00  0.00    +0.000 A 
ATOM     12  C   UNL     1      -0.423  -1.587  -0.438  0.00  0.00    +0.002 A 
ATOM     13  C   UNL     1      -0.352  -1.083   0.846  0.00  0.00    +0.026 A 
ATOM     14  C   UNL     1      -0.298   0.290   1.049  0.00  0.00    +0.053 A 
ENDBRANCH   3  14
BRANCH   4  15
ATOM     15  C   UNL     1      -2.703   1.018   2.870  0.00  0.00    +0.172 A 
ATOM     16  C   UNL     1      -3.724   1.076   3.771  0.00  0.00    +0.053 A 
ATOM     17  C   UNL     1      -4.918   0.917   3.040  0.00  0.00    +0.042 A 
ATOM     18  C   UNL     1      -4.572   0.772   1.745  0.00  0.00    +0.196 A 
ATOM     19  O   UNL     1      -3.235   0.839   1.645  0.00  0.00    -0.460 OA
ENDBRANCH   4  15
ENDBRANCH   2   7
ENDBRANCH   1   2
BRANCH   1  20
ATOM     20  C   UNL     1       5.063   1.246   3.587  0.00  0.00    +0.020 C 
BRANCH  20  21
ATOM     21  C   UNL     1       5.909   1.709   4.774  0.00  0.00    +0.097 C 
BRANCH  21  22
ATOM     22  C   UNL     1       7.371   1.562   4.437  0.00  0.00    +0.216 C 
ATOM     23  O   UNL     1       7.702   1.130   3.353  0.00  0.00    -0.276 OA
ATOM     24  N   UNL     1       8.309   1.911   5.339  0.00  0.00    -0.298 N 
ATOM     25  C   UNL     1       7.922   2.430   6.658  0.00  0.00    +0.127 C 
ATOM     26  C   UNL     1       8.598   3.791   6.867  0.00  0.00    +0.127 C 
ATOM     27  N   UNL     1      10.027   3.658   6.550  0.00  0.00    -0.296 N 
ATOM     28  C   UNL     1      10.415   3.139   5.231  0.00  0.00    +0.090 C 
ATOM     29  C   UNL     1       9.738   1.773   5.024  0.00  0.00    +0.130 C 
ATOM     30  C   UNL     1      11.934   2.975   5.169  0.00  0.00    +0.029 C 
ATOM     31  C   UNL     1      10.966   4.007   7.452  0.00  0.00    +0.216 C 
ATOM     32  O   UNL     1      12.138   3.806   7.216  0.00  0.00    -0.276 OA
BRANCH  31  33
ATOM     33  C   UNL     1      10.558   4.647   8.754  0.00  0.00    +0.102 C 
BRANCH  33  34
ATOM     34  C   UNL     1      11.805   4.941   9.590  0.00  0.00    -0.029 C 
ATOM     35  C   UNL     1      12.723   5.892   8.820  0.00  0.00    +0.011 C 
ATOM     36  C   UNL     1      11.391   5.591  10.912  0.00  0.00    +0.011 C 
ATOM     37  C   UNL     1      12.548   3.634   9.875  0.00  0.00    +0.011 C 
ENDBRANCH  33  34
ENDBRANCH  31  33
ENDBRANCH  21  22
ENDBRANCH  20  21
ENDBRANCH   1  20
TORSDOF 9
