REMARK  Name = ZINC15733757
REMARK  7 active torsions:
REMARK  status: ('A' for Active; 'I' for Inactive)
REMARK    1  A    between atoms: C_1  and  C_2
REMARK    2  A    between atoms: C_7  and  S_8
REMARK    3  A    between atoms: S_8  and  N_11
REMARK    4  A    between atoms: N_11  and  C_12
REMARK    5  A    between atoms: C_12  and  C_13
REMARK    6  A    between atoms: C_25  and  C_27
REMARK    7  A    between atoms: C_25  and  C_28
REMARK                            x       y       z     vdW  Elec       q    Type
REMARK                         _______ _______ _______ _____ _____    ______ ____
ROOT
ATOM      1  C   UNL     1       3.817   1.988  -0.670  0.00  0.00    +0.046 C 
ATOM      2  C   UNL     1       2.679   1.129  -0.181  0.00  0.00    -0.023 A 
ATOM      3  C   UNL     1       2.883  -0.214   0.045  0.00  0.00    +0.016 A 
ATOM      4  C   UNL     1       1.832  -1.008   0.497  0.00  0.00    +0.011 A 
ATOM      5  C   UNL     1       0.567  -0.435   0.722  0.00  0.00    +0.049 A 
ATOM      6  C   UNL     1       0.383   0.923   0.489  0.00  0.00    +0.055 A 
ATOM      7  C   UNL     1       1.433   1.696   0.043  0.00  0.00    +0.110 A 
ATOM      8  N   UNL     1      -0.280  -1.436   1.161  0.00  0.00    -0.357 N 
ATOM      9  H   UNL     1      -1.214  -1.308   1.391  0.00  0.00    +0.166 HD
ATOM     10  C   UNL     1       0.365  -2.608   1.223  0.00  0.00    +0.028 A 
ATOM     11  C   UNL     1       1.683  -2.426   0.832  0.00  0.00    +0.046 A 
ATOM     12  C   UNL     1       2.624  -3.484   0.801  0.00  0.00    +0.166 C 
ATOM     13  O   UNL     1       3.763  -3.301   0.423  0.00  0.00    -0.292 OA
ATOM     14  C   UNL     1       2.159  -4.850   1.257  0.00  0.00    +0.086 C 
ATOM     15  C   UNL     1       0.677  -5.034   0.929  0.00  0.00    -0.023 C 
ATOM     16  C   UNL     1      -0.166  -3.963   1.631  0.00  0.00    +0.060 C 
ATOM     17  C   UNL     1       0.477  -4.923  -0.584  0.00  0.00    +0.011 C 
ATOM     18  C   UNL     1       0.225  -6.419   1.398  0.00  0.00    +0.011 C 
ENDROOT
BRANCH   7  19
ATOM     19  S   UNL     1       1.190   3.416  -0.249  0.00  0.00    +0.059 S 
ATOM     20  O   UNL     1      -0.185   3.679  -0.008  0.00  0.00    -0.153 OA
ATOM     21  O   UNL     1       2.228   4.096   0.443  0.00  0.00    -0.153 OA
BRANCH  19  22
ATOM     22  N   UNL     1       1.447   3.680  -1.864  0.00  0.00    -0.185 NA
ATOM     23  H   UNL     1       2.202   4.215  -2.154  0.00  0.00    +0.148 HD
BRANCH  22  24
ATOM     24  C   UNL     1       0.533   3.105  -2.854  0.00  0.00    +0.148 C 
BRANCH  24  25
ATOM     25  C   UNL     1       0.771   3.753  -4.194  0.00  0.00    +0.005 A 
ATOM     26  C   UNL     1       1.625   3.384  -5.180  0.00  0.00    +0.012 A 
ATOM     27  C   UNL     1       1.673   4.136  -6.340  0.00  0.00    +0.008 A 
ATOM     28  C   UNL     1       0.874   5.224  -6.451  0.00  0.00    +0.045 A 
ATOM     29  S   UNL     1       0.009   5.209  -4.889  0.00  0.00    -0.100 S 
ENDBRANCH  24  25
ENDBRANCH  22  24
ENDBRANCH  19  22
ENDBRANCH   7  19
TORSDOF 4
