REMARK  Name = ZINC36492369
REMARK  12 active torsions:
REMARK  status: ('A' for Active; 'I' for Inactive)
REMARK    1  A    between atoms: C_1  and  C_2
REMARK    2  A    between atoms: C_2  and  C_3
REMARK    3  A    between atoms: C_2  and  C_4
REMARK    4  A    between atoms: C_2  and  N_5
REMARK    5  A    between atoms: C_6  and  C_8
REMARK    6  A    between atoms: C_8  and  C_10
REMARK    7  A    between atoms: C_8  and  N_19
REMARK    8  A    between atoms: C_11  and  O_18
REMARK    9  A    between atoms: C_13  and  O_17
REMARK   10  A    between atoms: C_15  and  O_16
REMARK   11  A    between atoms: N_19  and  C_20
REMARK   12  A    between atoms: C_26  and  C_28
REMARK                            x       y       z     vdW  Elec       q    Type
REMARK                         _______ _______ _______ _____ _____    ______ ____
ROOT
ATOM      1  C   UNL     1       2.662  -1.518  -3.139  0.00  0.00    +0.200 C 
ENDROOT
BRANCH   1   2
ATOM      2  C   UNL     1       2.779  -3.008  -3.331  0.00  0.00    +0.065 A 
ATOM      3  C   UNL     1       2.021  -3.869  -2.552  0.00  0.00    +0.129 A 
ATOM      4  C   UNL     1       2.128  -5.240  -2.729  0.00  0.00    +0.091 A 
ATOM      5  C   UNL     1       2.993  -5.750  -3.685  0.00  0.00    +0.124 A 
ATOM      6  C   UNL     1       3.751  -4.889  -4.465  0.00  0.00    +0.091 A 
ATOM      7  C   UNL     1       3.640  -3.518  -4.291  0.00  0.00    +0.129 A 
BRANCH   7   8
ATOM      8  O   UNL     1       4.379  -2.674  -5.058  0.00  0.00    -0.506 OA
ATOM      9  H   UNL     1       5.243  -2.456  -4.683  0.00  0.00    +0.292 HD
ENDBRANCH   7   8
BRANCH   5  10
ATOM     10  O   UNL     1       3.099  -7.094  -3.858  0.00  0.00    -0.507 OA
ATOM     11  H   UNL     1       2.482  -7.457  -4.508  0.00  0.00    +0.292 HD
ENDBRANCH   5  10
BRANCH   3  12
ATOM     12  O   UNL     1       1.173  -3.369  -1.615  0.00  0.00    -0.506 OA
ATOM     13  H   UNL     1       0.298  -3.142  -1.958  0.00  0.00    +0.292 HD
ENDBRANCH   3  12
ENDBRANCH   1   2
BRANCH   1  15
ATOM     14  N   UNL     1       0.359  -1.492  -2.237  0.00  0.00    -0.309 N 
ATOM     15  C   UNL     1       1.667  -1.229  -2.045  0.00  0.00    +0.239 C 
ATOM     16  O   UNL     1       2.042  -0.760  -0.992  0.00  0.00    -0.273 OA
ATOM     17  H   UNL     1       0.065  -1.916  -3.059  0.00  0.00    +0.149 HD
BRANCH  14  19
ATOM     18  C   UNL     1      -0.578   0.372  -0.961  0.00  0.00    +0.031 C 
ATOM     19  C   UNL     1      -0.619  -1.137  -1.206  0.00  0.00    +0.026 C 
ATOM     20  C   UNL     1      -0.281  -1.874   0.092  0.00  0.00    +0.031 C 
ATOM     21  C   UNL     1      -2.020  -1.540  -1.671  0.00  0.00    +0.031 C 
ENDBRANCH  14  19
ENDBRANCH   1  15
BRANCH   1  22
ATOM     22  N   UNL     1       3.969  -0.970  -2.768  0.00  0.00    -0.279 N 
ATOM     23  C   UNL     1       4.531  -0.001  -3.517  0.00  0.00    +0.248 C 
ATOM     24  O   UNL     1       3.865   0.591  -4.345  0.00  0.00    -0.270 OA
BRANCH  23  25
ATOM     25  C   UNL     1       5.956   0.343  -3.333  0.00  0.00    +0.037 A 
ATOM     26  C   UNL     1       6.545   0.233  -2.072  0.00  0.00    +0.016 A 
ATOM     27  C   UNL     1       7.875   0.555  -1.905  0.00  0.00    +0.039 A 
ATOM     28  C   UNL     1       8.627   0.988  -2.987  0.00  0.00    +0.123 A 
ATOM     29  C   UNL     1       8.046   1.099  -4.241  0.00  0.00    +0.039 A 
ATOM     30  C   UNL     1       6.719   0.774  -4.420  0.00  0.00    +0.016 A 
ATOM     31  F   UNL     1       9.930   1.303  -2.818  0.00  0.00    -0.205 F 
ENDBRANCH  23  25
BRANCH  22  32
ATOM     32  C   UNL     1       4.665  -1.474  -1.581  0.00  0.00    +0.077 C 
ATOM     33  C   UNL     1       4.127  -2.862  -1.227  0.00  0.00    +0.022 C 
ATOM     34  C   UNL     1       4.854  -3.390   0.012  0.00  0.00    +0.002 C 
ATOM     35  C   UNL     1       4.619  -2.437   1.185  0.00  0.00    +0.000 C 
ATOM     36  C   UNL     1       5.156  -1.049   0.831  0.00  0.00    +0.002 C 
ATOM     37  C   UNL     1       4.429  -0.521  -0.408  0.00  0.00    +0.022 C 
ENDBRANCH  22  32
ENDBRANCH   1  22
TORSDOF 9
