REMARK  Name = ZINC16385228
REMARK  6 active torsions:
REMARK  status: ('A' for Active; 'I' for Inactive)
REMARK    1  A    between atoms: C_4  and  C_8
REMARK    2  A    between atoms: C_11  and  C_13
REMARK    3  A    between atoms: N_15  and  C_16
REMARK    4  A    between atoms: C_16  and  N_18
REMARK    5  A    between atoms: N_18  and  C_19
REMARK    6  A    between atoms: C_20  and  C_27
REMARK                            x       y       z     vdW  Elec       q    Type
REMARK                         _______ _______ _______ _____ _____    ______ ____
ROOT
ATOM      1  C   UNL     1       7.017  -1.340  -1.303  0.00  0.00    +0.285 C 
ATOM      2  O   UNL     1       7.860  -2.150  -0.964  0.00  0.00    -0.266 OA
ATOM      3  N   UNL     1       7.267  -0.492  -2.320  0.00  0.00    -0.261 N 
ATOM      4  H   UNL     1       6.595   0.153  -2.590  0.00  0.00    +0.157 HD
ENDROOT
BRANCH   1   8
ATOM      5  C   UNL     1       3.695  -0.684  -0.038  0.00  0.00    +0.137 A 
ATOM      6  C   UNL     1       4.051  -1.703   0.799  0.00  0.00    +0.051 A 
ATOM      7  C   UNL     1       5.346  -2.094   0.445  0.00  0.00    +0.055 A 
ATOM      8  C   UNL     1       5.730  -1.288  -0.606  0.00  0.00    +0.190 A 
ATOM      9  O   UNL     1       4.712  -0.447  -0.884  0.00  0.00    -0.450 OA
BRANCH   5  13
ATOM     10  C   UNL     1      -0.017   1.381   0.010  0.00  0.00    +0.021 A 
ATOM     11  C   UNL     1       1.168   2.095   0.002  0.00  0.00    +0.022 A 
ATOM     12  C   UNL     1       2.378   1.431  -0.013  0.00  0.00    +0.052 A 
ATOM     13  C   UNL     1       2.405   0.033  -0.021  0.00  0.00    +0.037 A 
ATOM     14  C   UNL     1       1.205  -0.681  -0.013  0.00  0.00    +0.033 A 
ATOM     15  C   UNL     1       0.002  -0.004   0.002  0.00  0.00    +0.042 A 
ATOM     16 CL   UNL     1      -1.491  -0.890   0.012  0.00  0.00    -0.084 Cl
ATOM     17 CL   UNL     1       3.864   2.329  -0.024  0.00  0.00    -0.083 Cl
ENDBRANCH   5  13
ENDBRANCH   1   8
BRANCH   3  18
ATOM     18  C   UNL     1       8.451  -0.540  -2.961  0.00  0.00    +0.142 C 
ATOM     19  S   UNL     1       9.638  -1.678  -2.484  0.00  0.00    -0.018 S 
BRANCH  18  20
ATOM     20  N   UNL     1       8.702   0.308  -3.978  0.00  0.00    -0.291 N 
ATOM     21  H   UNL     1       8.029   0.953  -4.249  0.00  0.00    +0.154 HD
BRANCH  20  22
ATOM     22  C   UNL     1       9.919   0.259  -4.638  0.00  0.00    +0.084 A 
ATOM     23  C   UNL     1      10.350   1.048  -5.689  0.00  0.00    +0.068 A 
ATOM     24  C   UNL     1      11.691   0.793  -6.212  0.00  0.00    -0.023 A 
ATOM     25  C   UNL     1      12.345  -0.200  -5.585  0.00  0.00    -0.004 A 
ATOM     26  S   UNL     1      11.213  -0.765  -4.339  0.00  0.00    -0.077 S 
ATOM     27  C   UNL     1      13.716  -0.423  -6.163  0.00  0.00    +0.043 C 
ATOM     28  C   UNL     1      13.681   0.288  -7.534  0.00  0.00    +0.010 C 
ATOM     29  C   UNL     1      12.595   1.359  -7.306  0.00  0.00    +0.037 C 
BRANCH  23  30
ATOM     30  C   UNL     1       9.495   2.095  -6.257  0.00  0.00    +0.244 C 
ATOM     31  O   UNL     1       9.539   3.226  -5.809  0.00  0.00    -0.270 OA
ATOM     32  N   UNL     1       8.661   1.806  -7.276  0.00  0.00    -0.325 N 
ATOM     33  H   UNL     1       8.627   0.905  -7.633  0.00  0.00    +0.145 HD
ATOM     34  H   UNL     1       8.096   2.499  -7.651  0.00  0.00    +0.145 HD
ENDBRANCH  23  30
ENDBRANCH  20  22
ENDBRANCH  18  20
ENDBRANCH   3  18
TORSDOF 6
