REMARK  Name = ZINC38737585
REMARK  9 active torsions:
REMARK  status: ('A' for Active; 'I' for Inactive)
REMARK    1  A    between atoms: C_1  and  C_2
REMARK    2  A    between atoms: C_6  and  C_8
REMARK    3  A    between atoms: C_10  and  N_36
REMARK    4  A    between atoms: N_11  and  C_13
REMARK    5  A    between atoms: C_16  and  C_19
REMARK    6  A    between atoms: N_21  and  C_22
REMARK    7  A    between atoms: C_30  and  C_32
REMARK    8  A    between atoms: C_33  and  C_34
REMARK    9  A    between atoms: C_33  and  C_35
REMARK                            x       y       z     vdW  Elec       q    Type
REMARK                         _______ _______ _______ _____ _____    ______ ____
ROOT
ATOM      1  C   UNL     1       0.108  -3.530   6.061  0.00  0.00    +0.067 A 
ATOM      2  C   UNL     1      -0.533  -4.482   6.847  0.00  0.00    +0.028 A 
ATOM      3  C   UNL     1      -0.631  -4.300   8.209  0.00  0.00    +0.015 A 
ATOM      4  C   UNL     1      -0.084  -3.159   8.800  0.00  0.00    +0.037 A 
ATOM      5  C   UNL     1       0.561  -2.205   8.008  0.00  0.00    +0.015 A 
ATOM      6  C   UNL     1       0.659  -2.396   6.647  0.00  0.00    +0.028 A 
ENDROOT
BRANCH   1  10
ATOM      7  C   UNL     1       0.280  -3.273   2.523  0.00  0.00    +0.095 A 
ATOM      8  C   UNL     1       0.408  -4.663   2.707  0.00  0.00    +0.073 A 
ATOM      9  C   UNL     1       0.358  -4.912   4.042  0.00  0.00    +0.120 A 
ATOM     10  N   UNL     1       0.204  -3.718   4.680  0.00  0.00    -0.218 N 
ATOM     11  N   UNL     1       0.164  -2.710   3.708  0.00  0.00    -0.165 NA
BRANCH   7  17
ATOM     12  C   UNL     1       0.235   0.989  -0.077  0.00  0.00    +0.044 C 
ATOM     13  C   UNL     1       0.262  -0.517  -0.034  0.00  0.00    -0.050 A 
ATOM     14  C   UNL     1       0.289  -1.241  -1.212  0.00  0.00    +0.003 A 
ATOM     15  C   UNL     1       0.314  -2.623  -1.180  0.00  0.00    +0.001 A 
ATOM     16  C   UNL     1       0.311  -3.288   0.030  0.00  0.00    +0.010 A 
ATOM     17  C   UNL     1       0.284  -2.564   1.220  0.00  0.00    +0.002 A 
ATOM     18  C   UNL     1       0.264  -1.171   1.181  0.00  0.00    +0.013 A 
ENDBRANCH   7  17
BRANCH   9  19
ATOM     19  N   UNL     1       0.448  -6.161   4.649  0.00  0.00    -0.343 N 
ATOM     20  H   UNL     1       0.557  -6.957   4.105  0.00  0.00    +0.144 HD
ATOM     21  H   UNL     1       0.401  -6.236   5.615  0.00  0.00    +0.144 HD
ENDBRANCH   9  19
ENDBRANCH   1  10
BRANCH   4  22
ATOM     22  C   UNL     1      -0.186  -2.960  10.260  0.00  0.00    +0.244 C 
ATOM     23  O   UNL     1      -0.747  -3.791  10.948  0.00  0.00    -0.270 OA
ATOM     24  N   UNL     1       0.342  -1.859  10.829  0.00  0.00    -0.308 N 
ATOM     25  H   UNL     1       0.790  -1.196  10.279  0.00  0.00    +0.149 HD
BRANCH  24  26
ATOM     26  C   UNL     1       0.240  -1.660  12.288  0.00  0.00    +0.077 C 
ATOM     27  C   UNL     1       1.367  -2.429  12.966  0.00  0.00    +0.026 C 
ATOM     28  C   UNL     1       1.957  -1.682  14.161  0.00  0.00    -0.003 C 
ATOM     29  C   UNL     1       2.500  -0.298  13.748  0.00  0.00    +0.008 C 
ATOM     30  C   UNL     1       1.022   0.148  13.882  0.00  0.00    -0.000 C 
ATOM     31  C   UNL     1       0.281  -0.167  12.583  0.00  0.00    +0.010 C 
ATOM     32  C   UNL     1      -1.135   0.418  12.610  0.00  0.00    +0.009 C 
ATOM     33  C   UNL     1       0.918  -0.908  14.984  0.00  0.00    -0.029 C 
ATOM     34  C   UNL     1       1.465  -0.424  16.342  0.00  0.00    +0.011 C 
ATOM     35  C   UNL     1      -0.429  -1.602  15.158  0.00  0.00    +0.011 C 
ENDBRANCH  24  26
ENDBRANCH   4  22
TORSDOF 5
