REMARK  Name = ZINC37928928
REMARK  6 active torsions:
REMARK  status: ('A' for Active; 'I' for Inactive)
REMARK    1  A    between atoms: C_1  and  C_2
REMARK    2  A    between atoms: C_2  and  C_3
REMARK    3  A    between atoms: C_6  and  N_9
REMARK    4  A    between atoms: N_9  and  S_10
REMARK    5  A    between atoms: S_10  and  C_13
REMARK    6  A    between atoms: C_18  and  N_19
REMARK                            x       y       z     vdW  Elec       q    Type
REMARK                         _______ _______ _______ _____ _____    ______ ____
ROOT
ATOM      1  S   UNL     1       4.033  -1.051  -5.218  0.00  0.00    +0.074 S 
ATOM      2  O   UNL     1       4.475  -1.562  -6.468  0.00  0.00    -0.150 OA
ATOM      3  O   UNL     1       3.675   0.312  -5.036  0.00  0.00    -0.150 OA
ENDROOT
BRANCH   1   4
ATOM      4  C   UNL     1       5.310  -1.395  -4.053  0.00  0.00    +0.130 A 
ATOM      5  C   UNL     1       5.786  -0.392  -3.232  0.00  0.00    +0.046 A 
ATOM      6  C   UNL     1       6.788  -0.662  -2.318  0.00  0.00    +0.020 A 
ATOM      7  C   UNL     1       7.317  -1.937  -2.223  0.00  0.00    +0.017 A 
ATOM      8  C   UNL     1       6.845  -2.944  -3.042  0.00  0.00    +0.026 A 
ATOM      9  C   UNL     1       5.834  -2.678  -3.957  0.00  0.00    +0.052 A 
ATOM     10 BR   UNL     1       7.438   0.715  -1.196  0.00  0.00    -0.050 Br
BRANCH   9  11
ATOM     11  N   UNL     1       5.351  -3.696  -4.782  0.00  0.00    -0.356 N 
ATOM     12  H   UNL     1       4.595  -3.529  -5.366  0.00  0.00    +0.142 HD
ATOM     13  H   UNL     1       5.771  -4.570  -4.770  0.00  0.00    +0.142 HD
ENDBRANCH   9  11
ENDBRANCH   1   4
BRANCH   1  14
ATOM     14  N   UNL     1       2.714  -1.950  -4.779  0.00  0.00    -0.216 N 
ATOM     15  H   UNL     1       2.409  -2.674  -5.348  0.00  0.00    +0.174 HD
BRANCH  14  19
ATOM     16  C   UNL     1       0.707  -1.106  -1.229  0.00  0.00    -0.048 A 
ATOM     17  C   UNL     1      -0.009  -1.310  -2.395  0.00  0.00    +0.005 A 
ATOM     18  C   UNL     1       0.654  -1.590  -3.574  0.00  0.00    +0.025 A 
ATOM     19  C   UNL     1       2.041  -1.667  -3.588  0.00  0.00    +0.048 A 
ATOM     20  C   UNL     1       2.756  -1.462  -2.415  0.00  0.00    +0.025 A 
ATOM     21  C   UNL     1       2.088  -1.176  -1.241  0.00  0.00    +0.005 A 
BRANCH  16  23
ATOM     22  C   UNL     1      -0.196   0.712   0.194  0.00  0.00    +0.009 C 
ATOM     23  C   UNL     1      -0.020  -0.801   0.055  0.00  0.00    +0.032 C 
ENDBRANCH  16  23
ENDBRANCH  14  19
ENDBRANCH   1  14
TORSDOF 5
