REMARK  Name = ZINC22078797
REMARK  5 active torsions:
REMARK  status: ('A' for Active; 'I' for Inactive)
REMARK    1  A    between atoms: C_1  and  C_2
REMARK    2  A    between atoms: C_2  and  C_23
REMARK    3  A    between atoms: C_7  and  C_10
REMARK    4  A    between atoms: C_13  and  O_17
REMARK    5  A    between atoms: C_15  and  O_16
REMARK                            x       y       z     vdW  Elec       q    Type
REMARK                         _______ _______ _______ _____ _____    ______ ____
ROOT
ATOM      1  C   UNL     1      -0.608   1.308  -0.233  0.00  0.00    +0.040 C 
ATOM      2  C   UNL     1      -0.364  -0.198  -0.116  0.00  0.00    +0.131 C 
ATOM      3  C   UNL     1      -1.654  -0.913   0.248  0.00  0.00    +0.120 C 
ATOM      4  C   UNL     1      -1.032  -2.148   1.005  0.00  0.00    +0.111 C 
ATOM      5  C   UNL     1      -0.075  -1.497   1.916  0.00  0.00    +0.101 C 
ATOM      6  N   UNL     1       0.582  -0.481   1.006  0.00  0.00    -0.293 NA
ATOM      7  C   UNL     1      -2.146  -3.062   1.040  0.00  0.00    +0.225 C 
ATOM      8  O   UNL     1      -2.422  -3.855   1.914  0.00  0.00    -0.275 OA
ATOM      9  N   UNL     1      -2.827  -2.839  -0.132  0.00  0.00    -0.256 N 
ATOM     10  C   UNL     1      -2.434  -1.684  -0.770  0.00  0.00    +0.225 C 
ATOM     11  O   UNL     1      -2.663  -1.358  -1.915  0.00  0.00    -0.275 OA
ATOM     12  H   UNL     1       1.466  -0.818   0.657  0.00  0.00    +0.124 HD
ATOM     13  H   UNL     1      -3.518  -3.429  -0.472  0.00  0.00    +0.157 HD
ENDROOT
BRANCH   5  14
ATOM     14  C   UNL     1      -0.794  -0.836   3.064  0.00  0.00    +0.012 A 
ATOM     15  C   UNL     1      -1.008   0.530   3.050  0.00  0.00    +0.012 A 
ATOM     16  C   UNL     1      -1.667   1.139   4.100  0.00  0.00    +0.046 A 
ATOM     17  C   UNL     1      -2.115   0.381   5.173  0.00  0.00    +0.120 A 
ATOM     18  C   UNL     1      -1.902  -0.989   5.189  0.00  0.00    +0.091 A 
ATOM     19  C   UNL     1      -1.246  -1.599   4.131  0.00  0.00    +0.125 A 
BRANCH  19  20
ATOM     20  O   UNL     1      -1.040  -2.942   4.141  0.00  0.00    -0.506 OA
ATOM     21  H   UNL     1      -0.209  -3.210   4.557  0.00  0.00    +0.292 HD
ENDBRANCH  19  20
BRANCH  17  22
ATOM     22  O   UNL     1      -2.763   0.980   6.206  0.00  0.00    -0.507 OA
ATOM     23  H   UNL     1      -3.722   1.029   6.094  0.00  0.00    +0.292 HD
ENDBRANCH  17  22
ENDBRANCH   5  14
BRANCH   2  24
ATOM     24  C   UNL     1       0.187  -0.738  -1.410  0.00  0.00    +0.376 C 
ATOM     25  O   UNL     1       1.285  -1.268  -1.431  0.00  0.00    -0.244 OA
ATOM     26  O   UNL     1      -0.465  -0.646  -2.436  0.00  0.00    -0.244 OA
ENDBRANCH   2  24
TORSDOF 4
