REMARK  Name = ZINC40978660
REMARK  12 active torsions:
REMARK  status: ('A' for Active; 'I' for Inactive)
REMARK    1  A    between atoms: C_1  and  C_2
REMARK    2  A    between atoms: C_2  and  O_3
REMARK    3  A    between atoms: O_3  and  C_4
REMARK    4  A    between atoms: C_6  and  C_20
REMARK    5  A    between atoms: C_9  and  O_10
REMARK    6  A    between atoms: O_10  and  C_11
REMARK    7  A    between atoms: C_11  and  C_12
REMARK    8  A    between atoms: C_22  and  C_31
REMARK    9  A    between atoms: C_23  and  C_30
REMARK   10  A    between atoms: C_31  and  O_33
REMARK   11  A    between atoms: O_33  and  C_34
REMARK   12  A    between atoms: C_34  and  C_35
REMARK                            x       y       z     vdW  Elec       q    Type
REMARK                         _______ _______ _______ _____ _____    ______ ____
ROOT
ATOM      1  C   UNL     1      -1.752  -1.977  -0.388  0.00  0.00    +0.162 A 
ATOM      2  C   UNL     1      -0.605  -2.736  -0.220  0.00  0.00    +0.055 A 
ATOM      3  C   UNL     1      -0.686  -4.116  -0.206  0.00  0.00    -0.015 A 
ATOM      4  C   UNL     1      -1.909  -4.742  -0.358  0.00  0.00    +0.010 A 
ATOM      5  C   UNL     1      -3.057  -3.990  -0.526  0.00  0.00    +0.050 A 
ATOM      6  C   UNL     1      -2.984  -2.606  -0.535  0.00  0.00    +0.162 A 
ENDROOT
BRANCH   3   7
ATOM      7  C   UNL     1       0.562  -4.940  -0.024  0.00  0.00    +0.179 C 
ATOM      8  C   UNL     1       0.429  -5.787   1.214  0.00  0.00    +0.082 C 
ATOM      9  C   UNL     1       0.243  -7.115   1.177  0.00  0.00    +0.020 C 
ATOM     10  N   UNL     1       0.171  -7.810  -0.005  0.00  0.00    -0.287 N 
ATOM     11  C   UNL     1       0.556  -7.147  -1.161  0.00  0.00    +0.218 A 
ATOM     12  N   UNL     1       0.749  -5.804  -1.186  0.00  0.00    -0.221 N 
ATOM     13  N   UNL     1       1.134  -5.482  -2.486  0.00  0.00    -0.156 NA
ATOM     14  C   UNL     1       1.150  -6.604  -3.164  0.00  0.00    +0.247 A 
ATOM     15  N   UNL     1       0.797  -7.610  -2.357  0.00  0.00    -0.201 NA
ATOM     16  C   UNL     1       0.110  -7.869   2.475  0.00  0.00    +0.061 C 
ATOM     17  H   UNL     1      -0.138  -8.730  -0.030  0.00  0.00    +0.155 HD
BRANCH   8  18
ATOM     18  C   UNL     1       0.503  -5.152   2.474  0.00  0.00    +0.339 C 
ATOM     19  O   UNL     1       1.577  -4.769   2.900  0.00  0.00    -0.245 OA
BRANCH  18  20
ATOM     20  O   UNL     1      -0.616  -4.973   3.206  0.00  0.00    -0.457 OA
BRANCH  20  21
ATOM     21  C   UNL     1      -0.467  -4.324   4.471  0.00  0.00    +0.259 C 
BRANCH  21  22
ATOM     22  C   UNL     1      -1.813  -4.212   5.140  0.00  0.00    +0.006 C 
ATOM     23  C   UNL     1      -1.940  -4.511   6.409  0.00  0.00    +0.007 C 
ENDBRANCH  21  22
ENDBRANCH  20  21
ENDBRANCH  18  20
ENDBRANCH   8  18
ENDBRANCH   3   7
BRANCH   1  24
ATOM     24  O   UNL     1      -1.675  -0.619  -0.402  0.00  0.00    -0.489 OA
BRANCH  24  26
ATOM     25  C   UNL     1      -0.489   1.484  -0.286  0.00  0.00    +0.048 C 
ATOM     26  C   UNL     1      -0.377  -0.042  -0.245  0.00  0.00    +0.226 C 
ENDBRANCH  24  26
ENDBRANCH   1  24
BRANCH   6  27
ATOM     27  O   UNL     1      -4.114  -1.865  -0.694  0.00  0.00    -0.484 OA
BRANCH  27  28
ATOM     28  C   UNL     1      -5.343  -2.579  -0.840  0.00  0.00    +0.264 C 
BRANCH  28  29
ATOM     29  C   UNL     1      -6.476  -1.600  -1.004  0.00  0.00    -0.009 A 
ATOM     30  C   UNL     1      -7.146  -1.125   0.109  0.00  0.00    +0.008 A 
ATOM     31  C   UNL     1      -8.186  -0.227  -0.040  0.00  0.00    +0.022 A 
ATOM     32  C   UNL     1      -8.557   0.198  -1.303  0.00  0.00    +0.059 A 
ATOM     33  C   UNL     1      -7.887  -0.277  -2.417  0.00  0.00    +0.060 A 
ATOM     34  C   UNL     1      -6.843  -1.172  -2.266  0.00  0.00    +0.028 A 
ATOM     35 CL   UNL     1      -8.352   0.255  -4.003  0.00  0.00    -0.082 Cl
ATOM     36 CL   UNL     1      -9.864   1.325  -1.490  0.00  0.00    -0.082 Cl
ENDBRANCH  28  29
ENDBRANCH  27  28
ENDBRANCH   6  27
TORSDOF 10
