REMARK  Name = ZINC45643898
REMARK  12 active torsions:
REMARK  status: ('A' for Active; 'I' for Inactive)
REMARK    1  A    between atoms: C_1  and  C_2
REMARK    2  A    between atoms: C_2  and  C_3
REMARK    3  A    between atoms: C_2  and  C_4
REMARK    4  A    between atoms: C_4  and  C_6
REMARK    5  A    between atoms: C_4  and  N_18
REMARK    6  A    between atoms: N_8  and  C_9
REMARK    7  A    between atoms: C_12  and  N_16
REMARK    8  A    between atoms: C_19  and  C_21
REMARK    9  A    between atoms: C_23  and  O_29
REMARK   10  A    between atoms: C_25  and  O_27
REMARK   11  A    between atoms: O_27  and  C_28
REMARK   12  A    between atoms: O_29  and  C_30
REMARK                            x       y       z     vdW  Elec       q    Type
REMARK                         _______ _______ _______ _____ _____    ______ ____
ROOT
ATOM      1  C   UNL     1      -0.979  -0.309  -0.256  0.00  0.00    +0.162 C 
ENDROOT
BRANCH   1   2
ATOM      2  C   UNL     1      -2.072   0.226   0.633  0.00  0.00    +0.238 C 
ATOM      3  O   UNL     1      -2.828   1.079   0.219  0.00  0.00    -0.273 OA
ATOM      4  N   UNL     1      -2.209  -0.244   1.889  0.00  0.00    -0.284 N 
ATOM      5  H   UNL     1      -1.661  -0.984   2.193  0.00  0.00    +0.155 HD
BRANCH   4   6
ATOM      6  C   UNL     1      -3.145   0.337   2.756  0.00  0.00    +0.036 A 
ATOM      7  C   UNL     1      -4.309   0.896   2.247  0.00  0.00    +0.045 A 
ATOM      8  C   UNL     1      -5.232   1.468   3.101  0.00  0.00    +0.065 A 
ATOM      9  C   UNL     1      -4.995   1.484   4.470  0.00  0.00    +0.062 A 
ATOM     10  C   UNL     1      -3.829   0.925   4.979  0.00  0.00    +0.065 A 
ATOM     11  C   UNL     1      -2.910   0.347   4.124  0.00  0.00    +0.045 A 
ATOM     12 CL   UNL     1      -3.532   0.945   6.689  0.00  0.00    -0.082 Cl
ATOM     13 CL   UNL     1      -6.688   2.168   2.464  0.00  0.00    -0.082 Cl
BRANCH   9  14
ATOM     14  N   UNL     1      -5.930   2.065   5.336  0.00  0.00    -0.356 N 
ATOM     15  H   UNL     1      -6.743   2.456   4.980  0.00  0.00    +0.142 HD
ATOM     16  H   UNL     1      -5.764   2.076   6.292  0.00  0.00    +0.142 HD
ENDBRANCH   9  14
ENDBRANCH   4   6
ENDBRANCH   1   2
BRANCH   1  17
ATOM     17  N   UNL     1      -1.377  -0.167  -1.659  0.00  0.00    -0.300 N 
ATOM     18  C   UNL     1      -0.853  -0.983  -2.594  0.00  0.00    +0.245 C 
ATOM     19  O   UNL     1      -0.049  -1.837  -2.274  0.00  0.00    -0.270 OA
ATOM     20  H   UNL     1      -2.018   0.515  -1.914  0.00  0.00    +0.150 HD
BRANCH  18  21
ATOM     21  C   UNL     1      -1.255  -0.840  -4.010  0.00  0.00    +0.044 A 
ATOM     22  C   UNL     1      -2.172   0.144  -4.380  0.00  0.00    +0.059 A 
ATOM     23  C   UNL     1      -2.546   0.275  -5.707  0.00  0.00    +0.124 A 
ATOM     24  C   UNL     1      -2.009  -0.570  -6.668  0.00  0.00    +0.091 A 
ATOM     25  C   UNL     1      -1.096  -1.549  -6.304  0.00  0.00    +0.124 A 
ATOM     26  C   UNL     1      -0.713  -1.683  -4.980  0.00  0.00    +0.059 A 
BRANCH  25  27
ATOM     27  O   UNL     1      -0.573  -2.374  -7.249  0.00  0.00    -0.495 OA
ATOM     28  C   UNL     1      -1.008  -2.177  -8.595  0.00  0.00    +0.277 C 
ENDBRANCH  25  27
BRANCH  23  29
ATOM     29  O   UNL     1      -3.440   1.232  -6.069  0.00  0.00    -0.495 OA
ATOM     30  C   UNL     1      -3.780   1.312  -7.455  0.00  0.00    +0.277 C 
ENDBRANCH  23  29
ENDBRANCH  18  21
ENDBRANCH   1  17
BRANCH   1  32
ATOM     31  C   UNL     1       1.463  -0.181  -0.768  0.00  0.00    +0.009 C 
ATOM     32  C   UNL     1       0.310   0.478  -0.009  0.00  0.00    +0.012 C 
ATOM     33  C   UNL     1       0.132   1.916  -0.502  0.00  0.00    +0.009 C 
ENDBRANCH   1  32
TORSDOF 8
