REMARK  Name = ZINC41600222
REMARK  4 active torsions:
REMARK  status: ('A' for Active; 'I' for Inactive)
REMARK    1  A    between atoms: C_1  and  C_2
REMARK    2  A    between atoms: C_8  and  S_13
REMARK    3  A    between atoms: S_13  and  N_16
REMARK    4  A    between atoms: N_16  and  C_17
REMARK                            x       y       z     vdW  Elec       q    Type
REMARK                         _______ _______ _______ _____ _____    ______ ____
ROOT
ATOM      1  C   UNL     1      -0.019   1.526   0.010  0.00  0.00    +0.053 C 
ATOM      2  C   UNL     1       0.002  -0.004   0.002  0.00  0.00    +0.187 C 
ATOM      3  C   UNL     1      -1.437  -0.538   0.020  0.00  0.00    +0.145 C 
ATOM      4  N   UNL     1      -1.366  -2.009   0.061  0.00  0.00    -0.337 N 
ATOM      5  C   UNL     1      -0.410  -2.592   0.907  0.00  0.00    +0.071 A 
ATOM      6  C   UNL     1      -0.480  -3.943   1.208  0.00  0.00    +0.055 A 
ATOM      7  C   UNL     1       0.466  -4.514   2.039  0.00  0.00    +0.107 A 
ATOM      8  C   UNL     1       1.480  -3.739   2.570  0.00  0.00    +0.032 A 
ATOM      9  C   UNL     1       1.554  -2.390   2.275  0.00  0.00    +0.049 A 
ATOM     10  C   UNL     1       0.609  -1.809   1.443  0.00  0.00    +0.142 A 
ATOM     11  O   UNL     1       0.688  -0.480   1.163  0.00  0.00    -0.486 OA
ATOM     12  H   UNL     1      -1.959  -2.555  -0.478  0.00  0.00    +0.146 HD
ENDROOT
BRANCH   7  13
ATOM     13  S   UNL     1       0.379  -6.232   2.423  0.00  0.00    +0.059 S 
ATOM     14  O   UNL     1       1.062  -6.408   3.656  0.00  0.00    -0.153 OA
ATOM     15  O   UNL     1      -0.976  -6.621   2.240  0.00  0.00    -0.153 OA
BRANCH  13  16
ATOM     16  N   UNL     1       1.261  -7.036   1.275  0.00  0.00    -0.187 NA
ATOM     17  H   UNL     1       0.819  -7.645   0.663  0.00  0.00    +0.148 HD
BRANCH  16  18
ATOM     18  C   UNL     1       2.708  -6.826   1.183  0.00  0.00    +0.077 C 
ATOM     19  C   UNL     1       2.986  -5.692   0.176  0.00  0.00    +0.020 C 
ATOM     20  C   UNL     1       4.357  -5.136   0.448  0.00  0.00    +0.002 C 
ATOM     21  C   UNL     1       5.443  -5.791  -0.426  0.00  0.00    +0.000 C 
ATOM     22  C   UNL     1       5.264  -7.316  -0.559  0.00  0.00    +0.000 C 
ATOM     23  C   UNL     1       4.879  -7.966   0.742  0.00  0.00    +0.002 C 
ATOM     24  C   UNL     1       3.342  -8.078   0.798  0.00  0.00    +0.020 C 
ENDBRANCH  16  18
ENDBRANCH  13  16
ENDBRANCH   7  13
TORSDOF 3
