REMARK  Name = ZINC00958564
REMARK  7 active torsions:
REMARK  status: ('A' for Active; 'I' for Inactive)
REMARK    1  A    between atoms: C_1  and  C_2
REMARK    2  A    between atoms: C_3  and  C_28
REMARK    3  A    between atoms: C_4  and  C_21
REMARK    4  A    between atoms: C_10  and  S_12
REMARK    5  A    between atoms: S_12  and  C_13
REMARK    6  A    between atoms: C_13  and  C_14
REMARK    7  A    between atoms: C_24  and  O_27
REMARK                            x       y       z     vdW  Elec       q    Type
REMARK                         _______ _______ _______ _____ _____    ______ ____
ROOT
ATOM      1  C   UNL     1       0.639   1.236   0.151  0.00  0.00    +0.064 C 
ATOM      2  C   UNL     1       0.388  -0.247   0.058  0.00  0.00    +0.026 C 
ATOM      3  C   UNL     1      -0.883  -0.691  -0.181  0.00  0.00    +0.059 C 
ATOM      4  C   UNL     1      -1.090  -2.193  -0.268  0.00  0.00    +0.166 C 
ATOM      5  N   UNL     1       0.108  -3.020  -0.085  0.00  0.00    -0.187 N 
ATOM      6  C   UNL     1       1.314  -2.403   0.148  0.00  0.00    +0.217 C 
ATOM      7  N   UNL     1       1.405  -1.081   0.204  0.00  0.00    -0.330 N 
ATOM      8  N   UNL     1       2.239  -3.364   0.279  0.00  0.00    -0.190 NA
ATOM      9  C   UNL     1       1.685  -4.555   0.142  0.00  0.00    +0.197 C 
ATOM     10  N   UNL     1       0.345  -4.397  -0.089  0.00  0.00    -0.118 NA
ATOM     11  H   UNL     1       2.281  -0.697   0.367  0.00  0.00    +0.168 HD
ENDROOT
BRANCH   4  12
ATOM     12  C   UNL     1      -1.673  -2.509  -1.621  0.00  0.00    -0.020 A 
ATOM     13  C   UNL     1      -0.888  -2.396  -2.754  0.00  0.00    +0.009 A 
ATOM     14  C   UNL     1      -1.419  -2.686  -3.995  0.00  0.00    +0.046 A 
ATOM     15  C   UNL     1      -2.742  -3.090  -4.105  0.00  0.00    +0.117 A 
ATOM     16  C   UNL     1      -3.527  -3.203  -2.967  0.00  0.00    +0.046 A 
ATOM     17  C   UNL     1      -2.989  -2.918  -1.727  0.00  0.00    +0.009 A 
BRANCH  15  18
ATOM     18  O   UNL     1      -3.267  -3.375  -5.326  0.00  0.00    -0.507 OA
ATOM     19  H   UNL     1      -3.169  -4.300  -5.590  0.00  0.00    +0.292 HD
ENDBRANCH  15  18
ENDBRANCH   4  12
BRANCH   3  20
ATOM     20  C   UNL     1      -1.954   0.206  -0.339  0.00  0.00    +0.241 C 
ATOM     21  O   UNL     1      -1.743   1.406  -0.379  0.00  0.00    -0.271 OA
ATOM     22  N   UNL     1      -3.214  -0.260  -0.446  0.00  0.00    -0.325 N 
ATOM     23  H   UNL     1      -3.391  -1.208  -0.337  0.00  0.00    +0.145 HD
ATOM     24  H   UNL     1      -3.944   0.351  -0.631  0.00  0.00    +0.145 HD
ENDBRANCH   3  20
BRANCH   9  25
ATOM     25  S   UNL     1       2.533  -6.097   0.239  0.00  0.00    -0.082 S 
BRANCH  25  26
ATOM     26  C   UNL     1       4.256  -5.630   0.559  0.00  0.00    +0.113 C 
BRANCH  26  27
ATOM     27  C   UNL     1       5.102  -6.873   0.666  0.00  0.00    -0.019 A 
ATOM     28  C   UNL     1       5.277  -7.486   1.893  0.00  0.00    +0.006 A 
ATOM     29  C   UNL     1       6.053  -8.626   1.991  0.00  0.00    +0.000 A 
ATOM     30  C   UNL     1       6.653  -9.154   0.863  0.00  0.00    +0.001 A 
ATOM     31  C   UNL     1       6.479  -8.542  -0.363  0.00  0.00    +0.020 A 
ATOM     32  C   UNL     1       5.698  -7.404  -0.464  0.00  0.00    +0.045 A 
ATOM     33 CL   UNL     1       5.473  -6.638  -2.005  0.00  0.00    -0.083 Cl
ENDBRANCH  26  27
ENDBRANCH  25  26
ENDBRANCH   9  25
TORSDOF 6
