REMARK  Name = ZINC25032497
REMARK  11 active torsions:
REMARK  status: ('A' for Active; 'I' for Inactive)
REMARK    1  A    between atoms: C_1  and  C_2
REMARK    2  A    between atoms: C_2  and  C_3
REMARK    3  A    between atoms: C_3  and  N_4
REMARK    4  A    between atoms: C_8  and  S_27
REMARK    5  A    between atoms: C_12  and  S_13
REMARK    6  A    between atoms: S_13  and  C_14
REMARK    7  A    between atoms: C_14  and  C_16
REMARK    8  A    between atoms: C_14  and  C_17
REMARK    9  A    between atoms: N_23  and  C_24
REMARK   10  A    between atoms: N_23  and  C_25
REMARK   11  A    between atoms: S_27  and  N_30
REMARK                            x       y       z     vdW  Elec       q    Type
REMARK                         _______ _______ _______ _____ _____    ______ ____
ROOT
ATOM      1  N   UNL     1       2.473   3.615  -0.002  0.00  0.00    -0.319 N 
ATOM      2  C   UNL     1       1.152   3.197   0.008  0.00  0.00    +0.070 A 
ATOM      3  C   UNL     1      -0.066   3.860   0.024  0.00  0.00    +0.030 A 
ATOM      4  C   UNL     1      -1.241   3.137   0.031  0.00  0.00    +0.030 A 
ATOM      5  C   UNL     1      -1.213   1.750   0.017  0.00  0.00    +0.107 A 
ATOM      6  C   UNL     1      -0.013   1.076   0.008  0.00  0.00    +0.058 A 
ATOM      7  C   UNL     1       1.186   1.793   0.000  0.00  0.00    +0.092 A 
ATOM      8  N   UNL     1       2.494   1.425  -0.014  0.00  0.00    -0.222 NA
ATOM      9  C   UNL     1       3.252   2.494  -0.015  0.00  0.00    +0.171 A 
ENDROOT
BRANCH   5  10
ATOM     10  S   UNL     1      -2.725   0.845   0.019  0.00  0.00    +0.056 S 
ATOM     11  O   UNL     1      -3.715   1.708  -0.522  0.00  0.00    -0.153 OA
ATOM     12  O   UNL     1      -2.436  -0.429  -0.541  0.00  0.00    -0.153 OA
BRANCH  10  13
ATOM     13  N   UNL     1      -3.138   0.584   1.601  0.00  0.00    -0.204 NA
ATOM     14  H   UNL     1      -4.080   0.019   1.646  0.00  0.00    +0.144 HD
ATOM     15  H   UNL     1      -3.265   1.551   2.111  0.00  0.00    +0.144 HD
ENDBRANCH  10  13
ENDBRANCH   5  10
BRANCH   1  16
ATOM     16  C   UNL     1       2.945   5.002   0.002  0.00  0.00    +0.124 C 
BRANCH  16  18
ATOM     17  C   UNL     1       3.591   6.941  -1.437  0.00  0.00    +0.005 C 
ATOM     18  C   UNL     1       3.097   5.492  -1.440  0.00  0.00    +0.018 C 
ENDBRANCH  16  18
ENDBRANCH   1  16
BRANCH   9  19
ATOM     19  S   UNL     1       5.014   2.485  -0.031  0.00  0.00    -0.077 S 
BRANCH  19  20
ATOM     20  C   UNL     1       5.320   0.701  -0.043  0.00  0.00    +0.119 C 
ATOM     21  C   UNL     1       4.793   0.102  -1.349  0.00  0.00    +0.028 C 
BRANCH  20  22
ATOM     22  C   UNL     1       6.801   0.444   0.066  0.00  0.00    +0.149 A 
ATOM     23  N   UNL     1       7.647   1.146  -0.668  0.00  0.00    -0.198 NA
ATOM     24  C   UNL     1       8.956   0.923  -0.574  0.00  0.00    +0.217 A 
ATOM     25  N   UNL     1       9.411  -0.007   0.259  0.00  0.00    -0.181 NA
ATOM     26  C   UNL     1       8.558  -0.711   0.994  0.00  0.00    +0.222 A 
ATOM     27  N   UNL     1       7.250  -0.478   0.899  0.00  0.00    -0.198 NA
ATOM     28  N   UNL     1       9.026  -1.678   1.860  0.00  0.00    -0.306 N 
ATOM     29  C   UNL     1      10.465  -1.929   1.969  0.00  0.00    +0.132 C 
ATOM     30  C   UNL     1       8.084  -2.453   2.671  0.00  0.00    +0.132 C 
ATOM     31  N   UNL     1       9.839   1.656  -1.341  0.00  0.00    -0.327 N 
ATOM     32  H   UNL     1      10.920   1.470  -1.263  0.00  0.00    +0.145 HD
ATOM     33  H   UNL     1       9.461   2.425  -2.030  0.00  0.00    +0.145 HD
ENDBRANCH  20  22
ENDBRANCH  19  20
ENDBRANCH   9  19
TORSDOF 7
