REMARK  Name = ZINC24762428
REMARK  6 active torsions:
REMARK  status: ('A' for Active; 'I' for Inactive)
REMARK    1  A    between atoms: C_1  and  C_2
REMARK    2  A    between atoms: C_3  and  C_13
REMARK    3  A    between atoms: C_13  and  C_14
REMARK    4  A    between atoms: N_16  and  C_17
REMARK    5  A    between atoms: C_22  and  O_23
REMARK    6  A    between atoms: O_23  and  C_24
REMARK                            x       y       z     vdW  Elec       q    Type
REMARK                         _______ _______ _______ _____ _____    ______ ____
ROOT
ATOM      1  C   UNL     1      -1.267   3.414   0.128  0.00  0.00    +0.222 C 
ATOM      2  O   UNL     1      -0.229   4.042   0.127  0.00  0.00    -0.275 OA
ATOM      3  N   UNL     1      -1.242   2.071   0.019  0.00  0.00    -0.282 N 
ATOM      4  H   UNL     1      -2.183   1.507  -0.054  0.00  0.00    +0.155 HD
ENDROOT
BRANCH   3   5
ATOM      5  C   UNL     1      -0.017   1.392  -0.000  0.00  0.00    +0.079 A 
ATOM      6  C   UNL     1       1.083   1.975  -0.609  0.00  0.00    +0.074 A 
ATOM      7  C   UNL     1       2.299   1.305  -0.637  0.00  0.00    +0.138 A 
ATOM      8  C   UNL     1       2.400   0.039  -0.044  0.00  0.00    +0.031 A 
ATOM      9  C   UNL     1       1.293  -0.543   0.567  0.00  0.00    +0.059 A 
ATOM     10  C   UNL     1       0.087   0.131   0.589  0.00  0.00    +0.142 A 
ATOM     11  C   UNL     1       3.798  -0.387  -0.245  0.00  0.00    +0.028 A 
ATOM     12  C   UNL     1       4.521  -1.524   0.101  0.00  0.00    +0.012 A 
ATOM     13  C   UNL     1       5.852  -1.618  -0.244  0.00  0.00    +0.001 A 
ATOM     14  C   UNL     1       6.468  -0.585  -0.932  0.00  0.00    +0.004 A 
ATOM     15  C   UNL     1       5.761   0.547  -1.280  0.00  0.00    +0.047 A 
ATOM     16  C   UNL     1       4.418   0.660  -0.942  0.00  0.00    +0.136 A 
ATOM     17  O   UNL     1       3.505   1.635  -1.152  0.00  0.00    -0.455 OA
BRANCH  10  18
ATOM     18  O   UNL     1      -0.998  -0.433   1.184  0.00  0.00    -0.493 OA
ATOM     19  C   UNL     1      -0.819  -1.726   1.767  0.00  0.00    +0.277 C 
ENDBRANCH  10  18
ENDBRANCH   3   5
BRANCH   1  20
ATOM     20  C   UNL     1      -2.584   4.135   0.252  0.00  0.00    +0.133 C 
BRANCH  20  23
ATOM     21  C   UNL     1      -2.172   5.735   2.880  0.00  0.00    +0.063 C 
ATOM     22  C   UNL     1      -2.157   6.318   1.490  0.00  0.00    +0.018 A 
ATOM     23  C   UNL     1      -2.336   5.618   0.359  0.00  0.00    -0.011 A 
ATOM     24  C   UNL     1      -2.252   6.569  -0.752  0.00  0.00    +0.006 A 
ATOM     25  C   UNL     1      -2.357   6.452  -2.140  0.00  0.00    +0.048 A 
ATOM     26  C   UNL     1      -2.225   7.573  -2.930  0.00  0.00    +0.124 A 
ATOM     27  C   UNL     1      -1.988   8.815  -2.353  0.00  0.00    +0.040 A 
ATOM     28  C   UNL     1      -1.883   8.946  -0.986  0.00  0.00    +0.029 A 
ATOM     29  C   UNL     1      -2.012   7.827  -0.170  0.00  0.00    +0.047 A 
ATOM     30  N   UNL     1      -1.957   7.639   1.194  0.00  0.00    -0.358 N 
ATOM     31  H   UNL     1      -1.786   8.364   2.004  0.00  0.00    +0.166 HD
ATOM     32  F   UNL     1      -2.327   7.464  -4.273  0.00  0.00    -0.205 F 
ENDBRANCH  20  23
ENDBRANCH   1  20
TORSDOF 4
