REMARK  Name = ZINC25449412
REMARK  9 active torsions:
REMARK  status: ('A' for Active; 'I' for Inactive)
REMARK    1  A    between atoms: C_1  and  C_2
REMARK    2  A    between atoms: C_2  and  C_3
REMARK    3  A    between atoms: C_3  and  C_29
REMARK    4  A    between atoms: N_6  and  N_10
REMARK    5  A    between atoms: C_11  and  C_13
REMARK    6  A    between atoms: C_13  and  N_14
REMARK    7  A    between atoms: C_17  and  C_20
REMARK    8  A    between atoms: C_20  and  C_22
REMARK    9  A    between atoms: C_25  and  O_28
REMARK                            x       y       z     vdW  Elec       q    Type
REMARK                         _______ _______ _______ _____ _____    ______ ____
ROOT
ATOM      1  N   UNL     1      -2.409   1.111   4.946  0.00  0.00    -0.225 N 
ATOM      2  C   UNL     1      -1.941   0.993   3.687  0.00  0.00    +0.213 C 
ATOM      3  O   UNL     1      -0.834   0.538   3.492  0.00  0.00    -0.276 OA
ATOM      4  H   UNL     1      -3.413   1.524   5.123  0.00  0.00    +0.173 HD
ENDROOT
BRANCH   1   8
ATOM      5  C   UNL     1      -0.256   0.684   7.864  0.00  0.00    +0.139 C 
ATOM      6  C   UNL     1      -0.979   1.558   6.858  0.00  0.00    +0.268 C 
ATOM      7  O   UNL     1      -0.983   2.769   6.810  0.00  0.00    -0.271 OA
ATOM      8  N   UNL     1      -1.615   0.708   6.028  0.00  0.00    -0.137 N 
ATOM      9  C   UNL     1      -1.401  -0.568   6.369  0.00  0.00    +0.327 C 
ATOM     10  O   UNL     1      -1.874  -1.515   5.772  0.00  0.00    -0.251 OA
ATOM     11  N   UNL     1      -0.601  -0.685   7.444  0.00  0.00    -0.280 N 
ATOM     12  H   UNL     1      -0.206  -1.547   8.001  0.00  0.00    +0.152 HD
BRANCH   5  13
ATOM     13  C   UNL     1      -0.755   0.957   9.259  0.00  0.00    -0.015 A 
ATOM     14  C   UNL     1      -0.135   1.914  10.040  0.00  0.00    +0.006 A 
ATOM     15  C   UNL     1      -0.596   2.167  11.319  0.00  0.00    +0.000 A 
ATOM     16  C   UNL     1      -1.671   1.457  11.819  0.00  0.00    +0.000 A 
ATOM     17  C   UNL     1      -2.287   0.495  11.040  0.00  0.00    +0.000 A 
ATOM     18  C   UNL     1      -1.829   0.246   9.760  0.00  0.00    +0.006 A 
ENDBRANCH   5  13
BRANCH   5  20
ATOM     19  C   UNL     1       1.745   0.573   6.371  0.00  0.00    +0.007 C 
ATOM     20  C   UNL     1       1.256   0.907   7.781  0.00  0.00    +0.037 C 
ENDBRANCH   5  20
ENDBRANCH   1   8
BRANCH   2  21
ATOM     21  C   UNL     1      -2.794   1.427   2.523  0.00  0.00    +0.020 C 
BRANCH  21  22
ATOM     22  N   UNL     1      -2.129   1.061   1.266  0.00  0.00    +0.385 N 
ATOM     23  C   UNL     1      -2.799   1.683   0.115  0.00  0.00    -0.077 C 
ATOM     24  C   UNL     1      -1.996   1.400  -1.157  0.00  0.00    -0.007 C 
ATOM     25  C   UNL     1      -1.890  -0.114  -1.362  0.00  0.00    +0.057 C 
ATOM     26  C   UNL     1      -1.234  -0.743  -0.130  0.00  0.00    -0.007 C 
ATOM     27  C   UNL     1      -2.058  -0.398   1.113  0.00  0.00    -0.077 C 
ATOM     28  H   UNL     1      -1.099   1.444   1.302  0.00  0.00    -0.081 HD
BRANCH  25  29
ATOM     29  C   UNL     1      -1.051  -0.399  -2.581  0.00  0.00    +0.166 C 
ATOM     30  O   UNL     1      -0.169   0.369  -2.903  0.00  0.00    -0.292 OA
BRANCH  29  31
ATOM     31  C   UNL     1      -1.301  -1.607  -3.378  0.00  0.00    +0.018 A 
ATOM     32  C   UNL     1      -2.314  -2.498  -3.004  0.00  0.00    +0.015 A 
ATOM     33  C   UNL     1      -2.548  -3.621  -3.755  0.00  0.00    +0.046 A 
ATOM     34  C   UNL     1      -1.772  -3.882  -4.880  0.00  0.00    +0.117 A 
ATOM     35  C   UNL     1      -0.760  -3.004  -5.251  0.00  0.00    +0.046 A 
ATOM     36  C   UNL     1      -0.522  -1.874  -4.511  0.00  0.00    +0.015 A 
BRANCH  34  37
ATOM     37  O   UNL     1      -2.002  -4.998  -5.616  0.00  0.00    -0.507 OA
ATOM     38  H   UNL     1      -1.390  -5.206  -6.505  0.00  0.00    +0.292 HD
ENDBRANCH  34  37
ENDBRANCH  29  31
ENDBRANCH  25  29
ENDBRANCH  21  22
ENDBRANCH   2  21
TORSDOF 8
