REMARK  Name = ZINC15276160
REMARK  13 active torsions:
REMARK  status: ('A' for Active; 'I' for Inactive)
REMARK    1  A    between atoms: C_1  and  C_2
REMARK    2  A    between atoms: C_2  and  O_3
REMARK    3  A    between atoms: O_3  and  C_4
REMARK    4  A    between atoms: C_8  and  C_11
REMARK    5  A    between atoms: C_9  and  O_10
REMARK    6  A    between atoms: N_19  and  C_22
REMARK    7  A    between atoms: C_27  and  O_28
REMARK    8  A    between atoms: O_28  and  C_29
REMARK    9  A    between atoms: C_30  and  C_32
REMARK   10  A    between atoms: C_30  and  C_36
REMARK   11  A    between atoms: C_32  and  C_33
REMARK   12  A    between atoms: C_33  and  C_34
REMARK   13  A    between atoms: C_33  and  C_35
REMARK                            x       y       z     vdW  Elec       q    Type
REMARK                         _______ _______ _______ _____ _____    ______ ____
ROOT
ATOM      1  C   UNL     1       2.091  -4.126   4.288  0.00  0.00    -0.023 C 
ATOM      2  C   UNL     1       1.249  -4.069   5.559  0.00  0.00    +0.077 C 
ATOM      3  C   UNL     1       2.070  -5.129   6.386  0.00  0.00    +0.086 C 
ATOM      4  C   UNL     1       1.631  -4.861   7.735  0.00  0.00    +0.229 C 
ATOM      5  O   UNL     1       1.491  -5.658   8.638  0.00  0.00    -0.275 OA
ATOM      6  N   UNL     1       1.407  -3.507   7.772  0.00  0.00    -0.206 N 
ATOM      7  C   UNL     1       1.378  -2.929   6.520  0.00  0.00    +0.229 C 
ATOM      8  O   UNL     1       1.448  -1.750   6.247  0.00  0.00    -0.275 OA
ATOM      9  C   UNL     1       2.216  -6.253   5.453  0.00  0.00    +0.048 C 
ATOM     10  N   UNL     1       2.321  -5.595   4.096  0.00  0.00    +0.396 N 
ATOM     11  H   UNL     1       1.614  -5.976   3.485  0.00  0.00    -0.083 HD
ATOM     12  H   UNL     1       3.236  -5.749   3.700  0.00  0.00    -0.083 HD
ENDROOT
BRANCH   1  17
ATOM     13  C   UNL     1       0.820  -1.693   1.682  0.00  0.00    +0.162 A 
ATOM     14  C   UNL     1      -0.063  -2.492   0.973  0.00  0.00    +0.049 A 
ATOM     15  C   UNL     1      -0.245  -3.813   1.338  0.00  0.00    +0.004 A 
ATOM     16  C   UNL     1       0.451  -4.340   2.409  0.00  0.00    +0.006 A 
ATOM     17  C   UNL     1       1.333  -3.549   3.121  0.00  0.00    -0.015 A 
ATOM     18  C   UNL     1       1.525  -2.225   2.757  0.00  0.00    +0.160 A 
BRANCH  18  19
ATOM     19  O   UNL     1       2.397  -1.447   3.452  0.00  0.00    -0.503 OA
ATOM     20  H   UNL     1       1.998  -0.981   4.200  0.00  0.00    +0.292 HD
ENDBRANCH  18  19
BRANCH  13  21
ATOM     21  O   UNL     1       1.001  -0.394   1.325  0.00  0.00    -0.489 OA
BRANCH  21  23
ATOM     22  C   UNL     1       0.577   1.556  -0.039  0.00  0.00    +0.048 C 
ATOM     23  C   UNL     1       0.243   0.084   0.211  0.00  0.00    +0.226 C 
ENDBRANCH  21  23
ENDBRANCH  13  21
ENDBRANCH   1  17
BRANCH   6  24
ATOM     24  C   UNL     1       1.213  -2.784   8.960  0.00  0.00    +0.085 A 
ATOM     25  C   UNL     1       2.299  -2.228   9.620  0.00  0.00    +0.027 A 
ATOM     26  C   UNL     1       2.106  -1.516  10.788  0.00  0.00    +0.002 A 
ATOM     27  C   UNL     1       0.832  -1.357  11.303  0.00  0.00    +0.004 A 
ATOM     28  C   UNL     1      -0.255  -1.909  10.651  0.00  0.00    +0.047 A 
ATOM     29  C   UNL     1      -0.070  -2.619   9.475  0.00  0.00    +0.142 A 
BRANCH  29  30
ATOM     30  O   UNL     1      -1.138  -3.158   8.830  0.00  0.00    -0.493 OA
ATOM     31  C   UNL     1      -2.424  -2.948   9.416  0.00  0.00    +0.277 C 
ENDBRANCH  29  30
ENDBRANCH   6  24
BRANCH   9  32
ATOM     32  C   UNL     1       1.018  -7.162   5.532  0.00  0.00    +0.346 C 
ATOM     33  O   UNL     1       0.266  -7.265   4.578  0.00  0.00    -0.248 OA
ATOM     34  O   UNL     1       0.800  -7.796   6.551  0.00  0.00    -0.248 OA
ENDBRANCH   9  32
BRANCH   9  35
ATOM     35  C   UNL     1       3.500  -7.030   5.752  0.00  0.00    +0.002 C 
BRANCH  35  36
ATOM     36  C   UNL     1       3.717  -8.090   4.670  0.00  0.00    -0.018 C 
ATOM     37  C   UNL     1       5.086  -8.745   4.866  0.00  0.00    +0.007 C 
ATOM     38  C   UNL     1       2.623  -9.155   4.771  0.00  0.00    +0.007 C 
ENDBRANCH  35  36
ENDBRANCH   9  35
TORSDOF 9
