REMARK  Name = ZINC23011655
REMARK  9 active torsions:
REMARK  status: ('A' for Active; 'I' for Inactive)
REMARK    1  A    between atoms: C_1  and  C_2
REMARK    2  A    between atoms: C_2  and  C_3
REMARK    3  A    between atoms: C_2  and  C_4
REMARK    4  A    between atoms: C_4  and  C_6
REMARK    5  A    between atoms: C_4  and  N_25
REMARK    6  A    between atoms: N_8  and  C_9
REMARK    7  A    between atoms: C_12  and  N_15
REMARK    8  A    between atoms: N_18  and  C_19
REMARK    9  A    between atoms: C_26  and  C_28
REMARK                            x       y       z     vdW  Elec       q    Type
REMARK                         _______ _______ _______ _____ _____    ______ ____
ROOT
ATOM      1  C   UNL     1       0.872  -0.643  -0.049  0.00  0.00    +0.034 A 
ATOM      2  C   UNL     1      -0.083   0.032  -0.797  0.00  0.00    +0.025 A 
ATOM      3  C   UNL     1      -0.046   1.409  -0.883  0.00  0.00    +0.025 A 
ATOM      4  C   UNL     1       0.947   2.119  -0.221  0.00  0.00    +0.035 A 
ATOM      5  C   UNL     1       1.902   1.444   0.527  0.00  0.00    +0.025 A 
ATOM      6  C   UNL     1       1.865   0.067   0.613  0.00  0.00    +0.025 A 
ENDROOT
BRANCH   4   7
ATOM      7  N   UNL     1       0.985   3.517  -0.308  0.00  0.00    -0.269 N 
ATOM      8  C   UNL     1      -0.159   4.215  -0.453  0.00  0.00    +0.308 C 
ATOM      9  O   UNL     1      -1.232   3.650  -0.356  0.00  0.00    -0.252 OA
ATOM     10  N   UNL     1      -0.114   5.538  -0.705  0.00  0.00    -0.269 N 
ATOM     11  H   UNL     1       1.949   4.045  -0.258  0.00  0.00    +0.156 HD
ATOM     12  H   UNL     1       0.848   6.023  -0.928  0.00  0.00    +0.156 HD
BRANCH  10  13
ATOM     13  C   UNL     1      -1.291   6.295  -0.682  0.00  0.00    +0.035 A 
ATOM     14  C   UNL     1      -1.417   7.410  -1.500  0.00  0.00    +0.023 A 
ATOM     15  C   UNL     1      -2.582   8.152  -1.479  0.00  0.00    +0.002 A 
ATOM     16  C   UNL     1      -3.618   7.792  -0.637  0.00  0.00    +0.000 A 
ATOM     17  C   UNL     1      -3.493   6.686   0.183  0.00  0.00    +0.002 A 
ATOM     18  C   UNL     1      -2.333   5.936   0.163  0.00  0.00    +0.023 A 
ENDBRANCH  10  13
ENDBRANCH   4   7
BRANCH   1  21
ATOM     19  C   UNL     1       1.970  -2.734   0.254  0.00  0.00    +0.238 C 
ATOM     20  O   UNL     1       3.003  -2.145   0.495  0.00  0.00    -0.273 OA
ATOM     21  N   UNL     1       0.834  -2.041   0.038  0.00  0.00    -0.284 N 
ATOM     22  H   UNL     1      -0.123  -2.573  -0.070  0.00  0.00    +0.155 HD
BRANCH  19  23
ATOM     23  C   UNL     1       1.957  -4.240   0.195  0.00  0.00    +0.162 C 
BRANCH  23  24
ATOM     24  N   UNL     1       3.333  -4.738   0.139  0.00  0.00    -0.299 N 
ATOM     25  C   UNL     1       3.592  -5.942  -0.409  0.00  0.00    +0.251 C 
ATOM     26  O   UNL     1       2.682  -6.615  -0.857  0.00  0.00    -0.270 OA
ATOM     27  H   UNL     1       4.155  -4.130   0.544  0.00  0.00    +0.150 HD
BRANCH  25  28
ATOM     28  C   UNL     1       4.969  -6.441  -0.465  0.00  0.00    +0.074 A 
ATOM     29  C   UNL     1       5.445  -7.636  -0.980  0.00  0.00    +0.021 A 
ATOM     30  C   UNL     1       6.798  -7.855  -0.904  0.00  0.00    +0.008 A 
ATOM     31  C   UNL     1       7.593  -6.908  -0.340  0.00  0.00    +0.046 A 
ATOM     32  S   UNL     1       6.471  -5.664   0.104  0.00  0.00    -0.092 S 
ENDBRANCH  25  28
ENDBRANCH  23  24
BRANCH  23  34
ATOM     33  C   UNL     1       1.098  -6.307   1.304  0.00  0.00    +0.009 C 
ATOM     34  C   UNL     1       1.264  -4.793   1.442  0.00  0.00    +0.012 C 
ATOM     35  C   UNL     1       2.114  -4.484   2.677  0.00  0.00    +0.009 C 
ENDBRANCH  23  34
ENDBRANCH  19  23
ENDBRANCH   1  21
TORSDOF 7
