REMARK  Name = ZINC08789133
REMARK  9 active torsions:
REMARK  status: ('A' for Active; 'I' for Inactive)
REMARK    1  A    between atoms: C_1  and  C_2
REMARK    2  A    between atoms: C_2  and  O_3
REMARK    3  A    between atoms: O_3  and  C_4
REMARK    4  A    between atoms: C_4  and  C_6
REMARK    5  A    between atoms: C_9  and  N_12
REMARK    6  A    between atoms: C_17  and  C_35
REMARK    7  A    between atoms: C_27  and  C_34
REMARK    8  A    between atoms: C_28  and  C_33
REMARK    9  A    between atoms: C_35  and  C_36
REMARK                            x       y       z     vdW  Elec       q    Type
REMARK                         _______ _______ _______ _____ _____    ______ ____
ROOT
ATOM      1  N   UNL     1       1.996  -0.285   8.382  0.00  0.00    -0.210 N 
ATOM      2  C   UNL     1       1.600   0.107   9.598  0.00  0.00    +0.228 C 
ATOM      3  O   UNL     1       0.679   0.862   9.825  0.00  0.00    -0.275 OA
ATOM      4  C   UNL     1       2.480  -0.538  10.645  0.00  0.00    +0.074 C 
ATOM      5  C   UNL     1       3.344   0.546  11.323  0.00  0.00    -0.049 C 
ATOM      6  C   UNL     1       4.842  -0.718  10.051  0.00  0.00    +0.050 C 
ATOM      7  C   UNL     1       3.480  -1.379   9.805  0.00  0.00    +0.088 C 
ATOM      8  C   UNL     1       3.037  -1.126   8.381  0.00  0.00    +0.229 C 
ATOM      9  O   UNL     1       3.548  -1.607   7.392  0.00  0.00    -0.275 OA
ATOM     10  C   UNL     1       5.626  -1.448  11.104  0.00  0.00    -0.027 A 
ATOM     11  C   UNL     1       5.386  -1.750  12.425  0.00  0.00    +0.005 A 
ATOM     12  C   UNL     1       6.326  -2.455  13.156  0.00  0.00    +0.004 A 
ATOM     13  C   UNL     1       7.506  -2.855  12.555  0.00  0.00    -0.046 A 
ATOM     14  C   UNL     1       7.751  -2.554  11.231  0.00  0.00    -0.026 A 
ATOM     15  C   UNL     1       6.810  -1.845  10.488  0.00  0.00    +0.039 A 
ATOM     16  N   UNL     1       6.825  -1.428   9.156  0.00  0.00    -0.286 N 
ATOM     17  C   UNL     1       5.705  -0.759   8.820  0.00  0.00    +0.211 C 
ATOM     18  O   UNL     1       5.443  -0.282   7.736  0.00  0.00    -0.277 OA
ATOM     19  C   UNL     1       9.040  -2.994  10.587  0.00  0.00    +0.046 C 
ATOM     20  C   UNL     1       8.531  -3.622  13.351  0.00  0.00    +0.044 C 
ATOM     21  H   UNL     1       7.557  -1.600   8.543  0.00  0.00    +0.155 HD
ATOM     22  N   UNL     1       4.531   0.638  10.469  0.00  0.00    +0.394 N 
ATOM     23  H   UNL     1       5.317   1.037  10.995  0.00  0.00    -0.083 HD
ATOM     24  H   UNL     1       4.334   1.226   9.650  0.00  0.00    -0.083 HD
ENDROOT
BRANCH   1  28
ATOM     25  C   UNL     1       0.129   0.995   4.881  0.00  0.00    +0.059 A 
ATOM     26  C   UNL     1       0.039  -0.344   5.274  0.00  0.00    +0.017 A 
ATOM     27  C   UNL     1       0.663  -0.764   6.428  0.00  0.00    +0.025 A 
ATOM     28  C   UNL     1       1.370   0.144   7.208  0.00  0.00    +0.044 A 
ATOM     29  C   UNL     1       1.457   1.478   6.824  0.00  0.00    +0.025 A 
ATOM     30  C   UNL     1       0.841   1.904   5.668  0.00  0.00    +0.017 A 
BRANCH  25  31
ATOM     31  C   UNL     1      -0.532   1.448   3.643  0.00  0.00    +0.339 C 
ATOM     32  O   UNL     1      -0.458   2.613   3.306  0.00  0.00    -0.245 OA
BRANCH  31  33
ATOM     33  O   UNL     1      -1.219   0.570   2.886  0.00  0.00    -0.461 OA
BRANCH  33  35
ATOM     34  C   UNL     1      -2.571  -0.049   0.958  0.00  0.00    +0.048 C 
ATOM     35  C   UNL     1      -1.843   1.086   1.681  0.00  0.00    +0.229 C 
ENDBRANCH  33  35
ENDBRANCH  31  33
ENDBRANCH  25  31
ENDBRANCH   1  28
BRANCH   5  36
ATOM     36  C   UNL     1       2.588   1.875  11.373  0.00  0.00    +0.080 C 
BRANCH  36  37
ATOM     37  C   UNL     1       3.398   2.885  12.145  0.00  0.00    +0.209 C 
ATOM     38  O   UNL     1       4.474   2.572  12.609  0.00  0.00    -0.276 OA
ATOM     39  N   UNL     1       2.927   4.135  12.320  0.00  0.00    -0.329 N 
ATOM     40  H   UNL     1       2.066   4.386  11.949  0.00  0.00    +0.145 HD
ATOM     41  H   UNL     1       3.448   4.785  12.817  0.00  0.00    +0.145 HD
ENDBRANCH  36  37
ENDBRANCH   5  36
TORSDOF 6
