REMARK  Name = ZINC52570024
REMARK  10 active torsions:
REMARK  status: ('A' for Active; 'I' for Inactive)
REMARK    1  A    between atoms: C_1  and  C_2
REMARK    2  A    between atoms: C_2  and  C_3
REMARK    3  A    between atoms: C_2  and  C_4
REMARK    4  A    between atoms: C_2  and  C_5
REMARK    5  A    between atoms: C_8  and  N_12
REMARK    6  A    between atoms: N_9  and  C_11
REMARK    7  A    between atoms: N_15  and  C_16
REMARK    8  A    between atoms: C_19  and  O_26
REMARK    9  A    between atoms: O_26  and  C_27
REMARK   10  A    between atoms: N_33  and  C_38
REMARK                            x       y       z     vdW  Elec       q    Type
REMARK                         _______ _______ _______ _____ _____    ______ ____
ROOT
ATOM      1  C   UNL     1       2.262   3.935  -6.591  0.00  0.00    +0.043 A 
ATOM      2  C   UNL     1       3.555   4.011  -6.124  0.00  0.00    +0.027 A 
ATOM      3  C   UNL     1       4.459   4.917  -6.672  0.00  0.00    +0.049 A 
ATOM      4  C   UNL     1       4.083   5.759  -7.693  0.00  0.00    +0.136 A 
ATOM      5  C   UNL     1       2.766   5.706  -8.194  0.00  0.00    +0.026 A 
ATOM      6  C   UNL     1       1.847   4.780  -7.641  0.00  0.00    +0.007 A 
ATOM      7  C   UNL     1       0.538   4.726  -8.145  0.00  0.00    +0.010 A 
ATOM      8  C   UNL     1       0.170   5.556  -9.159  0.00  0.00    +0.001 A 
ATOM      9  C   UNL     1       1.076   6.463  -9.707  0.00  0.00    +0.001 A 
ATOM     10  C   UNL     1       2.350   6.552  -9.235  0.00  0.00    +0.012 A 
ENDROOT
BRANCH   1  14
ATOM     11  N   UNL     1       0.521   1.905  -4.161  0.00  0.00    -0.257 N 
ATOM     12  C   UNL     1       1.433   2.728  -4.716  0.00  0.00    +0.309 C 
ATOM     13  O   UNL     1       2.316   3.207  -4.032  0.00  0.00    -0.252 OA
ATOM     14  N   UNL     1       1.365   3.019  -6.031  0.00  0.00    -0.269 N 
ATOM     15  H   UNL     1      -0.137   1.462  -4.719  0.00  0.00    +0.158 HD
ATOM     16  H   UNL     1       0.695   2.593  -6.588  0.00  0.00    +0.156 HD
BRANCH  11  19
ATOM     17  C   UNL     1       1.066   1.698  -0.568  0.00  0.00    +0.104 C 
ATOM     18  C   UNL     1       1.447   2.164  -1.956  0.00  0.00    +0.034 C 
ATOM     19  C   UNL     1       0.523   1.691  -2.784  0.00  0.00    +0.105 C 
ATOM     20  N   UNL     1      -0.436   0.960  -2.109  0.00  0.00    -0.257 N 
ATOM     21  N   UNL     1      -0.174   0.923  -0.767  0.00  0.00    -0.232 NA
ATOM     22  C   UNL     1      -1.584   0.311  -2.747  0.00  0.00    +0.151 C 
ATOM     23  H   UNL     1      -0.062  -0.027  -0.446  0.00  0.00    +0.145 HD
BRANCH  17  25
ATOM     24  C   UNL     1       2.419  -0.372  -0.919  0.00  0.00    +0.012 C 
ATOM     25  C   UNL     1       2.164   0.809   0.019  0.00  0.00    -0.017 C 
ATOM     26  C   UNL     1       1.722   0.287   1.387  0.00  0.00    +0.012 C 
ATOM     27  C   UNL     1       3.450   1.623   0.175  0.00  0.00    +0.012 C 
ENDBRANCH  17  25
ENDBRANCH  11  19
ENDBRANCH   1  14
BRANCH   4  28
ATOM     28  O   UNL     1       4.976   6.639  -8.216  0.00  0.00    -0.453 OA
BRANCH  28  29
ATOM     29  C   UNL     1       5.011   7.895  -7.702  0.00  0.00    +0.157 A 
ATOM     30  C   UNL     1       4.230   8.240  -6.601  0.00  0.00    +0.068 A 
ATOM     31  C   UNL     1       4.293   9.527  -6.106  0.00  0.00    +0.117 A 
ATOM     32  N   UNL     1       5.076  10.435  -6.657  0.00  0.00    -0.236 NA
ATOM     33  C   UNL     1       5.836  10.155  -7.706  0.00  0.00    +0.162 A 
ATOM     34  C   UNL     1       5.831   8.874  -8.258  0.00  0.00    +0.131 A 
ATOM     35  N   UNL     1       6.724   8.888  -9.328  0.00  0.00    -0.291 N 
ATOM     36  C   UNL     1       7.251  10.124  -9.417  0.00  0.00    +0.329 A 
ATOM     37  O   UNL     1       8.068  10.479 -10.246  0.00  0.00    -0.247 OA
ATOM     38  N   UNL     1       6.728  10.909  -8.457  0.00  0.00    -0.291 N 
ATOM     39  H   UNL     1       6.945  11.843  -8.309  0.00  0.00    +0.172 HD
ATOM     40  C   UNL     1       7.034   7.755 -10.203  0.00  0.00    +0.154 C 
ENDBRANCH  28  29
ENDBRANCH   4  28
TORSDOF 5
