REMARK  Name = ZINC05600596
REMARK  6 active torsions:
REMARK  status: ('A' for Active; 'I' for Inactive)
REMARK    1  A    between atoms: C_1  and  N_2
REMARK    2  A    between atoms: N_2  and  C_3
REMARK    3  A    between atoms: N_2  and  C_4
REMARK    4  A    between atoms: C_7  and  C_10
REMARK    5  A    between atoms: C_12  and  C_24
REMARK    6  A    between atoms: C_13  and  C_18
REMARK                            x       y       z     vdW  Elec       q    Type
REMARK                         _______ _______ _______ _____ _____    ______ ____
ROOT
ATOM      1  C   UNL     1       4.830   5.226   0.372  0.00  0.00    +0.139 C 
ATOM      2  C   UNL     1       3.511   5.969   0.300  0.00  0.00    +0.024 C 
ATOM      3  C   UNL     1       3.541   7.274  -0.070  0.00  0.00    +0.049 C 
ATOM      4  N   UNL     1       4.739   7.896  -0.377  0.00  0.00    -0.269 N 
ATOM      5  C   UNL     1       5.925   7.274  -0.331  0.00  0.00    +0.305 C 
ATOM      6  O   UNL     1       6.927   7.900  -0.617  0.00  0.00    -0.252 OA
ATOM      7  N   UNL     1       6.045   5.980   0.021  0.00  0.00    -0.288 N 
ATOM      8  H   UNL     1       4.719   8.829  -0.638  0.00  0.00    +0.156 HD
ATOM      9  H   UNL     1       6.915   5.553   0.046  0.00  0.00    +0.151 HD
ENDROOT
BRANCH   2  10
ATOM     10  C   UNL     1       2.245   5.302   0.627  0.00  0.00    +0.072 A 
ATOM     11  C   UNL     1       1.835   4.190  -0.136  0.00  0.00    +0.029 A 
ATOM     12  C   UNL     1       0.663   3.564   0.158  0.00  0.00    +0.012 A 
ATOM     13  C   UNL     1      -0.110   4.057   1.231  0.00  0.00    +0.000 A 
ATOM     14  C   UNL     1      -1.328   3.457   1.583  0.00  0.00    +0.010 A 
ATOM     15  C   UNL     1      -2.048   3.954   2.628  0.00  0.00    +0.001 A 
ATOM     16  C   UNL     1      -1.596   5.060   3.344  0.00  0.00    +0.002 A 
ATOM     17  C   UNL     1      -0.419   5.668   3.029  0.00  0.00    +0.028 A 
ATOM     18  C   UNL     1       0.354   5.179   1.961  0.00  0.00    +0.072 A 
ATOM     19  N   UNL     1       1.513   5.757   1.632  0.00  0.00    -0.247 NA
ENDBRANCH   2  10
BRANCH   1  23
ATOM     20  C   UNL     1       5.290   3.746   4.355  0.00  0.00    +0.029 A 
ATOM     21  C   UNL     1       4.850   2.900   3.344  0.00  0.00    +0.023 A 
ATOM     22  C   UNL     1       4.703   3.382   2.058  0.00  0.00    +0.007 A 
ATOM     23  C   UNL     1       4.992   4.704   1.776  0.00  0.00    -0.023 A 
ATOM     24  C   UNL     1       5.435   5.548   2.779  0.00  0.00    +0.007 A 
ATOM     25  C   UNL     1       5.579   5.074   4.068  0.00  0.00    +0.023 A 
BRANCH  20  27
ATOM     26  C   UNL     1       5.248   1.836   5.935  0.00  0.00    +0.129 C 
ATOM     27  N   UNL     1       5.440   3.262   5.656  0.00  0.00    -0.336 N 
ATOM     28  C   UNL     1       5.791   4.179   6.743  0.00  0.00    +0.129 C 
ENDBRANCH  20  27
ENDBRANCH   1  23
BRANCH   3  29
ATOM     29  C   UNL     1       2.280   8.039  -0.149  0.00  0.00    -0.003 A 
ATOM     30  C   UNL     1       1.182   7.514  -0.833  0.00  0.00    +0.010 A 
ATOM     31  C   UNL     1       0.006   8.232  -0.897  0.00  0.00    +0.001 A 
ATOM     32  C   UNL     1      -0.084   9.475  -0.296  0.00  0.00    +0.000 A 
ATOM     33  C   UNL     1       1.003  10.004   0.379  0.00  0.00    +0.001 A 
ATOM     34  C   UNL     1       2.183   9.294   0.456  0.00  0.00    +0.010 A 
ENDBRANCH   3  29
TORSDOF 4
