REMARK  Name = ZINC49991228
REMARK  7 active torsions:
REMARK  status: ('A' for Active; 'I' for Inactive)
REMARK    1  A    between atoms: C_1  and  C_2
REMARK    2  A    between atoms: C_6  and  N_8
REMARK    3  A    between atoms: N_8  and  C_9
REMARK    4  A    between atoms: N_8  and  S_10
REMARK    5  A    between atoms: S_10  and  C_13
REMARK    6  A    between atoms: C_18  and  N_19
REMARK    7  A    between atoms: N_19  and  N_20
REMARK                            x       y       z     vdW  Elec       q    Type
REMARK                         _______ _______ _______ _____ _____    ______ ____
ROOT
ATOM      1  S   UNL     1      -0.645  -4.294   2.471  0.00  0.00    +0.078 S 
ATOM      2  O   UNL     1      -1.178  -4.548   3.764  0.00  0.00    -0.150 OA
ATOM      3  O   UNL     1      -1.450  -4.302   1.300  0.00  0.00    -0.150 OA
ENDROOT
BRANCH   1   4
ATOM      4  C   UNL     1       0.632  -5.479   2.212  0.00  0.00    +0.150 A 
ATOM      5  C   UNL     1       1.959  -5.131   2.393  0.00  0.00    +0.049 A 
ATOM      6  C   UNL     1       2.933  -6.098   2.178  0.00  0.00    +0.038 A 
ATOM      7  C   UNL     1       2.552  -7.368   1.792  0.00  0.00    +0.128 A 
ATOM      8  N   UNL     1       1.278  -7.671   1.626  0.00  0.00    -0.236 NA
ATOM      9  C   UNL     1       0.321  -6.779   1.827  0.00  0.00    +0.159 A 
ATOM     10 BR   UNL     1       4.763  -5.678   2.410  0.00  0.00    -0.049 Br
BRANCH   9  11
ATOM     11  N   UNL     1      -1.009  -7.144   1.648  0.00  0.00    -0.266 N 
ATOM     12  H   UNL     1      -1.717  -6.517   1.862  0.00  0.00    +0.167 HD
BRANCH  11  13
ATOM     13  N   UNL     1      -1.318  -8.386   1.169  0.00  0.00    -0.255 NA
ATOM     14  H   UNL     1      -0.981  -9.106   1.789  0.00  0.00    +0.140 HD
ATOM     15  H   UNL     1      -2.311  -8.477   1.014  0.00  0.00    +0.140 HD
ENDBRANCH  11  13
ENDBRANCH   9  11
ENDBRANCH   1   4
BRANCH   1  16
ATOM     16  N   UNL     1       0.075  -2.805   2.540  0.00  0.00    -0.206 N 
ATOM     17  C   UNL     1       0.605  -2.305   3.812  0.00  0.00    +0.157 C 
BRANCH  16  23
ATOM     18  C   UNL     1       0.444   1.628   0.451  0.00  0.00    +0.044 C 
ATOM     19  C   UNL     1       0.358   0.128   0.343  0.00  0.00    -0.049 A 
ATOM     20  C   UNL     1       0.381  -0.478  -0.900  0.00  0.00    +0.003 A 
ATOM     21  C   UNL     1       0.302  -1.855  -1.003  0.00  0.00    +0.002 A 
ATOM     22  C   UNL     1       0.201  -2.630   0.136  0.00  0.00    +0.025 A 
ATOM     23  C   UNL     1       0.178  -2.024   1.386  0.00  0.00    +0.051 A 
ATOM     24  C   UNL     1       0.263  -0.641   1.486  0.00  0.00    +0.028 A 
ENDBRANCH  16  23
ENDBRANCH   1  16
TORSDOF 5
