REMARK  Name = ZINC59045243
REMARK  8 active torsions:
REMARK  status: ('A' for Active; 'I' for Inactive)
REMARK    1  A    between atoms: C_1  and  C_2
REMARK    2  A    between atoms: C_2  and  C_3
REMARK    3  A    between atoms: C_2  and  N_4
REMARK    4  A    between atoms: C_5  and  C_7
REMARK    5  A    between atoms: C_7  and  S_8
REMARK    6  A    between atoms: S_8  and  C_9
REMARK    7  A    between atoms: C_12  and  C_15
REMARK    8  A    between atoms: N_13  and  N_14
REMARK                            x       y       z     vdW  Elec       q    Type
REMARK                         _______ _______ _______ _____ _____    ______ ____
ROOT
ATOM      1  C   UNL     1       0.619  -1.809   6.307  0.00  0.00    +0.209 A 
ATOM      2  N   UNL     1       1.899  -2.104   6.256  0.00  0.00    -0.121 NA
ATOM      3  N   UNL     1       2.305  -2.508   7.407  0.00  0.00    -0.127 NA
ATOM      4  C   UNL     1       1.310  -2.496   8.263  0.00  0.00    +0.182 A 
ATOM      5  N   UNL     1       0.201  -2.042   7.586  0.00  0.00    -0.224 N 
ENDROOT
BRANCH   4   6
ATOM      6  C   UNL     1       1.371  -2.889   9.687  0.00  0.00    +0.021 A 
ATOM      7  C   UNL     1       0.195  -3.133  10.397  0.00  0.00    +0.013 A 
ATOM      8  C   UNL     1       0.258  -3.499  11.726  0.00  0.00    +0.016 A 
ATOM      9  C   UNL     1       1.486  -3.625  12.354  0.00  0.00    +0.018 A 
ATOM     10  C   UNL     1       2.656  -3.384  11.654  0.00  0.00    +0.016 A 
ATOM     11  C   UNL     1       2.606  -3.023  10.324  0.00  0.00    +0.013 A 
ATOM     12 BR   UNL     1       1.564  -4.127  14.175  0.00  0.00    -0.050 Br
ENDBRANCH   4   6
BRANCH   5  13
ATOM     13  N   UNL     1      -1.057  -1.865   8.089  0.00  0.00    -0.295 N 
ATOM     14  H   UNL     1      -1.608  -2.704   7.990  0.00  0.00    +0.163 HD
ATOM     15  H   UNL     1      -1.023  -1.567   9.052  0.00  0.00    +0.163 HD
ENDBRANCH   5  13
BRANCH   1  16
ATOM     16  S   UNL     1      -0.371  -1.217   4.976  0.00  0.00    -0.075 S 
BRANCH  16  17
ATOM     17  C   UNL     1       0.780  -1.133   3.576  0.00  0.00    +0.173 C 
BRANCH  17  19
ATOM     18  N   UNL     1       0.711  -0.489   1.189  0.00  0.00    -0.312 N 
ATOM     19  C   UNL     1       0.051  -0.633   2.355  0.00  0.00    +0.224 C 
ATOM     20  O   UNL     1      -1.129  -0.361   2.423  0.00  0.00    -0.275 OA
ATOM     21  H   UNL     1       1.654  -0.707   1.135  0.00  0.00    +0.149 HD
BRANCH  18  23
ATOM     22  C   UNL     1      -0.019   1.526   0.010  0.00  0.00    +0.027 C 
ATOM     23  C   UNL     1       0.002  -0.004   0.002  0.00  0.00    +0.067 C 
ATOM     24  C   UNL     1       0.718  -0.497  -1.257  0.00  0.00    +0.027 C 
ENDBRANCH  18  23
ENDBRANCH  17  19
ENDBRANCH  16  17
ENDBRANCH   1  16
TORSDOF 6
