REMARK  Name = ZINC40723107
REMARK  4 active torsions:
REMARK  status: ('A' for Active; 'I' for Inactive)
REMARK    1  A    between atoms: C_6  and  N_7
REMARK    2  A    between atoms: C_14  and  N_27
REMARK    3  A    between atoms: C_15  and  S_19
REMARK    4  A    between atoms: S_19  and  C_20
REMARK                            x       y       z     vdW  Elec       q    Type
REMARK                         _______ _______ _______ _____ _____    ______ ____
ROOT
ATOM      1  N   UNL     1      -1.201  -0.718   0.011  0.00  0.00    -0.327 N 
ATOM      2  C   UNL     1      -2.488  -0.019   0.130  0.00  0.00    +0.124 C 
ATOM      3  C   UNL     1      -3.376  -0.423  -1.054  0.00  0.00    +0.125 C 
ATOM      4  N   UNL     1      -3.373  -1.889  -1.165  0.00  0.00    -0.311 N 
ATOM      5  C   UNL     1      -2.085  -2.587  -1.283  0.00  0.00    +0.125 C 
ATOM      6  C   UNL     1      -1.198  -2.183  -0.105  0.00  0.00    +0.124 C 
ATOM      7  C   UNL     1      -4.566  -2.601  -1.157  0.00  0.00    +0.147 A 
ATOM      8  C   UNL     1      -5.183  -2.963  -2.356  0.00  0.00    +0.098 A 
ATOM      9  C   UNL     1      -6.380  -3.679  -2.291  0.00  0.00    +0.127 A 
ATOM     10  N   UNL     1      -6.884  -3.986  -1.097  0.00  0.00    -0.227 NA
ATOM     11  C   UNL     1      -6.269  -3.625   0.010  0.00  0.00    +0.224 A 
ATOM     12  N   UNL     1      -5.135  -2.953  -0.007  0.00  0.00    -0.219 NA
ENDROOT
BRANCH   1  18
ATOM     13  C   UNL     1       1.213  -0.677   0.007  0.00  0.00    +0.026 A 
ATOM     14  C   UNL     1       2.398   0.033  -0.001  0.00  0.00    +0.040 A 
ATOM     15  C   UNL     1       2.376   1.417  -0.013  0.00  0.00    +0.124 A 
ATOM     16  C   UNL     1       1.168   2.093  -0.016  0.00  0.00    +0.040 A 
ATOM     17  C   UNL     1      -0.019   1.387  -0.007  0.00  0.00    +0.026 A 
ATOM     18  C   UNL     1      -0.000  -0.001   0.004  0.00  0.00    +0.030 A 
ATOM     19  F   UNL     1       3.536   2.110  -0.021  0.00  0.00    -0.205 F 
ENDBRANCH   1  18
BRANCH   8  20
ATOM     20  N   UNL     1      -4.616  -2.617  -3.593  0.00  0.00    -0.353 N 
ATOM     21  H   UNL     1      -3.749  -2.184  -3.624  0.00  0.00    +0.142 HD
ATOM     22  H   UNL     1      -5.091  -2.811  -4.416  0.00  0.00    +0.142 HD
ENDBRANCH   8  20
BRANCH   9  23
ATOM     23  S   UNL     1      -7.212  -4.167  -3.766  0.00  0.00    -0.068 S 
BRANCH  23  24
ATOM     24  C   UNL     1      -8.558  -5.148  -3.191  0.00  0.00    +0.014 A 
ATOM     25  C   UNL     1      -9.809  -4.573  -3.005  0.00  0.00    +0.016 A 
ATOM     26  C   UNL     1     -10.862  -5.345  -2.555  0.00  0.00    +0.021 A 
ATOM     27  C   UNL     1     -10.672  -6.690  -2.289  0.00  0.00    +0.041 A 
ATOM     28  C   UNL     1      -9.427  -7.266  -2.474  0.00  0.00    +0.021 A 
ATOM     29  C   UNL     1      -8.371  -6.500  -2.929  0.00  0.00    +0.016 A 
ATOM     30 CL   UNL     1     -11.998  -7.657  -1.723  0.00  0.00    -0.084 Cl
ENDBRANCH  23  24
ENDBRANCH   9  23
TORSDOF 4
