REMARK  Name = ZINC59384631
REMARK  8 active torsions:
REMARK  status: ('A' for Active; 'I' for Inactive)
REMARK    1  A    between atoms: C_1  and  C_2
REMARK    2  A    between atoms: C_3  and  C_16
REMARK    3  A    between atoms: C_4  and  C_10
REMARK    4  A    between atoms: N_18  and  N_19
REMARK    5  A    between atoms: C_20  and  C_21
REMARK    6  A    between atoms: C_24  and  O_29
REMARK    7  A    between atoms: C_25  and  O_27
REMARK    8  A    between atoms: O_27  and  C_28
REMARK                            x       y       z     vdW  Elec       q    Type
REMARK                         _______ _______ _______ _____ _____    ______ ____
ROOT
ATOM      1  C   UNL     1       0.658   1.367   0.084  0.00  0.00    +0.061 C 
ATOM      2  C   UNL     1       0.360  -0.110   0.046  0.00  0.00    +0.017 C 
ATOM      3  C   UNL     1      -0.922  -0.526  -0.023  0.00  0.00    +0.057 C 
ATOM      4  C   UNL     1      -1.177  -2.019  -0.059  0.00  0.00    +0.139 C 
ATOM      5  N   UNL     1       0.003  -2.899  -0.015  0.00  0.00    -0.315 N 
ATOM      6  C   UNL     1       1.224  -2.332   0.054  0.00  0.00    +0.135 C 
ATOM      7  S   UNL     1       2.604  -3.343   0.106  0.00  0.00    -0.019 S 
ATOM      8  N   UNL     1       1.392  -1.004   0.078  0.00  0.00    -0.300 N 
ATOM      9  H   UNL     1      -0.096  -3.864  -0.034  0.00  0.00    +0.149 HD
ATOM     10  H   UNL     1       2.297  -0.658   0.124  0.00  0.00    +0.154 HD
ENDROOT
BRANCH   4  11
ATOM     11  C   UNL     1      -1.940  -2.330  -1.320  0.00  0.00    -0.023 A 
ATOM     12  C   UNL     1      -1.293  -2.313  -2.542  0.00  0.00    +0.006 A 
ATOM     13  C   UNL     1      -1.993  -2.598  -3.699  0.00  0.00    +0.000 A 
ATOM     14  C   UNL     1      -3.341  -2.901  -3.635  0.00  0.00    +0.000 A 
ATOM     15  C   UNL     1      -3.988  -2.919  -2.414  0.00  0.00    +0.000 A 
ATOM     16  C   UNL     1      -3.287  -2.638  -1.256  0.00  0.00    +0.006 A 
ENDBRANCH   4  11
BRANCH   3  17
ATOM     17  C   UNL     1      -1.992   0.400  -0.060  0.00  0.00    +0.263 C 
ATOM     18  O   UNL     1      -2.657   0.604   0.940  0.00  0.00    -0.269 OA
ATOM     19  N   UNL     1      -2.275   1.057  -1.203  0.00  0.00    -0.203 N 
ATOM     20  H   UNL     1      -1.795   0.842  -2.018  0.00  0.00    +0.178 HD
BRANCH  19  21
ATOM     21  N   UNL     1      -3.263   2.050  -1.214  0.00  0.00    -0.187 NA
ATOM     22  C   UNL     1      -3.535   2.683  -2.314  0.00  0.00    +0.138 C 
BRANCH  22  23
ATOM     23  C   UNL     1      -4.575   3.728  -2.325  0.00  0.00    -0.002 A 
ATOM     24  C   UNL     1      -5.263   4.044  -1.151  0.00  0.00    +0.013 A 
ATOM     25  C   UNL     1      -6.235   5.022  -1.164  0.00  0.00    +0.050 A 
ATOM     26  C   UNL     1      -6.532   5.695  -2.341  0.00  0.00    +0.158 A 
ATOM     27  C   UNL     1      -5.849   5.386  -3.515  0.00  0.00    +0.162 A 
ATOM     28  C   UNL     1      -4.870   4.410  -3.509  0.00  0.00    +0.058 A 
BRANCH  27  29
ATOM     29  O   UNL     1      -6.143   6.047  -4.666  0.00  0.00    -0.491 OA
ATOM     30  C   UNL     1      -5.404   5.679  -5.833  0.00  0.00    +0.277 C 
ENDBRANCH  27  29
BRANCH  26  31
ATOM     31  O   UNL     1      -7.491   6.658  -2.348  0.00  0.00    -0.503 OA
ATOM     32  H   UNL     1      -7.159   7.545  -2.155  0.00  0.00    +0.292 HD
ENDBRANCH  26  31
ENDBRANCH  22  23
ENDBRANCH  19  21
ENDBRANCH   3  17
TORSDOF 6
