REMARK  Name = ZINC16450564
REMARK  3 active torsions:
REMARK  status: ('A' for Active; 'I' for Inactive)
REMARK    1  A    between atoms: C_4  and  N_17
REMARK    2  A    between atoms: C_5  and  C_7
REMARK    3  A    between atoms: C_24  and  C_26
REMARK                            x       y       z     vdW  Elec       q    Type
REMARK                         _______ _______ _______ _____ _____    ______ ____
ROOT
ATOM      1  C   UNL     1      -0.012   1.079  -0.084  0.00  0.00    +0.001 A 
ATOM      2  C   UNL     1       1.179   1.781   0.000  0.00  0.00    +0.002 A 
ATOM      3  C   UNL     1       1.171   3.159   0.099  0.00  0.00    +0.028 A 
ATOM      4  C   UNL     1      -0.033   3.848   0.115  0.00  0.00    +0.080 A 
ATOM      5  C   UNL     1      -1.239   3.140   0.030  0.00  0.00    +0.033 A 
ATOM      6  C   UNL     1      -1.217   1.750  -0.074  0.00  0.00    +0.012 A 
ENDROOT
BRANCH   5   7
ATOM      7  C   UNL     1      -2.530   3.865   0.046  0.00  0.00    +0.157 A 
ATOM      8  C   UNL     1      -2.965   4.594   1.251  0.00  0.00    +0.278 A 
ATOM      9  O   UNL     1      -2.268   4.610   2.248  0.00  0.00    -0.265 OA
ATOM     10  N   UNL     1      -4.145   5.249   1.230  0.00  0.00    -0.300 N 
ATOM     11  H   UNL     1      -4.442   5.736   2.015  0.00  0.00    +0.171 HD
ATOM     12  C   UNL     1      -4.913   5.223   0.126  0.00  0.00    +0.174 A 
ATOM     13  S   UNL     1      -6.409   6.054   0.123  0.00  0.00    -0.012 S 
ATOM     14  N   UNL     1      -4.527   4.556  -0.976  0.00  0.00    -0.255 N 
ATOM     15  H   UNL     1      -5.100   4.553  -1.758  0.00  0.00    +0.191 HD
ATOM     16  N   UNL     1      -3.310   3.865  -1.010  0.00  0.00    -0.166 NA
ENDBRANCH   5   7
BRANCH   4  17
ATOM     17  N   UNL     1      -0.043   5.241   0.214  0.00  0.00    -0.180 N 
ATOM     18  C   UNL     1       0.596   5.818   1.244  0.00  0.00    +0.350 A 
ATOM     19  O   UNL     1       1.165   5.119   2.060  0.00  0.00    -0.245 OA
ATOM     20  N   UNL     1       0.625   7.158   1.387  0.00  0.00    -0.271 N 
ATOM     21  H   UNL     1       1.093   7.566   2.132  0.00  0.00    +0.174 HD
ATOM     22  C   UNL     1      -0.018   7.923   0.473  0.00  0.00    +0.290 A 
ATOM     23  O   UNL     1      -0.025   9.136   0.560  0.00  0.00    -0.265 OA
ATOM     24  C   UNL     1      -0.708   7.232  -0.634  0.00  0.00    +0.225 A 
ATOM     25  N   UNL     1      -0.668   5.918  -0.681  0.00  0.00    -0.146 NA
BRANCH  24  26
ATOM     26  C   UNL     1      -1.408   7.978  -1.637  0.00  0.00    +0.127 C 
ATOM     27  N   UNL     1      -1.963   8.569  -2.432  0.00  0.00    -0.189 NA
ENDBRANCH  24  26
ENDBRANCH   4  17
TORSDOF 3
