REMARK  Name = ZINC05853817
REMARK  7 active torsions:
REMARK  status: ('A' for Active; 'I' for Inactive)
REMARK    1  A    between atoms: C_1  and  C_2
REMARK    2  A    between atoms: C_3  and  C_20
REMARK    3  A    between atoms: C_4  and  C_10
REMARK    4  A    between atoms: C_12  and  O_18
REMARK    5  A    between atoms: C_13  and  O_17
REMARK    6  A    between atoms: O_18  and  C_19
REMARK    7  A    between atoms: C_20  and  C_22
REMARK                            x       y       z     vdW  Elec       q    Type
REMARK                         _______ _______ _______ _____ _____    ______ ____
ROOT
ATOM      1  C   UNL     1       5.984  -0.222   2.987  0.00  0.00    +0.061 C 
ATOM      2  C   UNL     1       5.447  -0.193   1.580  0.00  0.00    +0.015 C 
ATOM      3  C   UNL     1       4.224  -0.720   1.320  0.00  0.00    +0.036 C 
ATOM      4  C   UNL     1       3.725  -0.668  -0.110  0.00  0.00    +0.138 C 
ATOM      5  N   UNL     1       4.616  -0.046  -1.104  0.00  0.00    -0.315 N 
ATOM      6  C   UNL     1       5.804   0.433  -0.690  0.00  0.00    +0.135 C 
ATOM      7  S   UNL     1       6.848   1.159  -1.837  0.00  0.00    -0.019 S 
ATOM      8  N   UNL     1       6.197   0.362   0.588  0.00  0.00    -0.300 N 
ATOM      9  H   UNL     1       4.353   0.016  -2.035  0.00  0.00    +0.149 HD
ATOM     10  H   UNL     1       7.065   0.726   0.820  0.00  0.00    +0.154 HD
ENDROOT
BRANCH   4  11
ATOM     11  C   UNL     1       2.420   0.085  -0.119  0.00  0.00    -0.018 A 
ATOM     12  C   UNL     1       1.225  -0.607  -0.197  0.00  0.00    +0.055 A 
ATOM     13  C   UNL     1       0.024   0.083  -0.205  0.00  0.00    +0.163 A 
ATOM     14  C   UNL     1       0.022   1.473  -0.135  0.00  0.00    +0.177 A 
ATOM     15  C   UNL     1       1.224   2.161  -0.058  0.00  0.00    +0.086 A 
ATOM     16  C   UNL     1       2.420   1.465  -0.050  0.00  0.00    +0.029 A 
ATOM     17 CL   UNL     1       1.227   3.895   0.029  0.00  0.00    -0.080 Cl
BRANCH  14  18
ATOM     18  O   UNL     1      -1.154   2.155  -0.149  0.00  0.00    -0.502 OA
ATOM     19  H   UNL     1      -1.530   2.308   0.729  0.00  0.00    +0.292 HD
ENDBRANCH  14  18
BRANCH  13  20
ATOM     20  O   UNL     1      -1.152  -0.596  -0.282  0.00  0.00    -0.491 OA
ATOM     21  C   UNL     1      -1.075  -2.021  -0.351  0.00  0.00    +0.277 C 
ENDBRANCH  13  20
ENDBRANCH   4  11
BRANCH   3  22
ATOM     22  C   UNL     1       3.448  -1.292   2.341  0.00  0.00    +0.160 C 
ATOM     23  O   UNL     1       3.014  -0.596   3.237  0.00  0.00    -0.293 OA
ATOM     24  C   UNL     1       3.154  -2.770   2.326  0.00  0.00    +0.091 C 
ENDBRANCH   3  22
TORSDOF 4
