REMARK  Name = ZINC40725634
REMARK  4 active torsions:
REMARK  status: ('A' for Active; 'I' for Inactive)
REMARK    1  A    between atoms: C_4  and  C_22
REMARK    2  A    between atoms: C_6  and  N_7
REMARK    3  A    between atoms: C_9  and  N_21
REMARK    4  A    between atoms: C_10  and  N_14
REMARK                            x       y       z     vdW  Elec       q    Type
REMARK                         _______ _______ _______ _____ _____    ______ ____
ROOT
ATOM      1  N   UNL     1      -1.199  -0.721   0.007  0.00  0.00    -0.298 N 
ATOM      2  C   UNL     1      -2.409  -0.048   0.129  0.00  0.00    +0.149 A 
ATOM      3  C   UNL     1      -3.606  -0.757   0.249  0.00  0.00    +0.106 A 
ATOM      4  C   UNL     1      -4.793  -0.032   0.370  0.00  0.00    +0.147 A 
ATOM      5  N   UNL     1      -4.739   1.298   0.365  0.00  0.00    -0.219 NA
ATOM      6  C   UNL     1      -3.588   1.929   0.249  0.00  0.00    +0.225 A 
ATOM      7  N   UNL     1      -2.445   1.282   0.139  0.00  0.00    -0.219 NA
ATOM      8  H   UNL     1      -1.188  -1.687  -0.087  0.00  0.00    +0.154 HD
ENDROOT
BRANCH   1  14
ATOM      9  C   UNL     1       0.077   1.218   0.671  0.00  0.00    +0.025 A 
ATOM     10  C   UNL     1       1.266   1.921   0.683  0.00  0.00    +0.022 A 
ATOM     11  C   UNL     1       2.381   1.408   0.046  0.00  0.00    +0.053 A 
ATOM     12  C   UNL     1       2.310   0.188  -0.605  0.00  0.00    +0.075 A 
ATOM     13  C   UNL     1       1.125  -0.520  -0.619  0.00  0.00    +0.037 A 
ATOM     14  C   UNL     1       0.003  -0.007   0.020  0.00  0.00    +0.033 A 
ATOM     15 CL   UNL     1       3.873   2.295   0.062  0.00  0.00    -0.083 Cl
BRANCH  12  16
ATOM     16  C   UNL     1       3.527  -0.368  -1.298  0.00  0.00    +0.419 C 
ATOM     17  F   UNL     1       3.211  -1.601  -1.878  0.00  0.00    -0.166 F 
ATOM     18  F   UNL     1       3.944   0.523  -2.293  0.00  0.00    -0.166 F 
ATOM     19  F   UNL     1       4.556  -0.541  -0.367  0.00  0.00    -0.166 F 
ENDBRANCH  12  16
ENDBRANCH   1  14
BRANCH   4  20
ATOM     20  N   UNL     1      -6.011  -0.689   0.492  0.00  0.00    -0.314 N 
ATOM     21  C   UNL     1      -6.795  -0.923  -0.701  0.00  0.00    +0.106 C 
ATOM     22  C   UNL     1      -7.734   0.282  -0.950  0.00  0.00    +0.019 C 
ATOM     23  C   UNL     1      -8.812   0.306   0.051  0.00  0.00    +0.002 C 
ATOM     24  C   UNL     1      -8.331   0.493   1.487  0.00  0.00    +0.002 C 
ATOM     25  C   UNL     1      -7.950  -0.847   2.065  0.00  0.00    +0.019 C 
ATOM     26  C   UNL     1      -6.450  -1.123   1.833  0.00  0.00    +0.106 C 
ENDBRANCH   4  20
BRANCH   3  27
ATOM     27  N   UNL     1      -3.615  -2.161   0.249  0.00  0.00    -0.353 N 
ATOM     28  H   UNL     1      -2.779  -2.652   0.238  0.00  0.00    +0.143 HD
ATOM     29  H   UNL     1      -4.458  -2.641   0.260  0.00  0.00    +0.143 HD
ENDBRANCH   3  27
TORSDOF 4
