REMARK  Name = ZINC12664747
REMARK  11 active torsions:
REMARK  status: ('A' for Active; 'I' for Inactive)
REMARK    1  A    between atoms: C_1  and  C_2
REMARK    2  A    between atoms: C_2  and  O_3
REMARK    3  A    between atoms: O_3  and  C_4
REMARK    4  A    between atoms: N_12  and  C_13
REMARK    5  A    between atoms: C_13  and  C_15
REMARK    6  A    between atoms: N_20  and  S_22
REMARK    7  A    between atoms: S_22  and  C_25
REMARK    8  A    between atoms: N_31  and  C_32
REMARK    9  A    between atoms: C_32  and  C_33
REMARK   10  A    between atoms: C_33  and  O_35
REMARK   11  A    between atoms: O_35  and  C_36
REMARK                            x       y       z     vdW  Elec       q    Type
REMARK                         _______ _______ _______ _____ _____    ______ ____
ROOT
ATOM      1  C   UNL     1       2.953  -1.634  -8.369  0.00  0.00    +0.122 A 
ATOM      2  C   UNL     1       3.321  -2.188  -7.149  0.00  0.00    +0.048 A 
ATOM      3  C   UNL     1       2.935  -1.613  -5.962  0.00  0.00    +0.030 A 
ATOM      4  C   UNL     1       2.155  -0.446  -5.948  0.00  0.00    +0.058 A 
ATOM      5  C   UNL     1       1.797   0.092  -7.193  0.00  0.00    +0.042 A 
ATOM      6  C   UNL     1       2.182  -0.480  -8.382  0.00  0.00    +0.062 A 
ATOM      7  S   UNL     1       0.841   1.523  -6.759  0.00  0.00    -0.052 S 
ATOM      8  C   UNL     1       0.935   1.377  -5.033  0.00  0.00    +0.167 A 
ATOM      9  N   UNL     1       0.403   2.173  -4.107  0.00  0.00    -0.156 NA
ATOM     10  N   UNL     1       1.688   0.261  -4.853  0.00  0.00    -0.310 N 
ENDROOT
BRANCH   9  11
ATOM     11  C   UNL     1       0.718   2.006  -2.828  0.00  0.00    +0.243 C 
ATOM     12  O   UNL     1       1.861   2.188  -2.454  0.00  0.00    -0.273 OA
BRANCH  11  13
ATOM     13  C   UNL     1      -0.341   1.590  -1.839  0.00  0.00    +0.093 C 
ATOM     14  C   UNL     1      -1.347   2.729  -1.658  0.00  0.00    +0.015 C 
ATOM     15  C   UNL     1      -2.441   2.295  -0.680  0.00  0.00    +0.018 C 
ATOM     16  C   UNL     1      -1.810   1.987   0.681  0.00  0.00    +0.109 C 
ATOM     17  N   UNL     1      -0.739   0.998   0.496  0.00  0.00    -0.176 NA
ATOM     18  C   UNL     1       0.314   1.273  -0.491  0.00  0.00    +0.122 C 
BRANCH  17  19
ATOM     19  S   UNL     1      -0.721  -0.403   1.380  0.00  0.00    +0.061 S 
ATOM     20  O   UNL     1      -2.061  -0.643   1.786  0.00  0.00    -0.153 OA
ATOM     21  O   UNL     1       0.028  -1.348   0.628  0.00  0.00    -0.153 OA
BRANCH  19  22
ATOM     22  C   UNL     1       0.200  -0.082   2.847  0.00  0.00    +0.105 A 
ATOM     23  C   UNL     1       1.565  -0.300   2.868  0.00  0.00    +0.028 A 
ATOM     24  C   UNL     1       2.289  -0.044   4.017  0.00  0.00    +0.002 A 
ATOM     25  C   UNL     1       1.646   0.421   5.149  0.00  0.00    +0.000 A 
ATOM     26  C   UNL     1       0.280   0.635   5.130  0.00  0.00    +0.002 A 
ATOM     27  C   UNL     1      -0.443   0.383   3.979  0.00  0.00    +0.028 A 
ENDBRANCH  19  22
ENDBRANCH  17  19
ENDBRANCH  11  13
ENDBRANCH   9  11
BRANCH   1  28
ATOM     28  O   UNL     1       3.344  -2.215  -9.534  0.00  0.00    -0.492 OA
BRANCH  28  30
ATOM     29  C   UNL     1       4.476  -3.905 -10.839  0.00  0.00    +0.048 C 
ATOM     30  C   UNL     1       4.136  -3.400  -9.435  0.00  0.00    +0.225 C 
ENDBRANCH  28  30
ENDBRANCH   1  28
BRANCH  10  31
ATOM     31  C   UNL     1       2.002  -0.199  -3.498  0.00  0.00    +0.244 C 
BRANCH  31  32
ATOM     32  C   UNL     1       1.869  -1.698  -3.432  0.00  0.00    +0.327 C 
ATOM     33  O   UNL     1       1.447  -2.310  -4.386  0.00  0.00    -0.249 OA
BRANCH  32  34
ATOM     34  O   UNL     1       2.218  -2.355  -2.315  0.00  0.00    -0.467 OA
ATOM     35  C   UNL     1       2.187  -3.806  -2.366  0.00  0.00    +0.280 C 
ENDBRANCH  32  34
ENDBRANCH  31  32
ENDBRANCH  10  31
TORSDOF 9
