REMARK  Name = ZINC20920663
REMARK  11 active torsions:
REMARK  status: ('A' for Active; 'I' for Inactive)
REMARK    1  A    between atoms: C_1  and  C_2
REMARK    2  A    between atoms: C_2  and  C_3
REMARK    3  A    between atoms: C_2  and  N_4
REMARK    4  A    between atoms: C_6  and  C_9
REMARK    5  A    between atoms: N_10  and  N_11
REMARK    6  A    between atoms: C_15  and  S_18
REMARK    7  A    between atoms: N_16  and  N_17
REMARK    8  A    between atoms: S_18  and  C_19
REMARK    9  A    between atoms: C_19  and  C_20
REMARK   10  A    between atoms: N_22  and  C_23
REMARK   11  A    between atoms: C_23  and  C_24
REMARK                            x       y       z     vdW  Elec       q    Type
REMARK                         _______ _______ _______ _____ _____    ______ ____
ROOT
ATOM      1  N   UNL     1      -1.823   3.683   6.756  0.00  0.00    -0.204 N 
ATOM      2  C   UNL     1      -2.910   4.132   7.493  0.00  0.00    +0.254 A 
ATOM      3  N   UNL     1      -4.127   4.313   7.039  0.00  0.00    -0.109 NA
ATOM      4  N   UNL     1      -4.920   4.769   8.100  0.00  0.00    -0.119 NA
ATOM      5  C   UNL     1      -4.161   4.859   9.165  0.00  0.00    +0.210 A 
ATOM      6  N   UNL     1      -2.898   4.468   8.818  0.00  0.00    -0.211 N 
ATOM      7  H   UNL     1      -0.841   3.571   7.238  0.00  0.00    +0.177 HD
ENDROOT
BRANCH   6   8
ATOM      8  N   UNL     1      -1.816   4.421   9.649  0.00  0.00    -0.294 N 
ATOM      9  H   UNL     1      -1.919   4.715  10.704  0.00  0.00    +0.163 HD
ATOM     10  H   UNL     1      -0.841   4.088   9.264  0.00  0.00    +0.163 HD
ENDBRANCH   6   8
BRANCH   1  12
ATOM     11  C   UNL     1      -0.961   2.953   4.710  0.00  0.00    +0.141 C 
ATOM     12  N   UNL     1      -1.978   3.373   5.399  0.00  0.00    -0.187 NA
BRANCH  11  15
ATOM     13  N   UNL     1      -0.704   1.998   1.216  0.00  0.00    -0.268 N 
ATOM     14  C   UNL     1      -0.140   2.172   2.428  0.00  0.00    +0.118 A 
ATOM     15  C   UNL     1      -1.124   2.626   3.279  0.00  0.00    +0.032 A 
ATOM     16  C   UNL     1      -2.316   2.720   2.529  0.00  0.00    +0.143 A 
ATOM     17  N   UNL     1      -2.056   2.352   1.304  0.00  0.00    -0.179 NA
BRANCH  13  19
ATOM     18  C   UNL     1       0.002  -0.004   0.002  0.00  0.00    +0.032 C 
ATOM     19  C   UNL     1      -0.019   1.526   0.010  0.00  0.00    +0.101 C 
ATOM     20  C   UNL     1       1.417   2.055  -0.000  0.00  0.00    +0.032 C 
ENDBRANCH  13  19
ENDBRANCH  11  15
ENDBRANCH   1  12
BRANCH   5  21
ATOM     21  S   UNL     1      -4.677   5.392  10.763  0.00  0.00    -0.075 S 
BRANCH  21  22
ATOM     22  C   UNL     1      -6.441   5.761  10.554  0.00  0.00    +0.173 C 
BRANCH  22  23
ATOM     23  C   UNL     1      -7.014   6.234  11.865  0.00  0.00    +0.224 C 
ATOM     24  O   UNL     1      -6.303   6.315  12.844  0.00  0.00    -0.275 OA
ATOM     25  N   UNL     1      -8.317   6.568  11.950  0.00  0.00    -0.311 N 
ATOM     26  H   UNL     1      -8.962   6.495  11.062  0.00  0.00    +0.149 HD
BRANCH  25  27
ATOM     27  C   UNL     1      -8.874   7.028  13.224  0.00  0.00    +0.139 C 
BRANCH  27  28
ATOM     28  C   UNL     1     -10.339   7.335  13.050  0.00  0.00    -0.029 A 
ATOM     29  C   UNL     1     -10.741   8.607  12.687  0.00  0.00    +0.007 A 
ATOM     30  C   UNL     1     -12.084   8.888  12.522  0.00  0.00    +0.022 A 
ATOM     31  C   UNL     1     -13.028   7.899  12.731  0.00  0.00    +0.059 A 
ATOM     32  C   UNL     1     -12.627   6.626  13.101  0.00  0.00    +0.060 A 
ATOM     33  C   UNL     1     -11.281   6.345  13.260  0.00  0.00    +0.026 A 
ATOM     34 CL   UNL     1     -13.810   5.384  13.364  0.00  0.00    -0.082 Cl
ATOM     35 CL   UNL     1     -14.716   8.252  12.530  0.00  0.00    -0.082 Cl
ENDBRANCH  27  28
ENDBRANCH  25  27
ENDBRANCH  22  23
ENDBRANCH  21  22
ENDBRANCH   5  21
TORSDOF 9
