REMARK  Name = ZINC33827291
REMARK  7 active torsions:
REMARK  status: ('A' for Active; 'I' for Inactive)
REMARK    1  A    between atoms: C_3  and  S_8
REMARK    2  A    between atoms: C_6  and  N_7
REMARK    3  A    between atoms: S_8  and  C_9
REMARK    4  A    between atoms: C_11  and  O_25
REMARK    5  A    between atoms: C_13  and  O_24
REMARK    6  A    between atoms: C_15  and  O_23
REMARK    7  A    between atoms: C_17  and  C_20
REMARK                            x       y       z     vdW  Elec       q    Type
REMARK                         _______ _______ _______ _____ _____    ______ ____
ROOT
ATOM      1  C   UNL     1       0.680  -2.043   1.271  0.00  0.00    +0.212 C 
ATOM      2  C   UNL     1       0.733  -0.513   1.248  0.00  0.00    +0.185 C 
ATOM      3  C   UNL     1       0.002  -0.004   0.002  0.00  0.00    +0.178 C 
ATOM      4  C   UNL     1      -1.434  -0.536   0.013  0.00  0.00    +0.185 C 
ATOM      5  C   UNL     1      -1.403  -2.065   0.084  0.00  0.00    +0.263 C 
ATOM      6  O   UNL     1      -0.683  -2.472   1.249  0.00  0.00    -0.346 OA
ENDROOT
BRANCH   5   7
ATOM      7  C   UNL     1      -2.813  -2.594   0.154  0.00  0.00    +0.387 C 
ATOM      8  O   UNL     1      -3.192  -3.174   1.144  0.00  0.00    -0.243 OA
ATOM      9  O   UNL     1      -3.648  -2.419  -0.882  0.00  0.00    -0.243 OA
ENDBRANCH   5   7
BRANCH   4  10
ATOM     10  O   UNL     1      -2.127  -0.018   1.150  0.00  0.00    -0.386 OA
ATOM     11  H   UNL     1      -3.178  -0.292   1.326  0.00  0.00    +0.210 HD
ENDBRANCH   4  10
BRANCH   3  12
ATOM     12  O   UNL     1      -0.017   1.425   0.010  0.00  0.00    -0.386 OA
ATOM     13  H   UNL     1      -0.502   1.973  -0.811  0.00  0.00    +0.210 HD
ENDBRANCH   3  12
BRANCH   2  14
ATOM     14  O   UNL     1       2.095  -0.083   1.212  0.00  0.00    -0.386 OA
ATOM     15  H   UNL     1       2.332   0.991   1.191  0.00  0.00    +0.210 HD
ENDBRANCH   2  14
BRANCH   1  16
ATOM     16  S   UNL     1       1.545  -2.701  -0.181  0.00  0.00    -0.091 S 
BRANCH  16  19
ATOM     17  C   UNL     1       2.095  -6.653  -0.682  0.00  0.00    +0.024 A 
ATOM     18  C   UNL     1       2.111  -5.286  -0.874  0.00  0.00    +0.016 A 
ATOM     19  C   UNL     1       1.525  -4.445   0.064  0.00  0.00    +0.011 A 
ATOM     20  C   UNL     1       0.927  -4.981   1.198  0.00  0.00    +0.016 A 
ATOM     21  C   UNL     1       0.907  -6.348   1.387  0.00  0.00    +0.024 A 
ATOM     22  C   UNL     1       1.493  -7.188   0.449  0.00  0.00    +0.025 A 
BRANCH  22  23
ATOM     23  N   UNL     1       1.477  -8.574   0.644  0.00  0.00    -0.358 N 
ATOM     24  H   UNL     1       1.000  -8.998   1.540  0.00  0.00    +0.142 HD
ATOM     25  H   UNL     1       1.941  -9.239  -0.099  0.00  0.00    +0.142 HD
ENDBRANCH  22  23
ENDBRANCH  16  19
ENDBRANCH   1  16
TORSDOF 7
