REMARK  Name = ZINC23357688
REMARK  16 active torsions:
REMARK  status: ('A' for Active; 'I' for Inactive)
REMARK    1  A    between atoms: C_1  and  C_2
REMARK    2  A    between atoms: C_5  and  C_9
REMARK    3  A    between atoms: C_7  and  C_8
REMARK    4  A    between atoms: C_9  and  C_11
REMARK    5  A    between atoms: C_9  and  N_12
REMARK    6  A    between atoms: C_13  and  C_15
REMARK    7  A    between atoms: C_15  and  N_16
REMARK    8  A    between atoms: N_16  and  C_17
REMARK    9  A    between atoms: N_16  and  C_22
REMARK   10  A    between atoms: C_17  and  C_18
REMARK   11  A    between atoms: C_18  and  C_19
REMARK   12  A    between atoms: C_19  and  C_20
REMARK   13  A    between atoms: C_19  and  C_21
REMARK   14  A    between atoms: C_23  and  N_38
REMARK   15  A    between atoms: N_24  and  C_31
REMARK   16  A    between atoms: C_31  and  C_32
REMARK                            x       y       z     vdW  Elec       q    Type
REMARK                         _______ _______ _______ _____ _____    ______ ____
ROOT
ATOM      1  N   UNL     1       2.298   3.783  -0.008  0.00  0.00    -0.314 N 
ENDROOT
BRANCH   1   2
ATOM      2  C   UNL     1       0.997   3.243  -0.129  0.00  0.00    +0.134 A 
ATOM      3  C   UNL     1      -0.101   4.058  -0.064  0.00  0.00    +0.127 A 
ATOM      4  N   UNL     1      -1.357   3.507  -0.186  0.00  0.00    -0.276 N 
ATOM      5  C   UNL     1      -1.505   2.183  -0.373  0.00  0.00    +0.331 A 
ATOM      6  O   UNL     1      -2.622   1.715  -0.484  0.00  0.00    -0.246 OA
ATOM      7  N   UNL     1      -0.437   1.368  -0.434  0.00  0.00    -0.273 N 
ATOM      8  H   UNL     1      -0.578   0.286  -0.578  0.00  0.00    +0.173 HD
ATOM      9  C   UNL     1       0.812   1.862  -0.320  0.00  0.00    +0.277 A 
ATOM     10  O   UNL     1       1.775   1.117  -0.381  0.00  0.00    -0.266 OA
BRANCH   3  11
ATOM     11  N   UNL     1       0.049   5.413   0.122  0.00  0.00    -0.343 N 
ATOM     12  H   UNL     1      -0.838   6.062   0.173  0.00  0.00    +0.144 HD
ATOM     13  H   UNL     1       1.055   5.847   0.219  0.00  0.00    +0.144 HD
ENDBRANCH   3  11
BRANCH   4  14
ATOM     14  C   UNL     1      -2.540   4.370  -0.118  0.00  0.00    +0.163 C 
BRANCH  14  15
ATOM     15  C   UNL     1      -2.890   4.852  -1.502  0.00  0.00    -0.028 A 
ATOM     16  C   UNL     1      -2.350   6.031  -1.980  0.00  0.00    +0.005 A 
ATOM     17  C   UNL     1      -2.668   6.471  -3.252  0.00  0.00    +0.000 A 
ATOM     18  C   UNL     1      -3.534   5.737  -4.040  0.00  0.00    +0.000 A 
ATOM     19  C   UNL     1      -4.078   4.561  -3.560  0.00  0.00    +0.000 A 
ATOM     20  C   UNL     1      -3.756   4.118  -2.290  0.00  0.00    +0.005 A 
ENDBRANCH  14  15
ENDBRANCH   4  14
ENDBRANCH   1   2
BRANCH   1  21
ATOM     21  C   UNL     1       3.064   3.595  -1.247  0.00  0.00    +0.201 C 
BRANCH  21  23
ATOM     22  N   UNL     1       5.180   4.424  -2.224  0.00  0.00    -0.307 N 
ATOM     23  C   UNL     1       4.262   4.509  -1.241  0.00  0.00    +0.231 C 
ATOM     24  O   UNL     1       4.401   5.321  -0.351  0.00  0.00    -0.274 OA
ATOM     25  H   UNL     1       5.055   3.687  -3.031  0.00  0.00    +0.149 HD
BRANCH  22  26
ATOM     26  C   UNL     1       6.345   5.312  -2.218  0.00  0.00    +0.100 C 
ATOM     27  C   UNL     1       5.975   6.642  -2.879  0.00  0.00    +0.033 C 
BRANCH  26  32
ATOM     28  C   UNL     1      10.668   2.842  -5.151  0.00  0.00    +0.044 C 
ATOM     29  C   UNL     1       9.541   3.486  -4.386  0.00  0.00    -0.048 A 
ATOM     30  C   UNL     1       8.243   3.385  -4.851  0.00  0.00    +0.004 A 
ATOM     31  C   UNL     1       7.209   3.975  -4.150  0.00  0.00    +0.006 A 
ATOM     32  C   UNL     1       7.472   4.668  -2.983  0.00  0.00    -0.027 A 
ATOM     33  C   UNL     1       8.770   4.774  -2.520  0.00  0.00    +0.009 A 
ATOM     34  C   UNL     1       9.804   4.178  -3.219  0.00  0.00    -0.047 A 
ATOM     35  C   UNL     1      11.219   4.289  -2.711  0.00  0.00    +0.044 C 
ENDBRANCH  26  32
ENDBRANCH  22  26
ENDBRANCH  21  23
ENDBRANCH   1  21
BRANCH   1  36
ATOM     36  C   UNL     1       3.005   3.200   1.141  0.00  0.00    +0.106 C 
BRANCH  36  37
ATOM     37  C   UNL     1       2.465   3.812   2.435  0.00  0.00    +0.022 C 
BRANCH  37  38
ATOM     38  C   UNL     1       3.269   3.283   3.624  0.00  0.00    -0.016 C 
ATOM     39  C   UNL     1       4.716   3.769   3.519  0.00  0.00    +0.007 C 
ATOM     40  C   UNL     1       2.652   3.796   4.927  0.00  0.00    +0.007 C 
ENDBRANCH  37  38
ENDBRANCH  36  37
ENDBRANCH   1  36
TORSDOF 11
