REMARK  Name = ZINC36962480
REMARK  4 active torsions:
REMARK  status: ('A' for Active; 'I' for Inactive)
REMARK    1  A    between atoms: C_1  and  O_2
REMARK    2  A    between atoms: O_2  and  C_3
REMARK    3  A    between atoms: C_6  and  N_21
REMARK    4  A    between atoms: C_8  and  N_9
REMARK                            x       y       z     vdW  Elec       q    Type
REMARK                         _______ _______ _______ _____ _____    ______ ____
ROOT
ATOM      1  N   UNL     1       0.095  -2.777   0.081  0.00  0.00    -0.199 N 
ATOM      2  C   UNL     1       0.733  -3.182  -1.032  0.00  0.00    +0.258 C 
ATOM      3  O   UNL     1       1.891  -2.945  -1.311  0.00  0.00    -0.269 OA
ATOM      4  C   UNL     1      -0.210  -3.964  -1.858  0.00  0.00    +0.050 A 
ATOM      5  C   UNL     1      -0.118  -4.614  -3.078  0.00  0.00    +0.015 A 
ATOM      6  C   UNL     1      -1.224  -5.275  -3.590  0.00  0.00    +0.016 A 
ATOM      7  C   UNL     1      -2.417  -5.289  -2.891  0.00  0.00    +0.019 A 
ATOM      8  C   UNL     1      -2.524  -4.642  -1.668  0.00  0.00    +0.029 A 
ATOM      9  C   UNL     1      -1.426  -3.979  -1.145  0.00  0.00    +0.051 A 
ATOM     10  C   UNL     1      -1.179  -3.210   0.093  0.00  0.00    +0.258 C 
ATOM     11  O   UNL     1      -1.990  -3.001   0.972  0.00  0.00    -0.269 OA
ATOM     12 BR   UNL     1      -3.914  -6.197  -3.607  0.00  0.00    -0.050 Br
ENDROOT
BRANCH   1  18
ATOM     13  C   UNL     1       0.627  -0.619   1.043  0.00  0.00    +0.142 A 
ATOM     14  C   UNL     1       1.202   0.138   2.050  0.00  0.00    +0.049 A 
ATOM     15  C   UNL     1       1.837  -0.485   3.108  0.00  0.00    +0.026 A 
ATOM     16  C   UNL     1       1.900  -1.872   3.163  0.00  0.00    +0.027 A 
ATOM     17  C   UNL     1       1.325  -2.634   2.156  0.00  0.00    +0.050 A 
ATOM     18  C   UNL     1       0.682  -2.009   1.098  0.00  0.00    +0.088 A 
BRANCH  16  19
ATOM     19  N   UNL     1       2.544  -2.500   4.235  0.00  0.00    -0.358 N 
ATOM     20  H   UNL     1       2.946  -1.968   4.939  0.00  0.00    +0.142 HD
ATOM     21  H   UNL     1       2.588  -3.469   4.274  0.00  0.00    +0.142 HD
ENDBRANCH  16  19
BRANCH  13  23
ATOM     22  C   UNL     1      -0.017   1.425   0.010  0.00  0.00    +0.277 C 
ATOM     23  O   UNL     1       0.002  -0.004   0.002  0.00  0.00    -0.493 OA
ENDBRANCH  13  23
ENDBRANCH   1  18
TORSDOF 3
