REMARK  Name = ZINC67000765
REMARK  6 active torsions:
REMARK  status: ('A' for Active; 'I' for Inactive)
REMARK    1  A    between atoms: C_1  and  N_2
REMARK    2  A    between atoms: C_10  and  N_12
REMARK    3  A    between atoms: C_13  and  C_15
REMARK    4  A    between atoms: N_17  and  C_18
REMARK    5  A    between atoms: C_18  and  C_19
REMARK    6  A    between atoms: C_19  and  O_29
REMARK                            x       y       z     vdW  Elec       q    Type
REMARK                         _______ _______ _______ _____ _____    ______ ____
ROOT
ATOM      1  C   UNL     1       7.433  -2.447   0.209  0.00  0.00    +0.299 C 
ATOM      2  O   UNL     1       7.481  -3.657   0.278  0.00  0.00    -0.265 OA
ATOM      3  N   UNL     1       8.560  -1.738   0.005  0.00  0.00    -0.305 N 
ATOM      4  H   UNL     1       8.521  -0.770  -0.050  0.00  0.00    +0.149 HD
ENDROOT
BRANCH   1   6
ATOM      5  N   UNL     1       4.996  -2.452   0.555  0.00  0.00    -0.278 N 
ATOM      6  C   UNL     1       6.123  -1.743   0.351  0.00  0.00    +0.303 C 
ATOM      7  O   UNL     1       6.075  -0.532   0.282  0.00  0.00    -0.265 OA
ATOM      8  H   UNL     1       5.043  -3.412   0.685  0.00  0.00    +0.155 HD
BRANCH   5  18
ATOM      9  C   UNL     1      -1.085  -0.528   1.321  0.00  0.00    +0.129 C 
ATOM     10  N   UNL     1       0.055   0.115   0.664  0.00  0.00    -0.333 N 
ATOM     11  C   UNL     1      -0.091   1.437   0.039  0.00  0.00    +0.105 C 
ATOM     12  C   UNL     1       0.604   1.389  -1.327  0.00  0.00    +0.024 C 
ATOM     13  C   UNL     1       2.096   1.135  -1.113  0.00  0.00    +0.038 C 
ATOM     14  C   UNL     1       2.305  -0.061  -0.221  0.00  0.00    -0.025 A 
ATOM     15  C   UNL     1       1.305  -0.517   0.626  0.00  0.00    +0.033 A 
ATOM     16  C   UNL     1       1.530  -1.617   1.447  0.00  0.00    +0.025 A 
ATOM     17  C   UNL     1       2.751  -2.259   1.425  0.00  0.00    +0.025 A 
ATOM     18  C   UNL     1       3.756  -1.804   0.581  0.00  0.00    +0.034 A 
ATOM     19  C   UNL     1       3.527  -0.709  -0.247  0.00  0.00    +0.028 A 
ENDBRANCH   5  18
ENDBRANCH   1   6
BRANCH   3  20
ATOM     20  C   UNL     1       9.845  -2.428  -0.135  0.00  0.00    +0.144 C 
BRANCH  20  21
ATOM     21  C   UNL     1      10.935  -1.412  -0.479  0.00  0.00    +0.107 C 
ATOM     22  C   UNL     1      11.018  -0.366   0.631  0.00  0.00    +0.041 C 
ATOM     23  C   UNL     1      12.251   0.510   0.380  0.00  0.00    +0.008 C 
ATOM     24  C   UNL     1      13.499  -0.331   0.640  0.00  0.00    +0.035 C 
ATOM     25  C   UNL     1      13.430  -1.630  -0.120  0.00  0.00    -0.041 A 
ATOM     26  C   UNL     1      12.252  -2.128  -0.630  0.00  0.00    -0.011 A 
ATOM     27  C   UNL     1      12.256  -3.336  -1.315  0.00  0.00    +0.007 A 
ATOM     28  C   UNL     1      13.430  -4.038  -1.492  0.00  0.00    +0.000 A 
ATOM     29  C   UNL     1      14.613  -3.536  -0.983  0.00  0.00    +0.000 A 
ATOM     30  C   UNL     1      14.611  -2.337  -0.300  0.00  0.00    +0.004 A 
BRANCH  21  31
ATOM     31  O   UNL     1      10.606  -0.766  -1.710  0.00  0.00    -0.382 OA
ATOM     32  H   UNL     1      10.528  -1.369  -2.462  0.00  0.00    +0.211 HD
ENDBRANCH  21  31
ENDBRANCH  20  21
ENDBRANCH   3  20
TORSDOF 5
