REMARK  Name = ZINC12348177
REMARK  5 active torsions:
REMARK  status: ('A' for Active; 'I' for Inactive)
REMARK    1  A    between atoms: C_1  and  C_2
REMARK    2  A    between atoms: C_2  and  C_3
REMARK    3  A    between atoms: C_2  and  C_4
REMARK    4  A    between atoms: C_7  and  C_10
REMARK    5  A    between atoms: N_16  and  C_19
REMARK                            x       y       z     vdW  Elec       q    Type
REMARK                         _______ _______ _______ _____ _____    ______ ____
ROOT
ATOM      1  C   UNL     1       2.797  -1.919   4.683  0.00  0.00    +0.092 C 
ATOM      2  C   UNL     1       2.091  -1.439   5.920  0.00  0.00    +0.070 A 
ATOM      3  C   UNL     1       1.342  -2.273   6.711  0.00  0.00    +0.125 A 
ATOM      4  N   UNL     1       0.835  -1.542   7.740  0.00  0.00    -0.277 N 
ATOM      5  H   UNL     1       0.267  -1.875   8.452  0.00  0.00    +0.189 HD
ATOM      6  N   UNL     1       1.283  -0.219   7.590  0.00  0.00    -0.218 N 
ATOM      7  C   UNL     1       2.049  -0.161   6.479  0.00  0.00    +0.278 A 
ATOM      8  O   UNL     1       2.605   0.832   6.042  0.00  0.00    -0.265 OA
ATOM      9  N   UNL     1       1.202  -3.608   6.414  0.00  0.00    -0.303 N 
ATOM     10  C   UNL     1       2.053  -4.173   5.492  0.00  0.00    +0.017 C 
ATOM     11  C   UNL     1       2.823  -3.432   4.671  0.00  0.00    +0.024 C 
ATOM     12  C   UNL     1       3.698  -4.045   3.753  0.00  0.00    +0.162 C 
ATOM     13  O   UNL     1       4.369  -3.348   3.017  0.00  0.00    -0.292 OA
ATOM     14  C   UNL     1       3.821  -5.540   3.661  0.00  0.00    +0.080 C 
ATOM     15  C   UNL     1       3.487  -6.150   5.027  0.00  0.00    +0.014 C 
ATOM     16  C   UNL     1       2.088  -5.683   5.431  0.00  0.00    +0.051 C 
ATOM     17  H   UNL     1       0.516  -4.141   6.846  0.00  0.00    +0.153 HD
ENDROOT
BRANCH   1  21
ATOM     18  C   UNL     1       0.731  -0.503   1.223  0.00  0.00    -0.045 A 
ATOM     19  C   UNL     1       2.050  -0.148   1.434  0.00  0.00    +0.004 A 
ATOM     20  C   UNL     1       2.719  -0.606   2.554  0.00  0.00    +0.005 A 
ATOM     21  C   UNL     1       2.068  -1.419   3.463  0.00  0.00    -0.035 A 
ATOM     22  C   UNL     1       0.749  -1.773   3.252  0.00  0.00    +0.005 A 
ATOM     23  C   UNL     1       0.079  -1.312   2.135  0.00  0.00    +0.004 A 
BRANCH  18  25
ATOM     24  C   UNL     1      -0.019   1.526   0.010  0.00  0.00    +0.012 C 
ATOM     25  C   UNL     1       0.002  -0.004   0.002  0.00  0.00    +0.013 C 
ATOM     26  C   UNL     1       0.718  -0.497  -1.257  0.00  0.00    +0.012 C 
ENDBRANCH  18  25
ENDBRANCH   1  21
BRANCH   6  27
ATOM     27  C   UNL     1       0.987   0.850   8.441  0.00  0.00    +0.067 A 
ATOM     28  C   UNL     1       1.492   2.115   8.171  0.00  0.00    +0.028 A 
ATOM     29  C   UNL     1       1.198   3.169   9.014  0.00  0.00    +0.002 A 
ATOM     30  C   UNL     1       0.401   2.966  10.125  0.00  0.00    +0.000 A 
ATOM     31  C   UNL     1      -0.104   1.708  10.397  0.00  0.00    +0.002 A 
ATOM     32  C   UNL     1       0.181   0.651   9.555  0.00  0.00    +0.028 A 
ENDBRANCH   6  27
TORSDOF 3
