REMARK  Name = ZINC16325430
REMARK  9 active torsions:
REMARK  status: ('A' for Active; 'I' for Inactive)
REMARK    1  A    between atoms: C_1  and  C_2
REMARK    2  A    between atoms: C_5  and  N_9
REMARK    3  A    between atoms: C_13  and  S_15
REMARK    4  A    between atoms: S_15  and  C_16
REMARK    5  A    between atoms: C_16  and  C_18
REMARK    6  A    between atoms: C_16  and  C_19
REMARK    7  A    between atoms: N_21  and  C_22
REMARK    8  A    between atoms: C_25  and  S_28
REMARK    9  A    between atoms: S_28  and  N_31
REMARK                            x       y       z     vdW  Elec       q    Type
REMARK                         _______ _______ _______ _____ _____    ______ ____
ROOT
ATOM      1  C   UNL     1      -0.658   1.166  -1.051  0.00  0.00    +0.136 C 
ATOM      2  C   UNL     1      -1.102   1.651  -2.433  0.00  0.00    +0.029 C 
ENDROOT
BRANCH   1   3
ATOM      3  C   UNL     1      -1.604   1.695  -0.005  0.00  0.00    +0.230 C 
ATOM      4  O   UNL     1      -1.340   2.719   0.589  0.00  0.00    -0.274 OA
ATOM      5  N   UNL     1      -2.744   1.031   0.271  0.00  0.00    -0.285 N 
ATOM      6  H   UNL     1      -2.920   0.174  -0.148  0.00  0.00    +0.155 HD
BRANCH   5   7
ATOM      7  C   UNL     1      -3.674   1.578   1.162  0.00  0.00    +0.034 A 
ATOM      8  C   UNL     1      -4.463   0.744   1.942  0.00  0.00    +0.025 A 
ATOM      9  C   UNL     1      -5.377   1.286   2.825  0.00  0.00    +0.030 A 
ATOM     10  C   UNL     1      -5.514   2.659   2.923  0.00  0.00    +0.105 A 
ATOM     11  C   UNL     1      -4.734   3.492   2.142  0.00  0.00    +0.030 A 
ATOM     12  C   UNL     1      -3.815   2.956   1.262  0.00  0.00    +0.025 A 
BRANCH  10  13
ATOM     13  S   UNL     1      -6.685   3.348   4.045  0.00  0.00    +0.056 S 
ATOM     14  O   UNL     1      -6.905   2.370   5.053  0.00  0.00    -0.153 OA
ATOM     15  O   UNL     1      -6.237   4.662   4.344  0.00  0.00    -0.153 OA
BRANCH  13  16
ATOM     16  N   UNL     1      -8.114   3.510   3.223  0.00  0.00    -0.204 NA
ATOM     17  H   UNL     1      -8.172   3.240   2.294  0.00  0.00    +0.144 HD
ATOM     18  H   UNL     1      -8.892   3.876   3.672  0.00  0.00    +0.144 HD
ENDBRANCH  13  16
ENDBRANCH  10  13
ENDBRANCH   5   7
ENDBRANCH   1   3
BRANCH   1  19
ATOM     19  S   UNL     1       1.019   1.767  -0.710  0.00  0.00    -0.084 S 
BRANCH  19  24
ATOM     20  N   UNL     1       4.989  -0.469  -4.295  0.00  0.00    -0.292 N 
ATOM     21  C   UNL     1       3.878  -0.069  -3.562  0.00  0.00    +0.187 A 
ATOM     22  N   UNL     1       2.615  -0.421  -3.700  0.00  0.00    -0.125 NA
ATOM     23  N   UNL     1       1.662   0.102  -2.856  0.00  0.00    -0.133 NA
ATOM     24  C   UNL     1       2.017   0.953  -1.913  0.00  0.00    +0.161 A 
ATOM     25  S   UNL     1       3.778   1.067  -2.187  0.00  0.00    -0.024 S 
ATOM     26  H   UNL     1       5.877  -0.189  -4.022  0.00  0.00    +0.154 HD
BRANCH  20  31
ATOM     27  C   UNL     1       4.330  -3.736  -8.885  0.00  0.00    +0.045 C 
ATOM     28  C   UNL     1       4.505  -2.868  -7.665  0.00  0.00    -0.032 A 
ATOM     29  C   UNL     1       3.467  -2.060  -7.238  0.00  0.00    +0.006 A 
ATOM     30  C   UNL     1       3.624  -1.264  -6.121  0.00  0.00    +0.023 A 
ATOM     31  C   UNL     1       4.827  -1.274  -5.426  0.00  0.00    +0.034 A 
ATOM     32  C   UNL     1       5.870  -2.082  -5.859  0.00  0.00    +0.043 A 
ATOM     33  C   UNL     1       5.705  -2.881  -6.975  0.00  0.00    +0.046 A 
ATOM     34 CL   UNL     1       7.005  -3.897  -7.516  0.00  0.00    -0.083 Cl
ENDBRANCH  20  31
ENDBRANCH  19  24
ENDBRANCH   1  19
TORSDOF 7
