REMARK  Name = ZINC33821849
REMARK  15 active torsions:
REMARK  status: ('A' for Active; 'I' for Inactive)
REMARK    1  A    between atoms: C_1  and  C_2
REMARK    2  A    between atoms: C_2  and  O_38
REMARK    3  A    between atoms: C_5  and  C_27
REMARK    4  A    between atoms: C_7  and  C_17
REMARK    5  A    between atoms: C_9  and  C_11
REMARK    6  A    between atoms: C_11  and  O_13
REMARK    7  A    between atoms: O_13  and  C_14
REMARK    8  A    between atoms: C_14  and  C_15
REMARK    9  A    between atoms: C_20  and  C_23
REMARK   10  A    between atoms: C_23  and  C_24
REMARK   11  A    between atoms: C_23  and  C_25
REMARK   12  A    between atoms: C_23  and  C_26
REMARK   13  A    between atoms: C_27  and  O_29
REMARK   14  A    between atoms: O_29  and  C_30
REMARK   15  A    between atoms: C_30  and  C_31
REMARK                            x       y       z     vdW  Elec       q    Type
REMARK                         _______ _______ _______ _____ _____    ______ ____
ROOT
ATOM      1  C   UNL     1      -0.938   3.143   1.845  0.00  0.00    +0.042 C 
ATOM      2  C   UNL     1      -0.441   2.817   3.255  0.00  0.00    +0.080 C 
ATOM      3  C   UNL     1      -1.254   3.613   4.279  0.00  0.00    +0.079 C 
ATOM      4  C   UNL     1      -0.772   3.275   5.687  0.00  0.00    +0.116 C 
ATOM      5  C   UNL     1      -0.916   1.781   5.959  0.00  0.00    +0.145 C 
ATOM      6  C   UNL     1      -0.104   0.992   4.929  0.00  0.00    +0.053 C 
ATOM      7  C   UNL     1      -0.609   1.321   3.522  0.00  0.00    +0.137 C 
ATOM      8  N   UNL     1       0.624   3.695   5.863  0.00  0.00    -0.306 N 
ATOM      9  C   UNL     1       0.631   4.605   6.855  0.00  0.00    +0.146 C 
ATOM     10  S   UNL     1       2.040   5.391   7.429  0.00  0.00    -0.018 S 
ATOM     11  N   UNL     1      -0.601   4.821   7.338  0.00  0.00    -0.260 N 
ATOM     12  N   UNL     1      -1.524   4.053   6.686  0.00  0.00    -0.217 NA
ATOM     13  H   UNL     1       1.413   3.261   5.231  0.00  0.00    +0.150 HD
ATOM     14  H   UNL     1      -0.919   5.500   8.143  0.00  0.00    +0.168 HD
ATOM     15  H   UNL     1      -2.007   3.443   7.329  0.00  0.00    +0.147 HD
ENDROOT
BRANCH   6  16
ATOM     16  C   UNL     1       1.351   1.369   5.041  0.00  0.00    -0.042 A 
ATOM     17  C   UNL     1       2.107   1.555   3.898  0.00  0.00    +0.004 A 
ATOM     18  C   UNL     1       3.440   1.905   4.001  0.00  0.00    +0.004 A 
ATOM     19  C   UNL     1       4.020   2.060   5.246  0.00  0.00    -0.042 A 
ATOM     20  C   UNL     1       3.265   1.869   6.388  0.00  0.00    +0.004 A 
ATOM     21  C   UNL     1       1.931   1.523   6.286  0.00  0.00    +0.004 A 
BRANCH  19  22
ATOM     22  C   UNL     1       5.475   2.437   5.358  0.00  0.00    -0.013 C 
ATOM     23  C   UNL     1       6.228   1.344   6.120  0.00  0.00    +0.015 C 
ATOM     24  C   UNL     1       6.072   2.586   3.957  0.00  0.00    +0.015 C 
ATOM     25  C   UNL     1       5.601   3.763   6.110  0.00  0.00    +0.015 C 
ENDBRANCH  19  22
ENDBRANCH   6  16
BRANCH   7  26
ATOM     26  C   UNL     1       0.183   0.537   2.508  0.00  0.00    +0.314 C 
ATOM     27  O   UNL     1       0.938  -0.333   2.873  0.00  0.00    -0.250 OA
BRANCH  26  28
ATOM     28  O   UNL     1       0.051   0.805   1.200  0.00  0.00    -0.460 OA
BRANCH  28  29
ATOM     29  C   UNL     1       0.845   0.011   0.280  0.00  0.00    +0.259 C 
BRANCH  29  30
ATOM     30  C   UNL     1       0.567   0.451  -1.134  0.00  0.00    +0.006 C 
ATOM     31  C   UNL     1       1.558   0.630  -1.972  0.00  0.00    +0.007 C 
ENDBRANCH  29  30
ENDBRANCH  28  29
ENDBRANCH  26  28
ENDBRANCH   7  26
BRANCH   5  32
ATOM     32  C   UNL     1      -0.408   1.471   7.343  0.00  0.00    +0.315 C 
ATOM     33  O   UNL     1      -0.070   2.369   8.077  0.00  0.00    -0.250 OA
BRANCH  32  34
ATOM     34  O   UNL     1      -0.331   0.198   7.761  0.00  0.00    -0.460 OA
BRANCH  34  35
ATOM     35  C   UNL     1       0.169  -0.026   9.105  0.00  0.00    +0.259 C 
BRANCH  35  36
ATOM     36  C   UNL     1       0.184  -1.504   9.396  0.00  0.00    +0.006 C 
ATOM     37  C   UNL     1       1.229  -2.048   9.970  0.00  0.00    +0.007 C 
ENDBRANCH  35  36
ENDBRANCH  34  35
ENDBRANCH  32  34
ENDBRANCH   5  32
BRANCH   2  38
ATOM     38  O   UNL     1       0.940   3.169   3.366  0.00  0.00    -0.388 OA
ATOM     39  H   UNL     1       1.474   3.006   4.314  0.00  0.00    +0.210 HD
ENDBRANCH   2  38
TORSDOF 11
