REMARK  Name = ZINC37040237
REMARK  4 active torsions:
REMARK  status: ('A' for Active; 'I' for Inactive)
REMARK    1  A    between atoms: C_3  and  N_11
REMARK    2  A    between atoms: C_6  and  N_7
REMARK    3  A    between atoms: C_12  and  C_14
REMARK    4  A    between atoms: C_19  and  N_20
REMARK                            x       y       z     vdW  Elec       q    Type
REMARK                         _______ _______ _______ _____ _____    ______ ____
ROOT
ATOM      1  N   UNL     1       3.584   2.125  -0.010  0.00  0.00    -0.280 N 
ATOM      2  C   UNL     1       3.568   3.469  -0.111  0.00  0.00    +0.250 C 
ATOM      3  O   UNL     1       2.509   4.067  -0.101  0.00  0.00    -0.270 OA
ATOM      4  H   UNL     1       4.429   1.655   0.064  0.00  0.00    +0.155 HD
ENDROOT
BRANCH   1   7
ATOM      5  C   UNL     1       0.067   1.238  -0.611  0.00  0.00    +0.034 A 
ATOM      6  C   UNL     1       1.252   1.948  -0.610  0.00  0.00    +0.026 A 
ATOM      7  C   UNL     1       2.383   1.409  -0.012  0.00  0.00    +0.048 A 
ATOM      8  C   UNL     1       2.318   0.156   0.586  0.00  0.00    +0.041 A 
ATOM      9  C   UNL     1       1.130  -0.549   0.582  0.00  0.00    +0.049 A 
ATOM     10  C   UNL     1       0.006  -0.008  -0.016  0.00  0.00    +0.127 A 
ATOM     11 BR   UNL     1       3.855  -0.585   1.402  0.00  0.00    -0.048 Br
BRANCH  10  12
ATOM     12  N   UNL     1      -1.266  -0.766  -0.018  0.00  0.00    +0.056 N 
ATOM     13  O   UNL     1      -2.249  -0.294  -0.540  0.00  0.00    -0.126 OA
ATOM     14  O   UNL     1      -1.321  -1.856   0.501  0.00  0.00    -0.126 OA
ENDBRANCH  10  12
ENDBRANCH   1   7
BRANCH   2  15
ATOM     15  C   UNL     1       4.834   4.215  -0.233  0.00  0.00    +0.060 A 
ATOM     16  C   UNL     1       6.045   3.528  -0.354  0.00  0.00    +0.053 A 
ATOM     17  C   UNL     1       7.226   4.231  -0.468  0.00  0.00    +0.124 A 
ATOM     18  C   UNL     1       7.217   5.619  -0.464  0.00  0.00    +0.040 A 
ATOM     19  C   UNL     1       6.029   6.310  -0.346  0.00  0.00    +0.026 A 
ATOM     20  C   UNL     1       4.829   5.618  -0.235  0.00  0.00    +0.037 A 
ATOM     21  F   UNL     1       8.396   3.567  -0.584  0.00  0.00    -0.205 F 
BRANCH  20  22
ATOM     22  N   UNL     1       3.631   6.312  -0.121  0.00  0.00    -0.357 N 
ATOM     23  H   UNL     1       2.789   5.830  -0.116  0.00  0.00    +0.142 HD
ATOM     24  H   UNL     1       3.635   7.279  -0.048  0.00  0.00    +0.142 HD
ENDBRANCH  20  22
ENDBRANCH   2  15
TORSDOF 4
