REMARK  Name = ZINC01131744
REMARK  5 active torsions:
REMARK  status: ('A' for Active; 'I' for Inactive)
REMARK    1  A    between atoms: C_8  and  C_10
REMARK    2  A    between atoms: N_12  and  C_13
REMARK    3  A    between atoms: C_13  and  N_15
REMARK    4  A    between atoms: N_15  and  C_16
REMARK    5  A    between atoms: C_21  and  N_22
REMARK                            x       y       z     vdW  Elec       q    Type
REMARK                         _______ _______ _______ _____ _____    ______ ____
ROOT
ATOM      1  C   UNL     1       6.687   4.392  -0.925  0.00  0.00    +0.141 C 
ATOM      2  S   UNL     1       7.635   3.513  -2.047  0.00  0.00    -0.018 S 
ENDROOT
BRANCH   1   5
ATOM      3  C   UNL     1       4.750   3.438  -1.814  0.00  0.00    +0.285 C 
ATOM      4  O   UNL     1       5.424   2.814  -2.611  0.00  0.00    -0.266 OA
ATOM      5  N   UNL     1       5.345   4.261  -0.927  0.00  0.00    -0.261 N 
ATOM      6  H   UNL     1       4.808   4.758  -0.291  0.00  0.00    +0.157 HD
BRANCH   3  14
ATOM      7  C   UNL     1      -1.208   2.528  -2.216  0.00  0.00    +0.001 A 
ATOM      8  C   UNL     1      -1.223   3.430  -1.160  0.00  0.00    +0.004 A 
ATOM      9  C   UNL     1      -0.050   3.964  -0.673  0.00  0.00    +0.047 A 
ATOM     10  C   UNL     1       1.166   3.594  -1.237  0.00  0.00    +0.136 A 
ATOM     11  C   UNL     1       1.176   2.674  -2.302  0.00  0.00    +0.021 A 
ATOM     12  C   UNL     1      -0.025   2.144  -2.782  0.00  0.00    +0.011 A 
ATOM     13  C   UNL     1       2.583   2.498  -2.661  0.00  0.00    +0.063 A 
ATOM     14  C   UNL     1       3.289   3.295  -1.817  0.00  0.00    +0.191 A 
ATOM     15  O   UNL     1       2.444   3.936  -0.982  0.00  0.00    -0.450 OA
ENDBRANCH   3  14
ENDBRANCH   1   5
BRANCH   1  16
ATOM     16  N   UNL     1       7.282   5.214  -0.038  0.00  0.00    -0.295 N 
ATOM     17  H   UNL     1       6.742   5.771   0.544  0.00  0.00    +0.154 HD
BRANCH  16  18
ATOM     18  C   UNL     1       8.680   5.265   0.042  0.00  0.00    +0.054 A 
ATOM     19  C   UNL     1       9.420   4.093   0.026  0.00  0.00    +0.025 A 
ATOM     20  C   UNL     1      10.800   4.145   0.100  0.00  0.00    +0.002 A 
ATOM     21  C   UNL     1      11.445   5.364   0.200  0.00  0.00    +0.002 A 
ATOM     22  C   UNL     1      10.714   6.538   0.222  0.00  0.00    +0.025 A 
ATOM     23  C   UNL     1       9.330   6.495   0.143  0.00  0.00    +0.051 A 
BRANCH  23  24
ATOM     24  N   UNL     1       8.589   7.681   0.165  0.00  0.00    -0.328 N 
ATOM     25  C   UNL     1       8.882   8.507  -1.013  0.00  0.00    +0.105 C 
ATOM     26  C   UNL     1       7.952   9.722  -1.030  0.00  0.00    +0.019 C 
ATOM     27  C   UNL     1       8.158  10.535   0.251  0.00  0.00    +0.003 C 
ATOM     28  C   UNL     1       7.893   9.638   1.463  0.00  0.00    +0.019 C 
ATOM     29  C   UNL     1       8.825   8.426   1.408  0.00  0.00    +0.105 C 
ENDBRANCH  23  24
ENDBRANCH  16  18
ENDBRANCH   1  16
TORSDOF 5
