REMARK  Name = ZINC24717553
REMARK  6 active torsions:
REMARK  status: ('A' for Active; 'I' for Inactive)
REMARK    1  A    between atoms: C_1  and  O_2
REMARK    2  A    between atoms: O_2  and  C_3
REMARK    3  A    between atoms: C_8  and  O_9
REMARK    4  A    between atoms: C_13  and  C_15
REMARK    5  A    between atoms: C_18  and  O_22
REMARK    6  A    between atoms: C_19  and  O_21
REMARK                            x       y       z     vdW  Elec       q    Type
REMARK                         _______ _______ _______ _____ _____    ______ ____
ROOT
ATOM      1  C   UNL     1       1.186   2.059   0.002  0.00  0.00    +0.162 A 
ATOM      2  C   UNL     1       2.360   1.323  -0.008  0.00  0.00    +0.050 A 
ATOM      3  C   UNL     1       3.578   1.973  -0.019  0.00  0.00    +0.008 A 
ATOM      4  C   UNL     1       3.637   3.358  -0.009  0.00  0.00    -0.031 A 
ATOM      5  C   UNL     1       2.472   4.097   0.001  0.00  0.00    +0.015 A 
ATOM      6  C   UNL     1       1.243   3.447   0.009  0.00  0.00    +0.163 A 
ATOM      7  C   UNL     1       2.486   5.603  -0.002  0.00  0.00    +0.120 C 
ATOM      8  N   UNL     1       3.803   6.106   0.402  0.00  0.00    -0.311 NA
ATOM      9  C   UNL     1       4.858   5.486  -0.416  0.00  0.00    +0.094 C 
ATOM     10  C   UNL     1       4.992   4.019  -0.006  0.00  0.00    +0.063 C 
ATOM     11  H   UNL     1       3.837   7.197   0.266  0.00  0.00    +0.122 HD
ENDROOT
BRANCH  10  12
ATOM     12  C   UNL     1       5.896   3.310  -0.980  0.00  0.00    -0.035 A 
ATOM     13  C   UNL     1       5.553   3.243  -2.318  0.00  0.00    +0.008 A 
ATOM     14  C   UNL     1       6.383   2.599  -3.216  0.00  0.00    +0.049 A 
ATOM     15  C   UNL     1       7.556   2.008  -2.775  0.00  0.00    +0.158 A 
ATOM     16  C   UNL     1       7.899   2.070  -1.428  0.00  0.00    +0.158 A 
ATOM     17  C   UNL     1       7.065   2.722  -0.533  0.00  0.00    +0.053 A 
BRANCH  16  18
ATOM     18  O   UNL     1       9.049   1.491  -0.990  0.00  0.00    -0.503 OA
ATOM     19  H   UNL     1       9.319   1.541   0.075  0.00  0.00    +0.292 HD
ENDBRANCH  16  18
BRANCH  15  20
ATOM     20  O   UNL     1       8.370   1.369  -3.657  0.00  0.00    -0.503 OA
ATOM     21  H   UNL     1       9.301   0.900  -3.305  0.00  0.00    +0.292 HD
ENDBRANCH  15  20
ENDBRANCH  10  12
BRANCH   1  23
ATOM     22  C   UNL     1       0.002  -0.004   0.002  0.00  0.00    +0.277 C 
ATOM     23  O   UNL     1      -0.017   1.425   0.010  0.00  0.00    -0.491 OA
ENDBRANCH   1  23
BRANCH   6  24
ATOM     24  O   UNL     1       0.093   4.173   0.023  0.00  0.00    -0.503 OA
ATOM     25  H   UNL     1       0.136   5.272   0.029  0.00  0.00    +0.292 HD
ENDBRANCH   6  24
TORSDOF 5
