REMARK  Name = ZINC39722539
REMARK  7 active torsions:
REMARK  status: ('A' for Active; 'I' for Inactive)
REMARK    1  A    between atoms: C_2  and  C_3
REMARK    2  A    between atoms: C_3  and  N_4
REMARK    3  A    between atoms: C_5  and  C_28
REMARK    4  A    between atoms: C_9  and  S_11
REMARK    5  A    between atoms: S_11  and  C_12
REMARK    6  A    between atoms: C_12  and  C_13
REMARK    7  A    between atoms: C_21  and  C_25
REMARK                            x       y       z     vdW  Elec       q    Type
REMARK                         _______ _______ _______ _____ _____    ______ ____
ROOT
ATOM      1  N   UNL     1       1.508  -1.665   1.123  0.00  0.00    +0.413 N 
ATOM      2  C   UNL     1       2.817  -2.346   1.251  0.00  0.00    +0.050 C 
ATOM      3  N   UNL     1       2.483  -3.674   1.829  0.00  0.00    -0.267 NA
ATOM      4  N   UNL     1       1.218  -4.018   1.161  0.00  0.00    -0.262 NA
ATOM      5  C   UNL     1       0.488  -2.734   1.067  0.00  0.00    +0.078 C 
ATOM      6  H   UNL     1       2.359  -3.613   2.828  0.00  0.00    +0.139 HD
ATOM      7  H   UNL     1       0.696  -4.692   1.700  0.00  0.00    +0.140 HD
ATOM      8  H   UNL     1       1.344  -1.073   1.923  0.00  0.00    -0.075 HD
ENDROOT
BRANCH   2   9
ATOM      9  C   UNL     1       3.722  -1.577   2.179  0.00  0.00    -0.046 A 
ATOM     10  C   UNL     1       3.596  -0.205   2.287  0.00  0.00    +0.005 A 
ATOM     11  C   UNL     1       4.426   0.501   3.137  0.00  0.00    +0.020 A 
ATOM     12  C   UNL     1       5.383  -0.166   3.881  0.00  0.00    +0.041 A 
ATOM     13  C   UNL     1       5.508  -1.540   3.773  0.00  0.00    +0.020 A 
ATOM     14  C   UNL     1       4.674  -2.245   2.926  0.00  0.00    +0.005 A 
ATOM     15 CL   UNL     1       6.426   0.720   4.950  0.00  0.00    -0.084 Cl
ENDBRANCH   2   9
BRANCH   1  16
ATOM     16  C   UNL     1       1.472  -0.869  -0.111  0.00  0.00    -0.045 C 
BRANCH  16  18
ATOM     17  C   UNL     1       0.258   1.239  -0.323  0.00  0.00    +0.002 C 
ATOM     18  C   UNL     1       0.202  -0.058  -0.149  0.00  0.00    -0.053 C 
ENDBRANCH  16  18
ENDBRANCH   1  16
BRANCH   5  19
ATOM     19  S   UNL     1      -0.417  -2.647  -0.503  0.00  0.00    -0.152 S 
BRANCH  19  20
ATOM     20  C   UNL     1      -1.872  -3.695  -0.229  0.00  0.00    +0.143 C 
BRANCH  20  21
ATOM     21  C   UNL     1      -2.783  -3.614  -1.427  0.00  0.00    +0.120 A 
ATOM     22  N   UNL     1      -3.937  -4.330  -1.409  0.00  0.00    -0.310 N 
ATOM     23  H   UNL     1      -4.152  -4.875  -0.636  0.00  0.00    +0.170 HD
ATOM     24  C   UNL     1      -4.789  -4.291  -2.460  0.00  0.00    +0.259 A 
ATOM     25  O   UNL     1      -5.826  -4.928  -2.457  0.00  0.00    -0.267 OA
ATOM     26  C   UNL     1      -4.412  -3.446  -3.607  0.00  0.00    +0.065 A 
ATOM     27  C   UNL     1      -5.222  -3.338  -4.736  0.00  0.00    +0.016 A 
ATOM     28  C   UNL     1      -4.835  -2.544  -5.777  0.00  0.00    +0.016 A 
ATOM     29  C   UNL     1      -3.628  -1.834  -5.721  0.00  0.00    +0.065 A 
ATOM     30  C   UNL     1      -2.806  -1.929  -4.604  0.00  0.00    +0.043 A 
ATOM     31  C   UNL     1      -3.193  -2.738  -3.534  0.00  0.00    +0.079 A 
ATOM     32  N   UNL     1      -2.427  -2.858  -2.421  0.00  0.00    -0.233 NA
BRANCH  29  33
ATOM     33  C   UNL     1      -3.226  -0.979  -6.858  0.00  0.00    +0.387 C 
ATOM     34  O   UNL     1      -3.946  -0.893  -7.843  0.00  0.00    -0.241 OA
ATOM     35  O   UNL     1      -2.174  -0.358  -6.814  0.00  0.00    -0.241 OA
ENDBRANCH  29  33
ENDBRANCH  20  21
ENDBRANCH  19  20
ENDBRANCH   5  19
TORSDOF 7
