REMARK  Name = ZINC03840997
REMARK  8 active torsions:
REMARK  status: ('A' for Active; 'I' for Inactive)
REMARK    1  A    between atoms: C_1  and  C_2
REMARK    2  A    between atoms: N_9  and  C_10
REMARK    3  A    between atoms: C_19  and  C_38
REMARK    4  A    between atoms: C_22  and  O_37
REMARK    5  A    between atoms: C_24  and  C_28
REMARK    6  A    between atoms: C_28  and  C_30
REMARK    7  A    between atoms: C_28  and  C_31
REMARK    8  A    between atoms: N_33  and  C_34
REMARK                            x       y       z     vdW  Elec       q    Type
REMARK                         _______ _______ _______ _____ _____    ______ ____
ROOT
ATOM      1  C   UNL     1       8.527   3.764  -3.722  0.00  0.00    +0.014 C 
ATOM      2  C   UNL     1       8.986   2.363  -3.312  0.00  0.00    +0.042 C 
ATOM      3  C   UNL     1      10.414   2.431  -2.791  0.00  0.00    +0.057 A 
ATOM      4  C   UNL     1      11.310   1.471  -3.131  0.00  0.00    +0.015 A 
ATOM      5  S   UNL     1      12.780   1.993  -2.290  0.00  0.00    -0.057 S 
ATOM      6  C   UNL     1      12.112   3.423  -1.561  0.00  0.00    +0.163 A 
ATOM      7  N   UNL     1      10.868   3.398  -1.995  0.00  0.00    -0.229 NA
ATOM      8  N   UNL     1      12.729   4.350  -0.735  0.00  0.00    -0.291 N 
ATOM      9  C   UNL     1      11.085   0.285  -4.001  0.00  0.00    +0.051 C 
ATOM     10  C   UNL     1       9.569   0.082  -4.191  0.00  0.00    -0.022 C 
ATOM     11  C   UNL     1       8.927   1.430  -4.528  0.00  0.00    +0.033 C 
ATOM     12  C   UNL     1       7.449   1.234  -4.884  0.00  0.00    +0.123 C 
ATOM     13  C   UNL     1       7.308   0.272  -6.061  0.00  0.00    +0.029 C 
ATOM     14  C   UNL     1       7.902  -1.083  -5.664  0.00  0.00    +0.007 C 
ATOM     15  C   UNL     1       9.386  -0.897  -5.356  0.00  0.00    +0.008 C 
ATOM     16  C   UNL     1       8.941  -0.494  -2.921  0.00  0.00    +0.012 C 
ATOM     17  H   UNL     1      12.209   5.066  -0.337  0.00  0.00    +0.154 HD
ENDROOT
BRANCH   8  18
ATOM     18  C   UNL     1      14.100   4.253  -0.475  0.00  0.00    +0.070 A 
ATOM     19  C   UNL     1      14.552   3.520   0.615  0.00  0.00    +0.064 A 
ATOM     20  C   UNL     1      15.908   3.421   0.865  0.00  0.00    +0.022 A 
ATOM     21  C   UNL     1      16.813   4.060   0.037  0.00  0.00    +0.003 A 
ATOM     22  C   UNL     1      16.367   4.795  -1.045  0.00  0.00    +0.022 A 
ATOM     23  C   UNL     1      15.012   4.894  -1.305  0.00  0.00    +0.064 A 
ATOM     24 CL   UNL     1      14.453   5.816  -2.665  0.00  0.00    -0.082 Cl
ATOM     25 CL   UNL     1      13.416   2.724   1.659  0.00  0.00    -0.082 Cl
ENDBRANCH   8  18
BRANCH  13  26
ATOM     26  C   UNL     1       5.829   0.101  -6.410  0.00  0.00    +0.077 C 
ATOM     27  C   UNL     1       5.108  -0.591  -5.251  0.00  0.00    +0.017 C 
BRANCH  26  28
ATOM     28  C   UNL     1       5.699  -0.740  -7.654  0.00  0.00    +0.216 C 
ATOM     29  O   UNL     1       6.694  -1.131  -8.227  0.00  0.00    -0.276 OA
ATOM     30  N   UNL     1       4.479  -1.055  -8.131  0.00  0.00    -0.312 N 
ATOM     31  H   UNL     1       3.683  -0.742  -7.672  0.00  0.00    +0.149 HD
BRANCH  30  32
ATOM     32  C   UNL     1       4.353  -1.872  -9.340  0.00  0.00    +0.073 C 
ATOM     33  C   UNL     1       3.070  -1.728 -10.160  0.00  0.00    +0.024 C 
ATOM     34  C   UNL     1       3.310  -2.991  -9.332  0.00  0.00    +0.024 C 
ENDBRANCH  30  32
ENDBRANCH  26  28
ENDBRANCH  13  26
BRANCH  12  35
ATOM     35  O   UNL     1       6.876   2.495  -5.234  0.00  0.00    -0.391 OA
ATOM     36  H   UNL     1       5.919   2.469  -5.366  0.00  0.00    +0.210 HD
ENDBRANCH  12  35
TORSDOF 5
