REMARK  Name = ZINC09240362
REMARK  7 active torsions:
REMARK  status: ('A' for Active; 'I' for Inactive)
REMARK    1  A    between atoms: C_1  and  C_2
REMARK    2  A    between atoms: C_2  and  C_3
REMARK    3  A    between atoms: C_3  and  C_5
REMARK    4  A    between atoms: C_3  and  N_6
REMARK    5  A    between atoms: C_10  and  C_11
REMARK    6  A    between atoms: N_27  and  C_34
REMARK    7  A    between atoms: N_30  and  C_33
REMARK                            x       y       z     vdW  Elec       q    Type
REMARK                         _______ _______ _______ _____ _____    ______ ____
ROOT
ATOM      1  C   UNL     1      -3.159  -2.108   1.779  0.00  0.00    -0.024 A 
ATOM      2  C   UNL     1      -3.095  -0.899   1.068  0.00  0.00    +0.010 A 
ATOM      3  C   UNL     1      -1.892  -0.288   0.886  0.00  0.00    +0.024 A 
ATOM      4  C   UNL     1      -0.715  -0.864   1.394  0.00  0.00    +0.033 A 
ATOM      5  C   UNL     1      -0.779  -2.039   2.132  0.00  0.00    -0.024 A 
ATOM      6  C   UNL     1      -1.986  -2.662   2.310  0.00  0.00    +0.013 A 
ATOM      7  C   UNL     1       0.441  -2.678   2.746  0.00  0.00    +0.064 C 
ATOM      8  C   UNL     1       1.726  -1.954   2.323  0.00  0.00    +0.146 C 
ATOM      9  C   UNL     1       1.413  -0.460   2.319  0.00  0.00    +0.098 C 
ATOM     10  N   UNL     1       0.480  -0.233   1.189  0.00  0.00    -0.325 N 
ATOM     11  C   UNL     1       0.498   1.204   0.937  0.00  0.00    +0.105 C 
ATOM     12  C   UNL     1       1.909   1.688   1.357  0.00  0.00    +0.021 C 
ATOM     13  C   UNL     1       2.610   0.428   1.934  0.00  0.00    +0.025 C 
ATOM     14  C   UNL     1       2.816  -2.247   3.313  0.00  0.00    +0.240 C 
ATOM     15  O   UNL     1       2.653  -1.944   4.476  0.00  0.00    -0.274 OA
ATOM     16  N   UNL     1       3.965  -2.833   2.948  0.00  0.00    -0.228 N 
ATOM     17  C   UNL     1       4.206  -3.190   1.677  0.00  0.00    +0.317 C 
ATOM     18  O   UNL     1       5.264  -3.720   1.401  0.00  0.00    -0.252 OA
ATOM     19  N   UNL     1       3.308  -2.977   0.703  0.00  0.00    -0.228 N 
ATOM     20  C   UNL     1       2.123  -2.399   0.945  0.00  0.00    +0.240 C 
ATOM     21  O   UNL     1       1.351  -2.231   0.026  0.00  0.00    -0.274 OA
ATOM     22  C   UNL     1       3.633  -3.388  -0.665  0.00  0.00    +0.143 C 
ATOM     23  C   UNL     1       4.987  -3.092   3.965  0.00  0.00    +0.143 C 
ENDROOT
BRANCH   1  28
ATOM     24  N   UNL     1      -5.772  -6.230   1.901  0.00  0.00    -0.219 N 
ATOM     25  C   UNL     1      -5.747  -4.903   2.139  0.00  0.00    +0.259 C 
ATOM     26  O   UNL     1      -6.694  -4.343   2.659  0.00  0.00    -0.269 OA
ATOM     27  C   UNL     1      -4.539  -4.148   1.752  0.00  0.00    +0.100 C 
ATOM     28  C   UNL     1      -4.440  -2.785   1.964  0.00  0.00    +0.026 C 
ATOM     29  C   UNL     1      -3.444  -4.912   1.123  0.00  0.00    +0.257 C 
ATOM     30  O   UNL     1      -2.418  -4.360   0.772  0.00  0.00    -0.270 OA
ATOM     31  N   UNL     1      -3.610  -6.240   0.952  0.00  0.00    -0.236 N 
ATOM     32  C   UNL     1      -4.736  -6.860   1.329  0.00  0.00    +0.316 C 
ATOM     33  O   UNL     1      -4.823  -8.058   1.142  0.00  0.00    -0.252 OA
ATOM     34  H   UNL     1      -2.898  -6.757   0.543  0.00  0.00    +0.159 HD
BRANCH  24  35
ATOM     35  C   UNL     1      -6.960  -7.002   2.275  0.00  0.00    +0.083 C 
ATOM     36  C   UNL     1      -6.569  -8.083   3.284  0.00  0.00    +0.028 C 
BRANCH  35  38
ATOM     37  C   UNL     1      -8.060  -6.577   0.072  0.00  0.00    +0.006 C 
ATOM     38  C   UNL     1      -7.555  -7.660   1.028  0.00  0.00    +0.019 C 
ENDBRANCH  35  38
ENDBRANCH  24  35
ENDBRANCH   1  28
TORSDOF 3
