REMARK  Name = ZINC05276021
REMARK  7 active torsions:
REMARK  status: ('A' for Active; 'I' for Inactive)
REMARK    1  A    between atoms: C_1  and  C_2
REMARK    2  A    between atoms: C_2  and  C_4
REMARK    3  A    between atoms: C_2  and  C_8
REMARK    4  A    between atoms: C_4  and  C_5
REMARK    5  A    between atoms: C_5  and  C_6
REMARK    6  A    between atoms: C_14  and  C_31
REMARK    7  A    between atoms: C_29  and  C_30
REMARK                            x       y       z     vdW  Elec       q    Type
REMARK                         _______ _______ _______ _____ _____    ______ ____
ROOT
ATOM      1  C   UNL     1       0.900  -0.606   1.193  0.00  0.00    -0.002 C 
ATOM      2  C   UNL     1       1.276  -2.107   1.110  0.00  0.00    +0.004 C 
ATOM      3  C   UNL     1       2.803  -2.192   1.391  0.00  0.00    +0.005 C 
ATOM      4  C   UNL     1       3.116  -0.809   1.985  0.00  0.00    +0.002 C 
ATOM      5  C   UNL     1       2.266   0.111   1.087  0.00  0.00    -0.026 C 
ATOM      6  C   UNL     1       2.268   1.534   1.577  0.00  0.00    +0.007 C 
ATOM      7  C   UNL     1       3.640   1.922   2.155  0.00  0.00    +0.005 C 
ATOM      8  C   UNL     1       4.734   1.040   1.579  0.00  0.00    +0.006 C 
ATOM      9  C   UNL     1       4.554  -0.401   2.066  0.00  0.00    +0.019 C 
ATOM     10  C   UNL     1       5.514  -1.294   1.339  0.00  0.00    -0.023 C 
ATOM     11  C   UNL     1       6.708  -0.817   0.972  0.00  0.00    +0.000 C 
ATOM     12  C   UNL     1       7.107   0.563   1.243  0.00  0.00    -0.038 C 
ATOM     13  C   UNL     1       8.332   0.989   0.851  0.00  0.00    +0.050 C 
ATOM     14  C   UNL     1       8.745   2.318   1.016  0.00  0.00    +0.156 C 
ATOM     15  O   UNL     1       9.871   2.640   0.688  0.00  0.00    -0.293 OA
ATOM     16  C   UNL     1       7.816   3.355   1.590  0.00  0.00    +0.080 C 
ATOM     17  C   UNL     1       6.364   2.925   1.375  0.00  0.00    +0.019 C 
ATOM     18  C   UNL     1       6.147   1.514   1.925  0.00  0.00    -0.003 C 
ATOM     19  C   UNL     1       6.378   1.505   3.433  0.00  0.00    +0.016 C 
ATOM     20  C   UNL     1       2.672   0.033  -0.387  0.00  0.00    +0.012 C 
ENDROOT
BRANCH   1  22
ATOM     21  C   UNL     1      -0.430   1.247   0.182  0.00  0.00    +0.008 C 
ATOM     22  C   UNL     1       0.015  -0.207   0.016  0.00  0.00    -0.010 C 
BRANCH  22  23
ATOM     23  C   UNL     1      -1.216  -1.115  -0.026  0.00  0.00    +0.015 C 
BRANCH  23  24
ATOM     24  C   UNL     1      -2.040  -0.799  -1.276  0.00  0.00    +0.125 C 
BRANCH  24  25
ATOM     25  C   UNL     1      -3.252  -1.693  -1.319  0.00  0.00    +0.356 C 
ATOM     26  O   UNL     1      -3.438  -2.500  -0.439  0.00  0.00    -0.246 OA
ATOM     27  O   UNL     1      -4.125  -1.592  -2.333  0.00  0.00    -0.246 OA
ENDBRANCH  24  25
ENDBRANCH  23  24
ENDBRANCH  22  23
ENDBRANCH   1  22
TORSDOF 4
