REMARK  Name = ZINC02255543
REMARK  11 active torsions:
REMARK  status: ('A' for Active; 'I' for Inactive)
REMARK    1  A    between atoms: C_1  and  C_2
REMARK    2  A    between atoms: C_2  and  C_4
REMARK    3  A    between atoms: C_2  and  O_7
REMARK    4  A    between atoms: C_4  and  O_5
REMARK    5  A    between atoms: O_5  and  C_6
REMARK    6  A    between atoms: O_7  and  C_8
REMARK    7  A    between atoms: C_8  and  C_10
REMARK    8  A    between atoms: N_21  and  C_24
REMARK    9  A    between atoms: C_22  and  N_23
REMARK   10  A    between atoms: C_27  and  S_30
REMARK   11  A    between atoms: S_30  and  N_33
REMARK                            x       y       z     vdW  Elec       q    Type
REMARK                         _______ _______ _______ _____ _____    ______ ____
ROOT
ATOM      1  C   UNL     1      -3.823   3.067   6.956  0.00  0.00    +0.126 A 
ATOM      2  C   UNL     1      -4.517   4.140   6.224  0.00  0.00    +0.125 A 
ATOM      3  C   UNL     1      -3.992   4.080   4.857  0.00  0.00    +0.167 A 
ATOM      4  N   UNL     1      -4.439   4.927   3.955  0.00  0.00    -0.225 NA
ATOM      5  C   UNL     1      -5.357   5.841   4.295  0.00  0.00    +0.092 A 
ATOM      6  C   UNL     1      -5.835   6.755   3.338  0.00  0.00    +0.030 A 
ATOM      7  C   UNL     1      -6.768   7.680   3.692  0.00  0.00    +0.002 A 
ATOM      8  C   UNL     1      -7.261   7.739   4.994  0.00  0.00    +0.002 A 
ATOM      9  C   UNL     1      -6.823   6.873   5.947  0.00  0.00    +0.030 A 
ATOM     10  C   UNL     1      -5.858   5.901   5.619  0.00  0.00    +0.090 A 
ATOM     11  N   UNL     1      -5.420   5.043   6.548  0.00  0.00    -0.241 NA
ATOM     12  N   UNL     1      -3.079   3.044   4.821  0.00  0.00    -0.280 N 
ATOM     13  C   UNL     1      -2.973   2.451   6.043  0.00  0.00    +0.119 A 
ENDROOT
BRANCH  12  14
ATOM     14  C   UNL     1      -2.355   2.659   3.684  0.00  0.00    +0.050 A 
ATOM     15  C   UNL     1      -2.561   1.408   3.119  0.00  0.00    +0.028 A 
ATOM     16  C   UNL     1      -1.846   1.032   1.999  0.00  0.00    +0.030 A 
ATOM     17  C   UNL     1      -0.927   1.900   1.439  0.00  0.00    +0.105 A 
ATOM     18  C   UNL     1      -0.716   3.145   2.003  0.00  0.00    +0.030 A 
ATOM     19  C   UNL     1      -1.431   3.529   3.120  0.00  0.00    +0.028 A 
BRANCH  17  20
ATOM     20  S   UNL     1      -0.017   1.417   0.010  0.00  0.00    +0.056 S 
ATOM     21  O   UNL     1       0.002  -0.004   0.002  0.00  0.00    -0.153 OA
ATOM     22  O   UNL     1       1.172   2.195   0.003  0.00  0.00    -0.153 OA
BRANCH  20  23
ATOM     23  N   UNL     1      -0.897   1.885  -1.312  0.00  0.00    -0.204 NA
ATOM     24  H   UNL     1      -1.747   2.338  -1.194  0.00  0.00    +0.144 HD
ATOM     25  H   UNL     1      -0.563   1.708  -2.205  0.00  0.00    +0.144 HD
ENDBRANCH  20  23
ENDBRANCH  17  20
ENDBRANCH  12  14
BRANCH  13  26
ATOM     26  N   UNL     1      -2.146   1.398   6.332  0.00  0.00    -0.343 N 
ATOM     27  H   UNL     1      -1.580   1.022   5.640  0.00  0.00    +0.144 HD
ATOM     28  H   UNL     1      -2.126   1.029   7.229  0.00  0.00    +0.144 HD
ENDBRANCH  13  26
BRANCH   1  29
ATOM     29  C   UNL     1      -3.989   2.729   8.322  0.00  0.00    +0.345 C 
ATOM     30  O   UNL     1      -3.292   3.257   9.168  0.00  0.00    -0.245 OA
BRANCH  29  31
ATOM     31  O   UNL     1      -4.919   1.820   8.684  0.00  0.00    -0.456 OA
BRANCH  31  33
ATOM     32  C   UNL     1      -4.097   0.369  10.432  0.00  0.00    +0.054 C 
ATOM     33  C   UNL     1      -5.031   1.527  10.078  0.00  0.00    +0.199 C 
BRANCH  33  34
ATOM     34  C   UNL     1      -6.474   1.137  10.403  0.00  0.00    +0.203 C 
BRANCH  34  35
ATOM     35  O   UNL     1      -6.799  -0.083   9.733  0.00  0.00    -0.379 OA
ATOM     36  C   UNL     1      -8.133  -0.539   9.970  0.00  0.00    +0.194 C 
ENDBRANCH  34  35
ENDBRANCH  33  34
ENDBRANCH  31  33
ENDBRANCH  29  31
ENDBRANCH   1  29
TORSDOF 9
