REMARK  Name = ZINC64070093
REMARK  3 active torsions:
REMARK  status: ('A' for Active; 'I' for Inactive)
REMARK    1  A    between atoms: C_3  and  C_6
REMARK    2  A    between atoms: C_12  and  C_13
REMARK    3  A    between atoms: N_15  and  C_16
REMARK                            x       y       z     vdW  Elec       q    Type
REMARK                         _______ _______ _______ _____ _____    ______ ____
ROOT
ATOM      1  C   UNL     1       4.237   2.199  -0.472  0.00  0.00    +0.166 C 
ATOM      2  N   UNL     1       5.046   1.059  -0.944  0.00  0.00    -0.331 N 
ATOM      3  C   UNL     1       5.774   0.367  -0.040  0.00  0.00    +0.020 C 
ATOM      4  C   UNL     1       6.120   1.124   1.238  0.00  0.00    +0.121 C 
ATOM      5  S   UNL     1       4.683   2.287   1.314  0.00  0.00    -0.127 S 
ATOM      6  C   UNL     1       6.167  -0.906  -0.252  0.00  0.00    +0.091 C 
ATOM      7  H   UNL     1       5.055   0.812  -1.882  0.00  0.00    +0.147 HD
ENDROOT
BRANCH   1  10
ATOM      8  C   UNL     1       0.461   2.309  -0.959  0.00  0.00    +0.008 A 
ATOM      9  C   UNL     1       1.747   2.796  -0.821  0.00  0.00    +0.014 A 
ATOM     10  C   UNL     1       2.766   1.921  -0.644  0.00  0.00    +0.020 A 
ATOM     11  S   UNL     1       1.914   0.352  -0.669  0.00  0.00    -0.099 S 
ATOM     12  C   UNL     1       0.257   0.970  -0.913  0.00  0.00    +0.045 A 
ENDBRANCH   1  10
BRANCH   6  13
ATOM     13  C   UNL     1       5.685  -1.616  -1.375  0.00  0.00    +0.275 C 
ATOM     14  O   UNL     1       4.738  -1.064  -2.169  0.00  0.00    -0.266 OA
ATOM     15  N   UNL     1       6.158  -2.817  -1.650  0.00  0.00    -0.172 NA
BRANCH  15  16
ATOM     16  C   UNL     1       5.697  -3.496  -2.724  0.00  0.00    +0.249 A 
ATOM     17  N   UNL     1       6.090  -4.738  -3.120  0.00  0.00    -0.243 N 
ATOM     18  H   UNL     1       6.750  -5.305  -2.691  0.00  0.00    +0.192 HD
ATOM     19  N   UNL     1       5.347  -5.034  -4.274  0.00  0.00    -0.159 NA
ATOM     20  C   UNL     1       4.577  -4.005  -4.510  0.00  0.00    +0.247 A 
ATOM     21  N   UNL     1       4.778  -3.077  -3.578  0.00  0.00    -0.198 NA
ENDBRANCH  15  16
ENDBRANCH   6  13
TORSDOF 3
