REMARK  Name = ZINC58997132
REMARK  10 active torsions:
REMARK  status: ('A' for Active; 'I' for Inactive)
REMARK    1  A    between atoms: C_1  and  C_2
REMARK    2  A    between atoms: C_2  and  S_3
REMARK    3  A    between atoms: S_3  and  C_4
REMARK    4  A    between atoms: C_9  and  N_13
REMARK    5  A    between atoms: C_14  and  C_16
REMARK    6  A    between atoms: C_16  and  S_17
REMARK    7  A    between atoms: S_17  and  C_18
REMARK    8  A    between atoms: N_23  and  N_24
REMARK    9  A    between atoms: C_25  and  C_26
REMARK   10  A    between atoms: C_31  and  O_32
REMARK                            x       y       z     vdW  Elec       q    Type
REMARK                         _______ _______ _______ _____ _____    ______ ____
ROOT
ATOM      1  S   UNL     1       1.642 -11.715  -0.401  0.00  0.00    -0.075 S 
ENDROOT
BRANCH   1   2
ATOM      2  C   UNL     1       1.273 -13.433  -0.534  0.00  0.00    +0.211 A 
ATOM      3  N   UNL     1       2.174 -14.414  -0.649  0.00  0.00    -0.186 NA
ATOM      4  C   UNL     1       1.558 -15.575  -0.727  0.00  0.00    +0.232 A 
ATOM      5  N   UNL     1       0.229 -15.346  -0.661  0.00  0.00    -0.245 N 
ATOM      6  N   UNL     1       0.071 -13.957  -0.532  0.00  0.00    -0.144 NA
ATOM      7  N   UNL     1       2.164 -16.811  -0.854  0.00  0.00    -0.205 N 
ATOM      8  H   UNL     1       1.623 -17.614  -0.904  0.00  0.00    +0.177 HD
ATOM      9  H   UNL     1      -0.477 -16.010  -0.694  0.00  0.00    +0.192 HD
BRANCH   7  10
ATOM     10  N   UNL     1       3.561 -16.903  -0.910  0.00  0.00    -0.187 NA
ATOM     11  C   UNL     1       4.131 -18.064  -1.029  0.00  0.00    +0.142 C 
BRANCH  11  12
ATOM     12  C   UNL     1       5.600 -18.161  -1.088  0.00  0.00    +0.036 A 
ATOM     13  C   UNL     1       6.217 -19.407  -1.222  0.00  0.00    +0.013 A 
ATOM     14  C   UNL     1       7.592 -19.491  -1.277  0.00  0.00    +0.001 A 
ATOM     15  C   UNL     1       8.365 -18.345  -1.200  0.00  0.00    +0.004 A 
ATOM     16  C   UNL     1       7.766 -17.106  -1.067  0.00  0.00    +0.046 A 
ATOM     17  C   UNL     1       6.386 -17.003  -1.016  0.00  0.00    +0.125 A 
BRANCH  17  18
ATOM     18  O   UNL     1       5.797 -15.786  -0.892  0.00  0.00    -0.506 OA
ATOM     19  H   UNL     1       5.657 -15.508   0.024  0.00  0.00    +0.292 HD
ENDBRANCH  17  18
ENDBRANCH  11  12
ENDBRANCH   7  10
ENDBRANCH   1   2
BRANCH   1  20
ATOM     20  C   UNL     1       0.014 -10.926  -0.268  0.00  0.00    +0.173 C 
BRANCH  20  22
ATOM     21  N   UNL     1      -0.893  -8.637  -0.035  0.00  0.00    -0.285 N 
ATOM     22  C   UNL     1       0.188  -9.434  -0.146  0.00  0.00    +0.227 C 
ATOM     23  O   UNL     1       1.300  -8.950  -0.149  0.00  0.00    -0.275 OA
ATOM     24  H   UNL     1      -1.779  -9.027   0.035  0.00  0.00    +0.155 HD
BRANCH  21  30
ATOM     25  C   UNL     1       0.906  -2.659   0.680  0.00  0.00    +0.136 A 
ATOM     26  N   UNL     1      -0.173  -3.117   0.087  0.00  0.00    -0.233 NA
ATOM     27  C   UNL     1      -0.447  -4.439  -0.001  0.00  0.00    +0.080 A 
ATOM     28  C   UNL     1      -1.564  -5.058  -0.608  0.00  0.00    +0.031 A 
ATOM     29  C   UNL     1      -1.695  -6.422  -0.611  0.00  0.00    +0.025 A 
ATOM     30  C   UNL     1      -0.738  -7.244  -0.020  0.00  0.00    +0.035 A 
ATOM     31  C   UNL     1       0.371  -6.667   0.584  0.00  0.00    +0.040 A 
ATOM     32  C   UNL     1       0.504  -5.301   0.589  0.00  0.00    +0.042 A 
ATOM     33  S   UNL     1       1.714  -4.160   1.214  0.00  0.00    -0.061 S 
BRANCH  25  34
ATOM     34  S   UNL     1       1.426  -0.989   0.890  0.00  0.00    -0.099 S 
BRANCH  34  36
ATOM     35  C   UNL     1       0.445   1.472   0.210  0.00  0.00    +0.016 C 
ATOM     36  C   UNL     1       0.114  -0.017   0.099  0.00  0.00    +0.073 C 
ENDBRANCH  34  36
ENDBRANCH  25  34
ENDBRANCH  21  30
ENDBRANCH  20  22
ENDBRANCH   1  20
TORSDOF 9
