REMARK  Name = ZINC00634346
REMARK  7 active torsions:
REMARK  status: ('A' for Active; 'I' for Inactive)
REMARK    1  A    between atoms: C_1  and  C_2
REMARK    2  A    between atoms: C_2  and  O_3
REMARK    3  A    between atoms: O_3  and  C_4
REMARK    4  A    between atoms: C_4  and  C_6
REMARK    5  A    between atoms: C_7  and  N_26
REMARK    6  A    between atoms: C_11  and  C_15
REMARK    7  A    between atoms: C_16  and  C_18
REMARK                            x       y       z     vdW  Elec       q    Type
REMARK                         _______ _______ _______ _____ _____    ______ ____
ROOT
ATOM      1  C   UNL     1      -4.167   0.975   2.405  0.00  0.00    +0.105 C 
ATOM      2  C   UNL     1      -4.889   1.252   3.517  0.00  0.00    +0.197 C 
ATOM      3  O   UNL     1      -6.171   0.876   3.691  0.00  0.00    -0.424 OA
ATOM      4  C   UNL     1      -6.673  -0.054   2.840  0.00  0.00    +0.222 A 
ATOM      5  C   UNL     1      -6.043  -0.411   1.681  0.00  0.00    +0.049 A 
ATOM      6  C   UNL     1      -6.814  -1.379   1.052  0.00  0.00    +0.068 A 
ATOM      7  N   UNL     1      -7.871  -1.605   1.796  0.00  0.00    -0.176 NA
ATOM      8  N   UNL     1      -7.801  -0.777   2.929  0.00  0.00    -0.246 N 
ATOM      9  H   UNL     1      -8.471  -0.735   3.669  0.00  0.00    +0.192 HD
ATOM     10  C   UNL     1      -6.492  -2.055  -0.256  0.00  0.00    +0.068 C 
ATOM     11  C   UNL     1      -4.737   0.200   1.243  0.00  0.00    +0.101 C 
ENDROOT
BRANCH  11  12
ATOM     12  C   UNL     1      -4.974   1.129   0.080  0.00  0.00    +0.002 A 
ATOM     13  C   UNL     1      -5.840   2.199   0.215  0.00  0.00    +0.046 A 
ATOM     14  C   UNL     1      -6.054   3.054  -0.852  0.00  0.00    +0.020 A 
ATOM     15  C   UNL     1      -5.409   2.834  -2.055  0.00  0.00    +0.003 A 
ATOM     16  C   UNL     1      -4.548   1.761  -2.191  0.00  0.00    +0.020 A 
ATOM     17  C   UNL     1      -4.330   0.908  -1.124  0.00  0.00    +0.046 A 
ATOM     18 CL   UNL     1      -3.247  -0.438  -1.296  0.00  0.00    -0.083 Cl
ATOM     19 CL   UNL     1      -6.655   2.472   1.723  0.00  0.00    -0.083 Cl
ENDBRANCH  11  12
BRANCH   2  20
ATOM     20  N   UNL     1      -4.284   1.960   4.520  0.00  0.00    -0.329 N 
ATOM     21  H   UNL     1      -3.390   2.316   4.392  0.00  0.00    +0.145 HD
ATOM     22  H   UNL     1      -4.748   2.108   5.359  0.00  0.00    +0.145 HD
ENDBRANCH   2  20
BRANCH   1  23
ATOM     23  C   UNL     1      -2.839   1.420   2.334  0.00  0.00    +0.341 C 
ATOM     24  O   UNL     1      -1.924   0.644   2.548  0.00  0.00    -0.245 OA
BRANCH  23  25
ATOM     25  O   UNL     1      -2.574   2.709   2.028  0.00  0.00    -0.462 OA
BRANCH  25  27
ATOM     26  C   UNL     1      -1.098   4.577   1.615  0.00  0.00    +0.048 C 
ATOM     27  C   UNL     1      -1.199   3.093   1.973  0.00  0.00    +0.229 C 
ENDBRANCH  25  27
ENDBRANCH  23  25
ENDBRANCH   1  23
TORSDOF 5
