REMARK  Name = ZINC67390330
REMARK  8 active torsions:
REMARK  status: ('A' for Active; 'I' for Inactive)
REMARK    1  A    between atoms: C_1  and  C_2
REMARK    2  A    between atoms: C_2  and  C_3
REMARK    3  A    between atoms: C_2  and  C_4
REMARK    4  A    between atoms: C_2  and  N_11
REMARK    5  A    between atoms: N_14  and  C_15
REMARK    6  A    between atoms: C_15  and  C_16
REMARK    7  A    between atoms: C_19  and  S_21
REMARK    8  A    between atoms: S_21  and  N_24
REMARK                            x       y       z     vdW  Elec       q    Type
REMARK                         _______ _______ _______ _____ _____    ______ ____
ROOT
ATOM      1  N   UNL     1       0.556  -0.272  -1.327  0.00  0.00    -0.290 N 
ATOM      2  C   UNL     1       1.849   0.006  -1.587  0.00  0.00    +0.301 C 
ATOM      3  O   UNL     1       2.556   0.479  -0.719  0.00  0.00    -0.253 OA
ATOM      4  N   UNL     1       2.358  -0.241  -2.811  0.00  0.00    -0.295 N 
ATOM      5  H   UNL     1      -0.008  -0.650  -2.021  0.00  0.00    +0.151 HD
ATOM      6  H   UNL     1       1.794  -0.618  -3.504  0.00  0.00    +0.151 HD
ENDROOT
BRANCH   1   8
ATOM      7  C   UNL     1       0.155   1.483   0.328  0.00  0.00    +0.036 C 
ATOM      8  C   UNL     1       0.002  -0.004   0.002  0.00  0.00    +0.056 C 
ATOM      9  C   UNL     1       0.753  -0.835   1.044  0.00  0.00    +0.036 C 
BRANCH   8  10
ATOM     10  C   UNL     1      -1.458  -0.375   0.022  0.00  0.00    -0.025 A 
ATOM     11  C   UNL     1      -2.073  -0.700   1.217  0.00  0.00    +0.007 A 
ATOM     12  C   UNL     1      -3.412  -1.040   1.236  0.00  0.00    +0.020 A 
ATOM     13  C   UNL     1      -4.138  -1.055   0.058  0.00  0.00    +0.041 A 
ATOM     14  C   UNL     1      -3.523  -0.729  -1.138  0.00  0.00    +0.020 A 
ATOM     15  C   UNL     1      -2.185  -0.384  -1.154  0.00  0.00    +0.007 A 
ATOM     16 CL   UNL     1      -5.821  -1.482   0.081  0.00  0.00    -0.084 Cl
ENDBRANCH   8  10
ENDBRANCH   1   8
BRANCH   4  17
ATOM     17  C   UNL     1       3.764   0.061  -3.093  0.00  0.00    +0.148 C 
BRANCH  17  18
ATOM     18  C   UNL     1       4.079  -0.305  -4.521  0.00  0.00    +0.009 A 
ATOM     19  C   UNL     1       3.992   0.460  -5.637  0.00  0.00    +0.015 A 
ATOM     20  C   UNL     1       4.338  -0.092  -6.856  0.00  0.00    +0.036 A 
ATOM     21  C   UNL     1       4.754  -1.382  -6.899  0.00  0.00    +0.142 A 
ATOM     22  S   UNL     1       4.671  -1.855  -5.180  0.00  0.00    -0.072 S 
BRANCH  21  23
ATOM     23  S   UNL     1       5.253  -2.341  -8.291  0.00  0.00    +0.062 S 
ATOM     24  O   UNL     1       5.053  -3.703  -7.938  0.00  0.00    -0.153 OA
ATOM     25  O   UNL     1       4.642  -1.751  -9.430  0.00  0.00    -0.153 OA
BRANCH  23  26
ATOM     26  N   UNL     1       6.886  -2.132  -8.468  0.00  0.00    -0.203 NA
ATOM     27  H   UNL     1       7.372  -1.560  -7.854  0.00  0.00    +0.144 HD
ATOM     28  H   UNL     1       7.358  -2.582  -9.187  0.00  0.00    +0.144 HD
ENDBRANCH  23  26
ENDBRANCH  21  23
ENDBRANCH  17  18
ENDBRANCH   4  17
TORSDOF 6
