REMARK  Name = ZINC03085234
REMARK  7 active torsions:
REMARK  status: ('A' for Active; 'I' for Inactive)
REMARK    1  A    between atoms: C_1  and  C_2
REMARK    2  A    between atoms: C_2  and  N_3
REMARK    3  A    between atoms: N_3  and  N_4
REMARK    4  A    between atoms: C_5  and  C_7
REMARK    5  A    between atoms: N_9  and  C_10
REMARK    6  A    between atoms: C_20  and  C_21
REMARK    7  A    between atoms: N_23  and  C_24
REMARK                            x       y       z     vdW  Elec       q    Type
REMARK                         _______ _______ _______ _____ _____    ______ ____
ROOT
ATOM      1  N   UNL     1      -3.179   6.129   0.847  0.00  0.00    -0.229 N 
ATOM      2  C   UNL     1      -4.130   5.342   1.388  0.00  0.00    +0.315 C 
ATOM      3  O   UNL     1      -5.293   5.691   1.365  0.00  0.00    -0.264 OA
ATOM      4  H   UNL     1      -2.126   5.813   0.868  0.00  0.00    +0.173 HD
ENDROOT
BRANCH   2   5
ATOM      5  C   UNL     1      -3.754   4.042   2.016  0.00  0.00    +0.305 C 
ATOM      6  O   UNL     1      -2.591   3.693   2.039  0.00  0.00    -0.265 OA
ATOM      7  N   UNL     1      -4.705   3.255   2.557  0.00  0.00    -0.277 N 
ATOM      8  H   UNL     1      -5.766   3.529   2.461  0.00  0.00    +0.155 HD
BRANCH   7   9
ATOM      9  C   UNL     1      -4.344   2.095   3.239  0.00  0.00    +0.042 A 
ATOM     10  C   UNL     1      -3.154   2.038   3.934  0.00  0.00    +0.024 A 
ATOM     11  C   UNL     1      -2.784   0.883   4.617  0.00  0.00    +0.002 A 
ATOM     12  C   UNL     1      -3.584  -0.219   4.620  0.00  0.00    +0.008 A 
ATOM     13  C   UNL     1      -4.804  -0.202   3.924  0.00  0.00    -0.016 A 
ATOM     14  C   UNL     1      -5.195   0.969   3.229  0.00  0.00    +0.003 A 
ATOM     15  C   UNL     1      -6.412   0.982   2.530  0.00  0.00    +0.010 A 
ATOM     16  C   UNL     1      -7.206  -0.124   2.538  0.00  0.00    +0.001 A 
ATOM     17  C   UNL     1      -6.825  -1.275   3.225  0.00  0.00    +0.001 A 
ATOM     18  C   UNL     1      -5.649  -1.326   3.909  0.00  0.00    +0.008 A 
ENDBRANCH   7   9
ENDBRANCH   2   5
BRANCH   1  19
ATOM     19  N   UNL     1      -3.533   7.350   0.258  0.00  0.00    -0.268 N 
ATOM     20  H   UNL     1      -4.572   7.705   0.308  0.00  0.00    +0.170 HD
BRANCH  19  22
ATOM     21  C   UNL     1      -3.047   9.300  -1.084  0.00  0.00    +0.062 C 
ATOM     22  C   UNL     1      -2.645   8.053  -0.340  0.00  0.00    +0.024 C 
ATOM     23  C   UNL     1      -1.198   7.633  -0.300  0.00  0.00    +0.087 C 
BRANCH  23  24
ATOM     24  C   UNL     1      -1.066   6.363   0.501  0.00  0.00    +0.243 C 
ATOM     25  O   UNL     1      -2.050   5.850   0.991  0.00  0.00    -0.270 OA
ATOM     26  N   UNL     1       0.145   5.798   0.673  0.00  0.00    -0.282 N 
ATOM     27  H   UNL     1       1.047   6.306   0.301  0.00  0.00    +0.155 HD
BRANCH  26  28
ATOM     28  C   UNL     1       0.256   4.564   1.323  0.00  0.00    +0.036 A 
ATOM     29  C   UNL     1      -0.596   4.253   2.375  0.00  0.00    +0.043 A 
ATOM     30  C   UNL     1      -0.485   3.034   3.016  0.00  0.00    +0.044 A 
ATOM     31  C   UNL     1       0.475   2.123   2.611  0.00  0.00    +0.040 A 
ATOM     32  C   UNL     1       1.329   2.432   1.567  0.00  0.00    +0.044 A 
ATOM     33  C   UNL     1       1.218   3.648   0.918  0.00  0.00    +0.043 A 
ATOM     34 CL   UNL     1       2.537   1.290   1.067  0.00  0.00    -0.083 Cl
ATOM     35 CL   UNL     1      -1.550   2.645   4.331  0.00  0.00    -0.083 Cl
ENDBRANCH  26  28
ENDBRANCH  23  24
ENDBRANCH  19  22
ENDBRANCH   1  19
TORSDOF 6
