REMARK  Name = ZINC57531377
REMARK  10 active torsions:
REMARK  status: ('A' for Active; 'I' for Inactive)
REMARK    1  A    between atoms: C_1  and  O_2
REMARK    2  A    between atoms: O_2  and  C_3
REMARK    3  A    between atoms: C_5  and  C_12
REMARK    4  A    between atoms: C_7  and  O_10
REMARK    5  A    between atoms: C_8  and  O_9
REMARK    6  A    between atoms: O_10  and  C_11
REMARK    7  A    between atoms: C_14  and  C_26
REMARK    8  A    between atoms: C_16  and  C_21
REMARK    9  A    between atoms: C_16  and  O_25
REMARK   10  A    between atoms: C_26  and  C_28
REMARK                            x       y       z     vdW  Elec       q    Type
REMARK                         _______ _______ _______ _____ _____    ______ ____
ROOT
ATOM      1  C   UNL     1       2.454   0.341   4.196  0.00  0.00    +0.118 C 
ATOM      2  C   UNL     1       1.472   0.487   5.364  0.00  0.00    +0.144 C 
ATOM      3  C   UNL     1       2.179   1.225   6.506  0.00  0.00    +0.241 C 
ATOM      4  N   UNL     1       3.407   0.509   6.854  0.00  0.00    -0.291 N 
ATOM      5  C   UNL     1       4.078  -0.210   5.941  0.00  0.00    +0.133 C 
ATOM      6  S   UNL     1       5.515  -1.009   6.418  0.00  0.00    -0.019 S 
ATOM      7  N   UNL     1       3.668  -0.327   4.668  0.00  0.00    -0.319 N 
ATOM      8  H   UNL     1       3.742   0.555   7.763  0.00  0.00    +0.151 HD
ATOM      9  H   UNL     1       4.186  -0.865   4.050  0.00  0.00    +0.148 HD
ENDROOT
BRANCH   1  12
ATOM     10  C   UNL     1       1.389  -2.616   2.096  0.00  0.00    +0.165 A 
ATOM     11  C   UNL     1       1.972  -1.856   3.099  0.00  0.00    +0.055 A 
ATOM     12  C   UNL     1       1.819  -0.482   3.104  0.00  0.00    -0.019 A 
ATOM     13  C   UNL     1       1.085   0.140   2.112  0.00  0.00    +0.055 A 
ATOM     14  C   UNL     1       0.499  -0.614   1.106  0.00  0.00    +0.165 A 
ATOM     15  C   UNL     1       0.655  -1.994   1.093  0.00  0.00    +0.201 A 
BRANCH  10  17
ATOM     16  C   UNL     1       2.308  -4.538   3.153  0.00  0.00    +0.277 C 
ATOM     17  O   UNL     1       1.541  -3.967   2.091  0.00  0.00    -0.491 OA
ENDBRANCH  10  17
BRANCH  15  18
ATOM     18  O   UNL     1       0.086  -2.736   0.104  0.00  0.00    -0.501 OA
ATOM     19  H   UNL     1      -0.811  -3.035   0.303  0.00  0.00    +0.292 HD
ENDBRANCH  15  18
BRANCH  14  20
ATOM     20  O   UNL     1      -0.224  -0.001   0.130  0.00  0.00    -0.491 OA
ATOM     21  C   UNL     1      -0.338   1.421   0.203  0.00  0.00    +0.277 C 
ENDBRANCH  14  20
ENDBRANCH   1  12
BRANCH   3  22
ATOM     22  C   UNL     1       2.525   2.647   6.058  0.00  0.00    +0.436 C 
ATOM     23  F   UNL     1       1.351   3.328   5.719  0.00  0.00    -0.166 F 
ATOM     24  F   UNL     1       3.170   3.320   7.101  0.00  0.00    -0.166 F 
ATOM     25  F   UNL     1       3.371   2.592   4.945  0.00  0.00    -0.166 F 
ENDBRANCH   3  22
BRANCH   3  26
ATOM     26  O   UNL     1       1.317   1.278   7.645  0.00  0.00    -0.364 OA
ATOM     27  H   UNL     1       1.701   1.733   8.407  0.00  0.00    +0.212 HD
ENDBRANCH   3  26
BRANCH   2  28
ATOM     28  C   UNL     1       1.036  -0.878   5.832  0.00  0.00    +0.173 C 
ATOM     29  O   UNL     1       1.819  -1.803   5.816  0.00  0.00    -0.292 OA
BRANCH  28  30
ATOM     30  C   UNL     1      -0.341  -1.087   6.309  0.00  0.00    +0.018 A 
ATOM     31  C   UNL     1      -1.249  -0.023   6.324  0.00  0.00    +0.011 A 
ATOM     32  C   UNL     1      -2.537  -0.227   6.771  0.00  0.00    +0.001 A 
ATOM     33  C   UNL     1      -2.932  -1.480   7.205  0.00  0.00    +0.000 A 
ATOM     34  C   UNL     1      -2.039  -2.538   7.194  0.00  0.00    +0.001 A 
ATOM     35  C   UNL     1      -0.750  -2.352   6.744  0.00  0.00    +0.011 A 
ENDBRANCH  28  30
ENDBRANCH   2  28
TORSDOF 8
