REMARK  Name = ZINC20681772
REMARK  9 active torsions:
REMARK  status: ('A' for Active; 'I' for Inactive)
REMARK    1  A    between atoms: C_1  and  C_2
REMARK    2  A    between atoms: C_2  and  C_3
REMARK    3  A    between atoms: C_2  and  C_4
REMARK    4  A    between atoms: C_2  and  N_5
REMARK    5  A    between atoms: N_5  and  S_6
REMARK    6  A    between atoms: S_6  and  C_9
REMARK    7  A    between atoms: C_22  and  C_25
REMARK    8  A    between atoms: C_28  and  O_32
REMARK    9  A    between atoms: C_30  and  O_31
REMARK                            x       y       z     vdW  Elec       q    Type
REMARK                         _______ _______ _______ _____ _____    ______ ____
ROOT
ATOM      1  C   UNL     1      -4.605   8.540  -0.697  0.00  0.00    +0.106 A 
ATOM      2  C   UNL     1      -4.184   8.945   0.556  0.00  0.00    +0.030 A 
ATOM      3  C   UNL     1      -3.194   8.246   1.215  0.00  0.00    +0.025 A 
ATOM      4  C   UNL     1      -2.613   7.129   0.626  0.00  0.00    +0.031 A 
ATOM      5  C   UNL     1      -3.054   6.716  -0.636  0.00  0.00    -0.018 A 
ATOM      6  C   UNL     1      -4.038   7.426  -1.289  0.00  0.00    +0.034 A 
ATOM      7  C   UNL     1      -2.443   5.496  -1.207  0.00  0.00    +0.049 C 
ATOM      8  C   UNL     1      -2.353   5.275  -2.673  0.00  0.00    -0.023 C 
ATOM      9  C   UNL     1      -1.265   4.558  -2.928  0.00  0.00    -0.030 C 
ATOM     10  C   UNL     1      -0.513   4.269  -1.627  0.00  0.00    +0.033 C 
ATOM     11  C   UNL     1      -0.949   5.457  -0.770  0.00  0.00    +0.029 C 
ATOM     12  C   UNL     1      -0.972   5.235   0.732  0.00  0.00    +0.108 C 
ATOM     13  N   UNL     1      -1.599   6.445   1.307  0.00  0.00    -0.336 N 
ATOM     14  H   UNL     1      -1.270   6.822   2.287  0.00  0.00    +0.147 HD
ENDROOT
BRANCH  12  15
ATOM     15  C   UNL     1       0.432   5.077   1.256  0.00  0.00    +0.015 A 
ATOM     16  C   UNL     1       1.081   6.155   1.828  0.00  0.00    +0.012 A 
ATOM     17  C   UNL     1       2.368   6.014   2.310  0.00  0.00    +0.046 A 
ATOM     18  C   UNL     1       3.013   4.788   2.220  0.00  0.00    +0.120 A 
ATOM     19  C   UNL     1       2.365   3.706   1.647  0.00  0.00    +0.091 A 
ATOM     20  C   UNL     1       1.075   3.851   1.160  0.00  0.00    +0.125 A 
BRANCH  20  21
ATOM     21  O   UNL     1       0.439   2.793   0.592  0.00  0.00    -0.506 OA
ATOM     22  H   UNL     1       0.948   1.821   0.516  0.00  0.00    +0.292 HD
ENDBRANCH  20  21
BRANCH  18  23
ATOM     23  O   UNL     1       4.279   4.650   2.694  0.00  0.00    -0.507 OA
ATOM     24  H   UNL     1       4.790   3.678   2.623  0.00  0.00    +0.292 HD
ENDBRANCH  18  23
ENDBRANCH  12  15
BRANCH   1  25
ATOM     25  S   UNL     1      -5.864   9.441  -1.539  0.00  0.00    +0.059 S 
ATOM     26  O   UNL     1      -6.663   8.484  -2.219  0.00  0.00    -0.153 OA
ATOM     27  O   UNL     1      -6.406  10.357  -0.597  0.00  0.00    -0.153 OA
BRANCH  25  28
ATOM     28  N   UNL     1      -5.118  10.349  -2.706  0.00  0.00    -0.185 NA
ATOM     29  H   UNL     1      -5.424  10.231  -3.756  0.00  0.00    +0.149 HD
BRANCH  28  31
ATOM     30  C   UNL     1      -3.097  10.901  -1.444  0.00  0.00    +0.029 C 
ATOM     31  C   UNL     1      -4.225  11.446  -2.322  0.00  0.00    +0.032 C 
ATOM     32  C   UNL     1      -3.631  12.083  -3.580  0.00  0.00    +0.029 C 
ATOM     33  C   UNL     1      -5.016  12.498  -1.542  0.00  0.00    +0.029 C 
ENDBRANCH  28  31
ENDBRANCH  25  28
ENDBRANCH   1  25
TORSDOF 6
