REMARK  Name = ZINC36581405
REMARK  18 active torsions:
REMARK  status: ('A' for Active; 'I' for Inactive)
REMARK    1  A    between atoms: C_1  and  C_2
REMARK    2  A    between atoms: C_4  and  C_15
REMARK    3  A    between atoms: C_12  and  C_13
REMARK    4  A    between atoms: C_12  and  C_14
REMARK    5  A    between atoms: N_17  and  C_18
REMARK    6  A    between atoms: N_17  and  C_36
REMARK    7  A    between atoms: C_18  and  C_20
REMARK    8  A    between atoms: C_18  and  C_29
REMARK    9  A    between atoms: C_21  and  O_28
REMARK   10  A    between atoms: C_23  and  O_27
REMARK   11  A    between atoms: C_25  and  O_26
REMARK   12  A    between atoms: N_31  and  C_32
REMARK   13  A    between atoms: C_32  and  C_33
REMARK   14  A    between atoms: C_32  and  C_34
REMARK   15  A    between atoms: C_32  and  C_35
REMARK   16  A    between atoms: C_36  and  C_37
REMARK   17  A    between atoms: C_36  and  C_38
REMARK   18  A    between atoms: C_36  and  C_39
REMARK                            x       y       z     vdW  Elec       q    Type
REMARK                         _______ _______ _______ _____ _____    ______ ____
ROOT
ATOM      1  C   UNL     1      -1.311  -2.908  -4.351  0.00  0.00    +0.200 C 
ENDROOT
BRANCH   1   2
ATOM      2  C   UNL     1      -2.575  -2.789  -3.540  0.00  0.00    +0.065 A 
ATOM      3  C   UNL     1      -3.064  -1.537  -3.198  0.00  0.00    +0.129 A 
ATOM      4  C   UNL     1      -4.228  -1.428  -2.451  0.00  0.00    +0.091 A 
ATOM      5  C   UNL     1      -4.902  -2.570  -2.046  0.00  0.00    +0.124 A 
ATOM      6  C   UNL     1      -4.413  -3.822  -2.389  0.00  0.00    +0.091 A 
ATOM      7  C   UNL     1      -3.252  -3.931  -3.139  0.00  0.00    +0.129 A 
BRANCH   7   8
ATOM      8  O   UNL     1      -2.775  -5.157  -3.479  0.00  0.00    -0.506 OA
ATOM      9  H   UNL     1      -2.161  -5.534  -2.833  0.00  0.00    +0.292 HD
ENDBRANCH   7   8
BRANCH   5  10
ATOM     10  O   UNL     1      -6.041  -2.463  -1.313  0.00  0.00    -0.507 OA
ATOM     11  H   UNL     1      -6.847  -2.414  -1.845  0.00  0.00    +0.292 HD
ENDBRANCH   5  10
BRANCH   3  12
ATOM     12  O   UNL     1      -2.404  -0.418  -3.594  0.00  0.00    -0.506 OA
ATOM     13  H   UNL     1      -2.740  -0.033  -4.415  0.00  0.00    +0.292 HD
ENDBRANCH   3  12
ENDBRANCH   1   2
BRANCH   1  14
ATOM     14  C   UNL     1      -1.434  -2.071  -5.599  0.00  0.00    +0.239 C 
ATOM     15  O   UNL     1      -0.708  -1.113  -5.761  0.00  0.00    -0.273 OA
ATOM     16  N   UNL     1      -2.352  -2.387  -6.534  0.00  0.00    -0.309 N 
ATOM     17  H   UNL     1      -2.933  -3.153  -6.404  0.00  0.00    +0.149 HD
BRANCH  16  18
ATOM     18  C   UNL     1      -2.472  -1.573  -7.746  0.00  0.00    +0.026 C 
ATOM     19  C   UNL     1      -1.146  -1.595  -8.508  0.00  0.00    +0.031 C 
ATOM     20  C   UNL     1      -3.580  -2.143  -8.635  0.00  0.00    +0.031 C 
ATOM     21  C   UNL     1      -2.817  -0.133  -7.362  0.00  0.00    +0.031 C 
ENDBRANCH  16  18
ENDBRANCH   1  14
BRANCH   1  24
ATOM     22  C   UNL     1      -0.381  -1.893  -2.341  0.00  0.00    +0.220 C 
ATOM     23  O   UNL     1      -1.479  -1.954  -1.828  0.00  0.00    -0.275 OA
ATOM     24  N   UNL     1      -0.174  -2.435  -3.557  0.00  0.00    -0.280 N 
BRANCH  22  27
ATOM     25  C   UNL     1       0.794   1.185  -0.816  0.00  0.00    +0.008 C 
ATOM     26  C   UNL     1       0.222  -0.211  -0.597  0.00  0.00    +0.001 C 
ATOM     27  C   UNL     1       0.752  -1.211  -1.617  0.00  0.00    +0.079 C 
ATOM     28  C   UNL     1       1.702  -2.237  -1.011  0.00  0.00    +0.017 C 
ATOM     29  C   UNL     1       1.448  -2.445   0.484  0.00  0.00    -0.004 C 
ATOM     30  C   UNL     1      -0.013  -2.207   0.900  0.00  0.00    +0.008 C 
ATOM     31  C   UNL     1       0.370  -0.705   0.837  0.00  0.00    -0.001 C 
ATOM     32  C   UNL     1       1.754  -1.166   1.289  0.00  0.00    -0.029 C 
ATOM     33  C   UNL     1       2.960  -0.375   0.791  0.00  0.00    +0.011 C 
ATOM     34  C   UNL     1       1.853  -1.424   2.804  0.00  0.00    +0.011 C 
ENDBRANCH  22  27
BRANCH  24  35
ATOM     35  C   UNL     1       1.187  -2.552  -4.085  0.00  0.00    +0.030 C 
ATOM     36  C   UNL     1       1.817  -3.855  -3.588  0.00  0.00    +0.031 C 
ATOM     37  C   UNL     1       1.143  -2.557  -5.614  0.00  0.00    +0.031 C 
ATOM     38  C   UNL     1       2.025  -1.365  -3.603  0.00  0.00    +0.031 C 
ENDBRANCH  24  35
ENDBRANCH   1  24
TORSDOF 9
