REMARK  Name = ZINC04160708
REMARK  7 active torsions:
REMARK  status: ('A' for Active; 'I' for Inactive)
REMARK    1  A    between atoms: C_1  and  C_2
REMARK    2  A    between atoms: C_5  and  C_33
REMARK    3  A    between atoms: C_9  and  C_14
REMARK    4  A    between atoms: C_14  and  C_16
REMARK    5  A    between atoms: C_14  and  N_63
REMARK    6  A    between atoms: N_20  and  C_21
REMARK    7  A    between atoms: C_29  and  C_32
REMARK                            x       y       z     vdW  Elec       q    Type
REMARK                         _______ _______ _______ _____ _____    ______ ____
ROOT
ATOM      1  C   UNL     1      -0.018   1.503   0.010  0.00  0.00    +0.039 C 
ENDROOT
BRANCH   1  10
ATOM      2  C   UNL     1       3.680  -2.154   0.274  0.00  0.00    +0.044 C 
ATOM      3  C   UNL     1       2.355  -2.864   0.166  0.00  0.00    -0.041 A 
ATOM      4  C   UNL     1       2.307  -4.229   0.153  0.00  0.00    +0.004 A 
ATOM      5  C   UNL     1       1.092  -4.893   0.055  0.00  0.00    +0.005 A 
ATOM      6  C   UNL     1      -0.089  -4.188  -0.033  0.00  0.00    -0.026 A 
ATOM      7  C   UNL     1      -0.065  -2.797  -0.022  0.00  0.00    +0.052 A 
ATOM      8  C   UNL     1       1.169  -2.128   0.078  0.00  0.00    +0.002 A 
ATOM      9  C   UNL     1       1.184  -0.664   0.084  0.00  0.00    +0.018 A 
ATOM     10  C   UNL     1       0.002  -0.004   0.002  0.00  0.00    +0.011 A 
ATOM     11  C   UNL     1      -1.208  -0.723  -0.097  0.00  0.00    +0.251 A 
ATOM     12  O   UNL     1      -2.259  -0.110  -0.175  0.00  0.00    -0.268 OA
ATOM     13  N   UNL     1      -1.232  -2.067  -0.108  0.00  0.00    -0.322 N 
ATOM     14  H   UNL     1      -2.108  -2.545  -0.179  0.00  0.00    +0.169 HD
ATOM     15  C   UNL     1      -1.401  -4.921  -0.141  0.00  0.00    +0.046 C 
ENDBRANCH   1  10
BRANCH   1  22
ATOM     16  C   UNL     1      -0.128   1.453  -2.408  0.00  0.00    -0.077 C 
ATOM     17  C   UNL     1      -0.977   1.861  -3.613  0.00  0.00    -0.018 C 
ATOM     18  C   UNL     1      -1.053   3.389  -3.685  0.00  0.00    -0.001 C 
ATOM     19  C   UNL     1      -1.637   3.925  -2.375  0.00  0.00    -0.031 C 
ATOM     20  C   UNL     1      -0.769   3.457  -1.206  0.00  0.00    -0.074 C 
ATOM     21  C   UNL     1      -1.661   5.454  -2.414  0.00  0.00    +0.005 C 
ATOM     22  N   UNL     1      -0.757   1.979  -1.177  0.00  0.00    +0.389 N 
ATOM     23  H   UNL     1      -1.724   1.639  -1.127  0.00  0.00    -0.080 HD
ENDBRANCH   1  22
BRANCH   1  24
ATOM     24  C   UNL     1      -0.724   1.989   1.250  0.00  0.00    +0.143 A 
ATOM     25  N   UNL     1      -2.015   1.974   1.472  0.00  0.00    -0.115 NA
ATOM     26  N   UNL     1      -2.224   2.472   2.642  0.00  0.00    -0.023 NA
ATOM     27  N   UNL     1      -1.098   2.804   3.172  0.00  0.00    -0.044 NA
ATOM     28  N   UNL     1      -0.149   2.517   2.347  0.00  0.00    -0.227 N 
BRANCH  28  29
ATOM     29  C   UNL     1       1.284   2.729   2.562  0.00  0.00    +0.111 C 
ATOM     30  C   UNL     1       1.746   1.978   3.827  0.00  0.00    +0.027 C 
ATOM     31  C   UNL     1       2.793   2.923   4.469  0.00  0.00    +0.002 C 
ATOM     32  C   UNL     1       2.187   4.326   4.216  0.00  0.00    +0.002 C 
ATOM     33  C   UNL     1       1.565   4.222   2.808  0.00  0.00    +0.027 C 
ENDBRANCH  28  29
ENDBRANCH   1  24
TORSDOF 4
