REMARK  Name = ZINC67474055
REMARK  6 active torsions:
REMARK  status: ('A' for Active; 'I' for Inactive)
REMARK    1  A    between atoms: C_3  and  S_26
REMARK    2  A    between atoms: C_6  and  C_7
REMARK    3  A    between atoms: C_8  and  C_9
REMARK    4  A    between atoms: N_11  and  C_12
REMARK    5  A    between atoms: N_21  and  C_23
REMARK    6  A    between atoms: S_26  and  N_29
REMARK                            x       y       z     vdW  Elec       q    Type
REMARK                         _______ _______ _______ _____ _____    ______ ____
ROOT
ATOM      1  C   UNL     1      -2.494  -2.862   0.011  0.00  0.00    +0.237 C 
ATOM      2  O   UNL     1      -3.558  -2.271   0.025  0.00  0.00    -0.271 OA
ATOM      3  N   UNL     1      -2.472  -4.210   0.004  0.00  0.00    -0.309 N 
ATOM      4  H   UNL     1      -1.624  -4.681  -0.007  0.00  0.00    +0.149 HD
ENDROOT
BRANCH   3   5
ATOM      5  C   UNL     1      -3.725  -4.962   0.012  0.00  0.00    +0.076 C 
ATOM      6  C   UNL     1      -4.240  -5.153  -1.416  0.00  0.00    -0.007 C 
ATOM      7  C   UNL     1      -5.602  -5.838  -1.374  0.00  0.00    +0.003 C 
ATOM      8  C   UNL     1      -5.574  -7.158  -0.620  0.00  0.00    +0.001 C 
ATOM      9  C   UNL     1      -4.846  -7.074   0.712  0.00  0.00    +0.003 C 
ATOM     10  C   UNL     1      -3.507  -6.354   0.609  0.00  0.00    -0.007 C 
ATOM     11  C   UNL     1      -2.511  -7.138  -0.231  0.00  0.00    -0.073 C 
ATOM     12  N   UNL     1      -2.889  -7.233  -1.637  0.00  0.00    +0.382 N 
ATOM     13  C   UNL     1      -3.237  -5.950  -2.236  0.00  0.00    -0.073 C 
ATOM     14  H   UNL     1      -3.645  -7.890  -1.751  0.00  0.00    -0.081 HD
BRANCH  12  15
ATOM     15  C   UNL     1      -1.748  -7.787  -2.378  0.00  0.00    -0.069 C 
ATOM     16  C   UNL     1      -2.012  -8.988  -3.288  0.00  0.00    -0.017 C 
ATOM     17  C   UNL     1      -1.250  -9.176  -1.974  0.00  0.00    -0.017 C 
ENDBRANCH  12  15
ENDBRANCH   3   5
BRANCH   1  19
ATOM     18  C   UNL     1      -1.260  -0.761   0.011  0.00  0.00    +0.013 C 
ATOM     19  C   UNL     1      -1.238  -2.109   0.003  0.00  0.00    +0.068 C 
BRANCH  18  25
ATOM     20  C   UNL     1      -0.017   1.394   0.010  0.00  0.00    +0.010 A 
ATOM     21  C   UNL     1       1.170   2.096   0.002  0.00  0.00    +0.029 A 
ATOM     22  C   UNL     1       2.378   1.421  -0.013  0.00  0.00    +0.105 A 
ATOM     23  C   UNL     1       2.405   0.037  -0.021  0.00  0.00    +0.029 A 
ATOM     24  C   UNL     1       1.226  -0.679  -0.013  0.00  0.00    +0.010 A 
ATOM     25  C   UNL     1       0.002  -0.004   0.002  0.00  0.00    -0.025 A 
BRANCH  22  26
ATOM     26  S   UNL     1       3.889   2.327  -0.024  0.00  0.00    +0.056 S 
ATOM     27  O   UNL     1       4.872   1.470  -0.589  0.00  0.00    -0.153 OA
ATOM     28  O   UNL     1       3.591   3.606  -0.566  0.00  0.00    -0.153 OA
BRANCH  26  29
ATOM     29  N   UNL     1       4.325   2.571   1.555  0.00  0.00    -0.204 NA
ATOM     30  H   UNL     1       3.767   2.228   2.270  0.00  0.00    +0.144 HD
ATOM     31  H   UNL     1       5.138   3.056   1.764  0.00  0.00    +0.144 HD
ENDBRANCH  26  29
ENDBRANCH  22  26
ENDBRANCH  18  25
ENDBRANCH   1  19
TORSDOF 6
