REMARK  Name = ZINC62762319
REMARK  3 active torsions:
REMARK  status: ('A' for Active; 'I' for Inactive)
REMARK    1  A    between atoms: C_6  and  O_7
REMARK    2  A    between atoms: O_7  and  C_8
REMARK    3  A    between atoms: C_14  and  C_16
REMARK                            x       y       z     vdW  Elec       q    Type
REMARK                         _______ _______ _______ _____ _____    ______ ____
ROOT
ATOM      1  C   UNL     1      -1.073  -2.122  -0.110  0.00  0.00    +0.187 C 
ATOM      2  C   UNL     1      -1.087  -2.753   1.284  0.00  0.00    +0.045 C 
ATOM      3  C   UNL     1      -0.989  -4.274   1.156  0.00  0.00    +0.004 C 
ATOM      4  C   UNL     1      -2.179  -4.796   0.348  0.00  0.00    +0.001 C 
ATOM      5  C   UNL     1      -2.165  -4.165  -1.046  0.00  0.00    +0.018 C 
ATOM      6  C   UNL     1      -2.263  -2.643  -0.918  0.00  0.00    +0.143 C 
ENDROOT
BRANCH   6   7
ATOM      7  C   UNL     1      -2.249  -2.022  -2.291  0.00  0.00    +0.363 C 
ATOM      8  O   UNL     1      -2.705  -2.634  -3.241  0.00  0.00    -0.246 OA
ATOM      9  O   UNL     1      -1.782  -0.907  -2.450  0.00  0.00    -0.246 OA
ENDBRANCH   6   7
BRANCH   1  10
ATOM     10  O   UNL     1      -1.165  -0.701   0.010  0.00  0.00    -0.488 OA
BRANCH  10  16
ATOM     11  C   UNL     1       1.178  -0.718   0.422  0.00  0.00    +0.046 A 
ATOM     12  C   UNL     1       2.355  -0.027   0.636  0.00  0.00    +0.018 A 
ATOM     13  C   UNL     1       2.354   1.356   0.650  0.00  0.00    +0.014 A 
ATOM     14  C   UNL     1       1.174   2.051   0.451  0.00  0.00    +0.018 A 
ATOM     15  C   UNL     1      -0.005   1.364   0.237  0.00  0.00    +0.046 A 
ATOM     16  C   UNL     1      -0.006  -0.023   0.221  0.00  0.00    +0.121 A 
ATOM     17  I   UNL     1       4.141   2.401   0.975  0.00  0.00    -0.044 I 
ENDBRANCH  10  16
ENDBRANCH   1  10
TORSDOF 3
