REMARK  Name = ZINC67486958
REMARK  7 active torsions:
REMARK  status: ('A' for Active; 'I' for Inactive)
REMARK    1  A    between atoms: C_1  and  C_2
REMARK    2  A    between atoms: C_5  and  N_9
REMARK    3  A    between atoms: C_6  and  C_8
REMARK    4  A    between atoms: N_12  and  C_13
REMARK    5  A    between atoms: C_13  and  C_15
REMARK    6  A    between atoms: C_13  and  C_16
REMARK    7  A    between atoms: C_23  and  C_25
REMARK                            x       y       z     vdW  Elec       q    Type
REMARK                         _______ _______ _______ _____ _____    ______ ____
ROOT
ATOM      1  N   UNL     1      -1.671  -3.649  -0.604  0.00  0.00    -0.269 N 
ATOM      2  C   UNL     1      -1.409  -4.435  -1.668  0.00  0.00    +0.304 C 
ATOM      3  O   UNL     1      -1.361  -3.953  -2.783  0.00  0.00    -0.252 OA
ATOM      4  N   UNL     1      -1.201  -5.755  -1.495  0.00  0.00    -0.288 N 
ATOM      5  H   UNL     1      -1.640  -4.019   0.292  0.00  0.00    +0.156 HD
ATOM      6  H   UNL     1      -1.240  -6.140  -0.605  0.00  0.00    +0.151 HD
ENDROOT
BRANCH   1  11
ATOM      7  C   UNL     1      -2.956   1.823  -1.370  0.00  0.00    +0.044 C 
ATOM      8  C   UNL     1      -2.614   0.370  -1.167  0.00  0.00    -0.050 A 
ATOM      9  C   UNL     1      -1.720  -0.255  -2.017  0.00  0.00    +0.005 A 
ATOM     10  C   UNL     1      -1.405  -1.587  -1.833  0.00  0.00    +0.024 A 
ATOM     11  C   UNL     1      -1.988  -2.299  -0.793  0.00  0.00    +0.038 A 
ATOM     12  C   UNL     1      -2.886  -1.670   0.058  0.00  0.00    -0.029 A 
ATOM     13  C   UNL     1      -3.192  -0.336  -0.127  0.00  0.00    +0.008 A 
ATOM     14  C   UNL     1      -3.521  -2.439   1.188  0.00  0.00    +0.045 C 
ENDBRANCH   1  11
BRANCH   4  15
ATOM     15  C   UNL     1      -0.917  -6.609  -2.651  0.00  0.00    +0.157 C 
ATOM     16  C   UNL     1       0.581  -6.564  -2.962  0.00  0.00    +0.038 C 
BRANCH  15  17
ATOM     17  C   UNL     1      -1.322  -8.027  -2.339  0.00  0.00    +0.236 C 
ATOM     18  O   UNL     1      -1.532  -8.360  -1.192  0.00  0.00    -0.274 OA
ATOM     19  N   UNL     1      -1.451  -8.925  -3.336  0.00  0.00    -0.297 N 
ATOM     20  C   UNL     1      -1.068  -8.578  -4.711  0.00  0.00    +0.108 C 
ATOM     21  C   UNL     1      -2.252  -8.866  -5.640  0.00  0.00    +0.019 C 
ATOM     22  C   UNL     1      -2.695 -10.320  -5.459  0.00  0.00    +0.003 C 
ATOM     23  C   UNL     1      -3.149 -10.540  -4.015  0.00  0.00    +0.022 C 
ATOM     24  C   UNL     1      -1.971 -10.273  -3.067  0.00  0.00    +0.073 C 
ATOM     25  C   UNL     1      -2.448 -10.358  -1.615  0.00  0.00    +0.028 C 
ENDBRANCH  15  17
ENDBRANCH   4  15
TORSDOF 3
