REMARK  Name = ZINC54440207
REMARK  6 active torsions:
REMARK  status: ('A' for Active; 'I' for Inactive)
REMARK    1  A    between atoms: C_1  and  C_2
REMARK    2  A    between atoms: C_2  and  O_3
REMARK    3  A    between atoms: O_3  and  C_4
REMARK    4  A    between atoms: C_7  and  O_24
REMARK    5  A    between atoms: C_8  and  C_10
REMARK    6  A    between atoms: N_21  and  C_22
REMARK                            x       y       z     vdW  Elec       q    Type
REMARK                         _______ _______ _______ _____ _____    ______ ____
ROOT
ATOM      1  C   UNL     1       2.275  -4.294   3.755  0.00  0.00    +0.196 C 
ATOM      2  N   UNL     1       2.128  -3.375   4.891  0.00  0.00    -0.321 N 
ATOM      3  C   UNL     1       0.910  -3.334   5.559  0.00  0.00    +0.042 A 
ATOM      4  C   UNL     1       0.455  -2.185   6.182  0.00  0.00    +0.043 A 
ATOM      5  C   UNL     1      -0.768  -2.197   6.828  0.00  0.00    +0.043 A 
ATOM      6  C   UNL     1      -1.541  -3.349   6.855  0.00  0.00    +0.021 A 
ATOM      7  C   UNL     1      -1.099  -4.502   6.241  0.00  0.00    +0.016 A 
ATOM      8  C   UNL     1       0.132  -4.505   5.589  0.00  0.00    +0.058 A 
ATOM      9  C   UNL     1       0.655  -5.712   4.925  0.00  0.00    +0.250 C 
ATOM     10  O   UNL     1       0.148  -6.798   5.134  0.00  0.00    -0.270 OA
ATOM     11  N   UNL     1       1.700  -5.598   4.085  0.00  0.00    -0.278 N 
ATOM     12  C   UNL     1       2.271  -6.807   3.487  0.00  0.00    +0.134 C 
ATOM     13 CL   UNL     1      -1.342  -0.758   7.612  0.00  0.00    -0.083 Cl
ATOM     14  H   UNL     1       2.865  -2.809   5.168  0.00  0.00    +0.148 HD
ENDROOT
BRANCH   1  19
ATOM     15  C   UNL     1      -0.384  -3.597   1.161  0.00  0.00    +0.121 A 
ATOM     16  C   UNL     1       0.255  -2.670   0.351  0.00  0.00    +0.049 A 
ATOM     17  C   UNL     1       1.545  -2.271   0.642  0.00  0.00    +0.049 A 
ATOM     18  C   UNL     1       2.201  -2.796   1.746  0.00  0.00    +0.124 A 
ATOM     19  C   UNL     1       1.562  -3.723   2.556  0.00  0.00    +0.036 A 
ATOM     20  C   UNL     1       0.270  -4.118   2.268  0.00  0.00    +0.056 A 
BRANCH  18  21
ATOM     21  O   UNL     1       3.471  -2.404   2.033  0.00  0.00    -0.506 OA
ATOM     22  H   UNL     1       3.523  -1.590   2.553  0.00  0.00    +0.292 HD
ENDBRANCH  18  21
BRANCH  15  23
ATOM     23  O   UNL     1      -1.653  -3.990   0.874  0.00  0.00    -0.492 OA
BRANCH  23  25
ATOM     24  C   UNL     1      -3.681  -3.972  -0.441  0.00  0.00    +0.048 C 
ATOM     25  C   UNL     1      -2.266  -3.413  -0.281  0.00  0.00    +0.225 C 
ENDBRANCH  23  25
ENDBRANCH  15  23
ENDBRANCH   1  19
TORSDOF 4
