REMARK  Name = ZINC01726834
REMARK  7 active torsions:
REMARK  status: ('A' for Active; 'I' for Inactive)
REMARK    1  A    between atoms: C_3  and  O_22
REMARK    2  A    between atoms: C_6  and  C_7
REMARK    3  A    between atoms: C_7  and  C_8
REMARK    4  A    between atoms: C_8  and  C_9
REMARK    5  A    between atoms: N_11  and  N_12
REMARK    6  A    between atoms: C_13  and  C_14
REMARK    7  A    between atoms: C_19  and  O_20
REMARK                            x       y       z     vdW  Elec       q    Type
REMARK                         _______ _______ _______ _____ _____    ______ ____
ROOT
ATOM      1  C   UNL     1       3.441   6.305   0.002  0.00  0.00    +0.232 C 
ATOM      2  O   UNL     1       4.496   5.707  -0.011  0.00  0.00    -0.274 OA
ATOM      3  N   UNL     1       2.279   5.621   0.009  0.00  0.00    -0.207 N 
ATOM      4  H   UNL     1       1.435   6.099   0.020  0.00  0.00    +0.177 HD
ENDROOT
BRANCH   3   5
ATOM      5  N   UNL     1       2.291   4.220   0.002  0.00  0.00    -0.188 NA
ATOM      6  C   UNL     1       1.172   3.562   0.009  0.00  0.00    +0.142 C 
BRANCH   6   7
ATOM      7  C   UNL     1       1.185   2.088   0.002  0.00  0.00    +0.037 A 
ATOM      8  C   UNL     1      -0.017   1.376   0.010  0.00  0.00    +0.028 A 
ATOM      9  C   UNL     1       0.002  -0.004   0.002  0.00  0.00    +0.019 A 
ATOM     10  C   UNL     1       1.208  -0.686  -0.013  0.00  0.00    +0.019 A 
ATOM     11  C   UNL     1       2.403   0.008  -0.020  0.00  0.00    +0.047 A 
ATOM     12  C   UNL     1       2.402   1.394  -0.013  0.00  0.00    +0.126 A 
ATOM     13 BR   UNL     1      -1.625  -0.968   0.012  0.00  0.00    -0.050 Br
BRANCH  12  14
ATOM     14  O   UNL     1       3.576   2.076  -0.021  0.00  0.00    -0.506 OA
ATOM     15  H   UNL     1       3.908   2.278  -0.906  0.00  0.00    +0.292 HD
ENDBRANCH  12  14
ENDBRANCH   6   7
ENDBRANCH   3   5
BRANCH   1  16
ATOM     16  C   UNL     1       3.428   7.812   0.010  0.00  0.00    +0.102 C 
BRANCH  16  17
ATOM     17  C   UNL     1       4.866   8.334  -0.001  0.00  0.00    +0.044 C 
BRANCH  17  23
ATOM     18  C   UNL     1       4.842  10.537  -1.188  0.00  0.00    +0.007 A 
ATOM     19  C   UNL     1       4.825  11.918  -1.183  0.00  0.00    +0.045 A 
ATOM     20  C   UNL     1       4.830  12.607   0.021  0.00  0.00    +0.117 A 
ATOM     21  C   UNL     1       4.847  11.906   1.218  0.00  0.00    +0.045 A 
ATOM     22  C   UNL     1       4.859  10.525   1.208  0.00  0.00    +0.007 A 
ATOM     23  C   UNL     1       4.854   9.841   0.007  0.00  0.00    -0.047 A 
BRANCH  20  24
ATOM     24  O   UNL     1       4.819  13.966   0.028  0.00  0.00    -0.507 OA
ATOM     25  H   UNL     1       5.699  14.367   0.022  0.00  0.00    +0.292 HD
ENDBRANCH  20  24
ENDBRANCH  17  23
ENDBRANCH  16  17
ENDBRANCH   1  16
TORSDOF 7
