REMARK  Name = ZINC32527452
REMARK  10 active torsions:
REMARK  status: ('A' for Active; 'I' for Inactive)
REMARK    1  A    between atoms: C_1  and  C_2
REMARK    2  A    between atoms: C_5  and  C_8
REMARK    3  A    between atoms: C_11  and  N_16
REMARK    4  A    between atoms: C_12  and  C_13
REMARK    5  A    between atoms: C_17  and  C_19
REMARK    6  A    between atoms: C_19  and  C_21
REMARK    7  A    between atoms: C_19  and  N_22
REMARK    8  A    between atoms: C_26  and  C_35
REMARK    9  A    between atoms: C_29  and  C_34
REMARK   10  A    between atoms: C_31  and  C_33
REMARK                            x       y       z     vdW  Elec       q    Type
REMARK                         _______ _______ _______ _____ _____    ______ ____
ROOT
ATOM      1  N   UNL     1      -0.003   1.778  -4.579  0.00  0.00    -0.278 N 
ATOM      2  C   UNL     1      -1.070   2.476  -5.016  0.00  0.00    +0.240 C 
ATOM      3  O   UNL     1      -1.302   3.576  -4.562  0.00  0.00    -0.273 OA
ATOM      4  H   UNL     1       0.207   0.779  -4.990  0.00  0.00    +0.155 HD
ENDROOT
BRANCH   1   8
ATOM      5  C   UNL     1       2.655   2.550  -2.045  0.00  0.00    +0.003 A 
ATOM      6  C   UNL     1       2.126   3.767  -1.758  0.00  0.00    +0.056 A 
ATOM      7  S   UNL     1       0.700   3.853  -2.821  0.00  0.00    -0.081 S 
ATOM      8  C   UNL     1       0.829   2.318  -3.610  0.00  0.00    +0.085 A 
ATOM      9  C   UNL     1       1.963   1.756  -3.041  0.00  0.00    +0.073 A 
BRANCH   5  14
ATOM     10  C   UNL     1       7.414   0.636   0.571  0.00  0.00    +0.044 C 
ATOM     11  C   UNL     1       6.169   1.137  -0.114  0.00  0.00    -0.050 A 
ATOM     12  C   UNL     1       6.154   2.399  -0.680  0.00  0.00    +0.004 A 
ATOM     13  C   UNL     1       5.017   2.863  -1.308  0.00  0.00    +0.009 A 
ATOM     14  C   UNL     1       3.881   2.057  -1.372  0.00  0.00    -0.017 A 
ATOM     15  C   UNL     1       3.900   0.788  -0.794  0.00  0.00    +0.009 A 
ATOM     16  C   UNL     1       5.045   0.333  -0.173  0.00  0.00    +0.004 A 
ENDBRANCH   5  14
BRANCH   9  17
ATOM     17  C   UNL     1       2.441   0.428  -3.433  0.00  0.00    +0.244 C 
ATOM     18  O   UNL     1       2.049  -0.559  -2.838  0.00  0.00    -0.270 OA
ATOM     19  N   UNL     1       3.310   0.299  -4.455  0.00  0.00    -0.325 N 
ATOM     20  H   UNL     1       3.669  -0.699  -4.749  0.00  0.00    +0.145 HD
ATOM     21  H   UNL     1       3.660   1.191  -4.995  0.00  0.00    +0.145 HD
ENDBRANCH   9  17
ENDBRANCH   1   8
BRANCH   2  22
ATOM     22  C   UNL     1      -1.975   1.889  -6.068  0.00  0.00    +0.173 C 
ATOM     23  C   UNL     1      -1.167   1.613  -7.338  0.00  0.00    +0.041 C 
BRANCH  22  24
ATOM     24  N   UNL     1      -3.051   2.835  -6.370  0.00  0.00    -0.296 N 
ATOM     25  C   UNL     1      -2.894   3.722  -7.368  0.00  0.00    +0.253 A 
ATOM     26  O   UNL     1      -1.854   3.722  -8.004  0.00  0.00    -0.268 OA
ATOM     27  C   UNL     1      -3.901   4.654  -7.697  0.00  0.00    +0.074 A 
ATOM     28  C   UNL     1      -5.066   4.673  -7.004  0.00  0.00    -0.036 A 
ATOM     29  C   UNL     1      -5.248   3.712  -5.915  0.00  0.00    +0.002 A 
ATOM     30  C   UNL     1      -4.214   2.799  -5.630  0.00  0.00    +0.056 A 
ATOM     31  C   UNL     1      -4.375   1.886  -4.594  0.00  0.00    -0.026 A 
ATOM     32  C   UNL     1      -5.546   1.876  -3.867  0.00  0.00    +0.008 A 
ATOM     33  C   UNL     1      -6.566   2.773  -4.154  0.00  0.00    -0.050 A 
ATOM     34  C   UNL     1      -6.428   3.683  -5.164  0.00  0.00    +0.013 A 
ATOM     35  C   UNL     1      -7.837   2.743  -3.345  0.00  0.00    +0.044 C 
ATOM     36  C   UNL     1      -3.276   0.907  -4.271  0.00  0.00    +0.046 C 
ATOM     37  C   UNL     1      -6.150   5.663  -7.346  0.00  0.00    +0.044 C 
ENDBRANCH  22  24
ENDBRANCH   2  22
TORSDOF 5
