REMARK  Name = ZINC36295814
REMARK  5 active torsions:
REMARK  status: ('A' for Active; 'I' for Inactive)
REMARK    1  A    between atoms: C_1  and  C_2
REMARK    2  A    between atoms: C_3  and  S_9
REMARK    3  A    between atoms: S_9  and  N_12
REMARK    4  A    between atoms: N_12  and  C_13
REMARK    5  A    between atoms: C_17  and  N_19
REMARK                            x       y       z     vdW  Elec       q    Type
REMARK                         _______ _______ _______ _____ _____    ______ ____
ROOT
ATOM      1  S   UNL     1      -2.797  -0.150   0.016  0.00  0.00    +0.100 S 
ATOM      2  O   UNL     1      -3.492  -0.955   0.959  0.00  0.00    -0.148 OA
ATOM      3  O   UNL     1      -2.745   1.266   0.116  0.00  0.00    -0.148 OA
ENDROOT
BRANCH   1   6
ATOM      4  C   UNL     1      -0.018   1.503   0.010  0.00  0.00    +0.066 C 
ATOM      5  C   UNL     1       0.002  -0.004   0.002  0.00  0.00    +0.050 A 
ATOM      6  C   UNL     1      -1.129  -0.716   0.004  0.00  0.00    +0.171 A 
ATOM      7  S   UNL     1      -0.508  -2.388  -0.008  0.00  0.00    -0.006 S 
ATOM      8  C   UNL     1       1.138  -2.048  -0.015  0.00  0.00    +0.290 A 
ATOM      9  O   UNL     1       2.072  -2.830  -0.024  0.00  0.00    -0.260 OA
ATOM     10  N   UNL     1       1.176  -0.699  -0.013  0.00  0.00    -0.318 N 
ATOM     11  H   UNL     1       2.025  -0.230  -0.020  0.00  0.00    +0.169 HD
ENDBRANCH   1   6
BRANCH   1  12
ATOM     12  N   UNL     1      -3.443  -0.496  -1.469  0.00  0.00    -0.097 NA
BRANCH  12  13
ATOM     13  C   UNL     1      -4.769  -0.157  -1.751  0.00  0.00    +0.076 A 
ATOM     14  C   UNL     1      -5.545   0.475  -0.787  0.00  0.00    +0.029 A 
ATOM     15  C   UNL     1      -6.856   0.812  -1.065  0.00  0.00    +0.042 A 
ATOM     16  C   UNL     1      -7.401   0.519  -2.302  0.00  0.00    +0.144 A 
ATOM     17  C   UNL     1      -6.629  -0.114  -3.270  0.00  0.00    +0.062 A 
ATOM     18  C   UNL     1      -5.311  -0.447  -2.995  0.00  0.00    +0.052 A 
ATOM     19  F   UNL     1      -8.684   0.848  -2.570  0.00  0.00    -0.204 F 
BRANCH  17  20
ATOM     20  N   UNL     1      -7.180  -0.411  -4.521  0.00  0.00    -0.356 N 
ATOM     21  H   UNL     1      -8.101  -0.174  -4.714  0.00  0.00    +0.142 HD
ATOM     22  H   UNL     1      -6.641  -0.852  -5.196  0.00  0.00    +0.142 HD
ENDBRANCH  17  20
ENDBRANCH  12  13
ENDBRANCH   1  12
TORSDOF 4
