REMARK  Name = ZINC20463765
REMARK  10 active torsions:
REMARK  status: ('A' for Active; 'I' for Inactive)
REMARK    1  A    between atoms: C_1  and  N_2
REMARK    2  A    between atoms: N_5  and  C_21
REMARK    3  A    between atoms: C_6  and  C_14
REMARK    4  A    between atoms: N_10  and  C_13
REMARK    5  A    between atoms: C_21  and  C_22
REMARK    6  A    between atoms: C_21  and  C_24
REMARK    7  A    between atoms: C_21  and  C_26
REMARK    8  A    between atoms: C_22  and  O_23
REMARK    9  A    between atoms: C_24  and  O_25
REMARK   10  A    between atoms: C_26  and  O_27
REMARK                            x       y       z     vdW  Elec       q    Type
REMARK                         _______ _______ _______ _____ _____    ______ ____
ROOT
ATOM      1  C   UNL     1       6.802   6.201   0.712  0.00  0.00    +0.154 C 
ATOM      2  N   UNL     1       5.498   5.811   1.253  0.00  0.00    -0.295 N 
ATOM      3  C   UNL     1       4.532   5.249   0.411  0.00  0.00    +0.076 A 
ATOM      4  C   UNL     1       4.462   4.934  -0.894  0.00  0.00    +0.113 A 
ATOM      5  N   UNL     1       3.231   4.394  -1.163  0.00  0.00    -0.331 N 
ATOM      6  C   UNL     1       2.478   4.350  -0.027  0.00  0.00    +0.065 A 
ATOM      7  C   UNL     1       3.236   4.879   1.002  0.00  0.00    +0.089 A 
ATOM      8  C   UNL     1       3.045   5.127   2.433  0.00  0.00    +0.266 A 
ATOM      9  O   UNL     1       1.997   4.841   2.981  0.00  0.00    -0.267 OA
ATOM     10  N   UNL     1       4.060   5.682   3.129  0.00  0.00    -0.263 N 
ATOM     11  C   UNL     1       5.226   6.008   2.556  0.00  0.00    +0.332 A 
ATOM     12  O   UNL     1       6.090   6.503   3.253  0.00  0.00    -0.246 OA
ATOM     13  C   UNL     1       3.881   5.935   4.560  0.00  0.00    +0.157 C 
ENDROOT
BRANCH   6  14
ATOM     14  C   UNL     1       1.099   3.837   0.083  0.00  0.00    +0.013 A 
ATOM     15  C   UNL     1       0.871   2.470   0.260  0.00  0.00    +0.011 A 
ATOM     16  C   UNL     1      -0.421   1.997   0.362  0.00  0.00    +0.001 A 
ATOM     17  C   UNL     1      -1.490   2.872   0.285  0.00  0.00    +0.001 A 
ATOM     18  C   UNL     1      -1.273   4.227   0.116  0.00  0.00    +0.016 A 
ATOM     19  C   UNL     1       0.014   4.715   0.011  0.00  0.00    +0.027 A 
ATOM     20 BR   UNL     1       0.309   6.568  -0.229  0.00  0.00    -0.050 Br
ENDBRANCH   6  14
BRANCH   5  21
ATOM     21  C   UNL     1       2.789   3.932  -2.480  0.00  0.00    +0.114 C 
BRANCH  21  22
ATOM     22  C   UNL     1       2.546   2.422  -2.435  0.00  0.00    +0.188 C 
BRANCH  22  23
ATOM     23  O   UNL     1       3.758   1.755  -2.079  0.00  0.00    -0.393 OA
ATOM     24  H   UNL     1       3.778   0.658  -1.996  0.00  0.00    +0.209 HD
ENDBRANCH  22  23
ENDBRANCH  21  22
BRANCH  21  25
ATOM     25  C   UNL     1       1.491   4.646  -2.862  0.00  0.00    +0.188 C 
BRANCH  25  26
ATOM     26  O   UNL     1       1.708   6.059  -2.868  0.00  0.00    -0.393 OA
ATOM     27  H   UNL     1       0.883   6.741  -3.121  0.00  0.00    +0.209 HD
ENDBRANCH  25  26
ENDBRANCH  21  25
BRANCH  21  28
ATOM     28  C   UNL     1       3.867   4.244  -3.519  0.00  0.00    +0.188 C 
BRANCH  28  29
ATOM     29  O   UNL     1       3.436   3.793  -4.804  0.00  0.00    -0.393 OA
ATOM     30  H   UNL     1       4.084   3.932  -5.682  0.00  0.00    +0.209 HD
ENDBRANCH  28  29
ENDBRANCH  21  28
ENDBRANCH   5  21
TORSDOF 8
