REMARK  Name = ZINC57011254
REMARK  7 active torsions:
REMARK  status: ('A' for Active; 'I' for Inactive)
REMARK    1  A    between atoms: C_1  and  C_2
REMARK    2  A    between atoms: C_5  and  N_26
REMARK    3  A    between atoms: C_7  and  S_8
REMARK    4  A    between atoms: S_8  and  N_11
REMARK    5  A    between atoms: N_11  and  C_12
REMARK    6  A    between atoms: N_21  and  C_23
REMARK    7  A    between atoms: C_27  and  C_29
REMARK                            x       y       z     vdW  Elec       q    Type
REMARK                         _______ _______ _______ _____ _____    ______ ____
ROOT
ATOM      1  S   UNL     1      -0.088   0.302   3.050  0.00  0.00    +0.059 S 
ATOM      2  O   UNL     1      -1.212   1.171   3.013  0.00  0.00    -0.153 OA
ATOM      3  O   UNL     1       0.110  -0.642   4.092  0.00  0.00    -0.153 OA
ENDROOT
BRANCH   1  10
ATOM      4  C   UNL     1       1.989  -1.755   2.284  0.00  0.00    +0.046 C 
ATOM      5  C   UNL     1       0.889  -1.531   1.279  0.00  0.00    -0.024 A 
ATOM      6  C   UNL     1       0.874  -2.252   0.099  0.00  0.00    +0.007 A 
ATOM      7  C   UNL     1      -0.133  -2.049  -0.824  0.00  0.00    +0.023 A 
ATOM      8  C   UNL     1      -1.132  -1.119  -0.565  0.00  0.00    +0.035 A 
ATOM      9  C   UNL     1      -1.115  -0.397   0.621  0.00  0.00    +0.052 A 
ATOM     10  C   UNL     1      -0.107  -0.609   1.542  0.00  0.00    +0.110 A 
BRANCH   8  11
ATOM     11  N   UNL     1      -2.154  -0.911  -1.498  0.00  0.00    -0.286 N 
ATOM     12  C   UNL     1      -2.612  -1.941  -2.237  0.00  0.00    +0.214 C 
ATOM     13  O   UNL     1      -2.206  -3.065  -2.029  0.00  0.00    -0.276 OA
ATOM     14  C   UNL     1      -3.629  -1.696  -3.322  0.00  0.00    +0.109 C 
ATOM     15  H   UNL     1      -2.532  -0.025  -1.614  0.00  0.00    +0.155 HD
ENDBRANCH   8  11
ENDBRANCH   1  10
BRANCH   1  16
ATOM     16  N   UNL     1       1.257   1.267   3.022  0.00  0.00    -0.186 NA
ATOM     17  H   UNL     1       1.957   1.143   3.683  0.00  0.00    +0.148 HD
BRANCH  16  18
ATOM     18  C   UNL     1       1.391   2.306   2.003  0.00  0.00    +0.079 C 
ATOM     19  C   UNL     1       2.245   1.804   0.836  0.00  0.00    -0.009 C 
ATOM     20  C   UNL     1       3.614   1.367   1.339  0.00  0.00    +0.003 C 
ATOM     21  C   UNL     1       4.336   2.456   2.115  0.00  0.00    +0.001 C 
ATOM     22  C   UNL     1       3.454   3.154   3.138  0.00  0.00    +0.003 C 
ATOM     23  C   UNL     1       2.089   3.538   2.582  0.00  0.00    -0.009 C 
ATOM     24  C   UNL     1       2.201   4.612   1.508  0.00  0.00    -0.073 C 
ATOM     25  N   UNL     1       2.887   4.149   0.306  0.00  0.00    +0.382 N 
ATOM     26  C   UNL     1       2.357   2.896  -0.220  0.00  0.00    -0.073 C 
ATOM     27  H   UNL     1       3.876   4.066   0.478  0.00  0.00    -0.081 HD
BRANCH  25  28
ATOM     28  C   UNL     1       2.732   5.179  -0.730  0.00  0.00    -0.069 C 
ATOM     29  C   UNL     1       3.998   5.665  -1.438  0.00  0.00    -0.017 C 
ATOM     30  C   UNL     1       3.289   6.572  -0.431  0.00  0.00    -0.017 C 
ENDBRANCH  25  28
ENDBRANCH  16  18
ENDBRANCH   1  16
TORSDOF 5
