REMARK  Name = ZINC42439503
REMARK  3 active torsions:
REMARK  status: ('A' for Active; 'I' for Inactive)
REMARK    1  A    between atoms: C_1  and  C_2
REMARK    2  A    between atoms: C_6  and  C_21
REMARK    3  A    between atoms: C_16  and  C_18
REMARK                            x       y       z     vdW  Elec       q    Type
REMARK                         _______ _______ _______ _____ _____    ______ ____
ROOT
ATOM      1  C   UNL     1       0.057   1.492  -0.056  0.00  0.00    +0.028 C 
ATOM      2  C   UNL     1      -0.060  -0.030   0.048  0.00  0.00    +0.074 C 
ATOM      3  C   UNL     1       0.481  -0.676  -1.232  0.00  0.00    +0.023 C 
ATOM      4  C   UNL     1       0.490  -2.197  -1.066  0.00  0.00    +0.016 C 
ATOM      5  C   UNL     1       1.411  -2.580   0.095  0.00  0.00    +0.092 C 
ATOM      6  C   UNL     1       0.880  -1.957   1.389  0.00  0.00    +0.122 C 
ATOM      7  N   UNL     1       0.728  -0.508   1.192  0.00  0.00    -0.282 N 
ATOM      8  C   UNL     1       1.304   0.365   2.042  0.00  0.00    +0.306 C 
ATOM      9  O   UNL     1       1.075   1.555   1.939  0.00  0.00    -0.252 OA
ATOM     10  N   UNL     1       2.134  -0.080   3.006  0.00  0.00    -0.272 N 
ATOM     11  C   UNL     1       2.679  -1.446   3.107  0.00  0.00    +0.110 C 
ATOM     12  C   UNL     1       3.982  -1.294   3.931  0.00  0.00    +0.021 C 
ATOM     13  C   UNL     1       3.577  -0.200   4.954  0.00  0.00    +0.036 C 
ATOM     14  C   UNL     1       2.651   0.718   4.127  0.00  0.00    +0.190 C 
ENDROOT
BRANCH   5  15
ATOM     15  C   UNL     1       2.802  -2.069  -0.177  0.00  0.00    +0.215 C 
ATOM     16  O   UNL     1       3.035  -1.458  -1.199  0.00  0.00    -0.276 OA
ATOM     17  N   UNL     1       3.788  -2.291   0.715  0.00  0.00    -0.329 N 
ATOM     18  H   UNL     1       3.602  -2.780   1.532  0.00  0.00    +0.145 HD
ATOM     19  H   UNL     1       4.684  -1.962   0.540  0.00  0.00    +0.145 HD
ENDBRANCH   5  15
BRANCH  14  20
ATOM     20  C   UNL     1       1.509   1.196   4.986  0.00  0.00    +0.376 C 
ATOM     21  O   UNL     1       0.492   0.530   5.074  0.00  0.00    -0.244 OA
ATOM     22  O   UNL     1       1.602   2.249   5.593  0.00  0.00    -0.244 OA
ENDBRANCH  14  20
TORSDOF 2
