REMARK  Name = ZINC13500079
REMARK  11 active torsions:
REMARK  status: ('A' for Active; 'I' for Inactive)
REMARK    1  A    between atoms: C_1  and  C_2
REMARK    2  A    between atoms: C_2  and  C_3
REMARK    3  A    between atoms: C_3  and  C_4
REMARK    4  A    between atoms: C_4  and  C_6
REMARK    5  A    between atoms: C_4  and  N_75
REMARK    6  A    between atoms: N_10  and  C_11
REMARK    7  A    between atoms: C_16  and  C_17
REMARK    8  A    between atoms: C_16  and  N_75
REMARK    9  A    between atoms: C_21  and  C_30
REMARK   10  A    between atoms: C_23  and  C_29
REMARK   11  A    between atoms: C_31  and  N_75
REMARK                            x       y       z     vdW  Elec       q    Type
REMARK                         _______ _______ _______ _____ _____    ______ ____
ROOT
ATOM      1  N   UNL     1       0.689  -2.161  -1.241  0.00  0.00    +0.391 N 
ATOM      2  H   UNL     1      -0.329  -2.209  -1.119  0.00  0.00    -0.080 HD
ENDROOT
BRANCH   1   3
ATOM      3  C   UNL     1       1.131  -0.765  -1.037  0.00  0.00    -0.067 C 
ATOM      4  C   UNL     1       2.624  -0.625  -1.344  0.00  0.00    -0.015 C 
ATOM      5  C   UNL     1       3.055   0.827  -1.127  0.00  0.00    -0.002 C 
ATOM      6  C   UNL     1       2.255   1.741  -2.057  0.00  0.00    -0.000 C 
ATOM      7  C   UNL     1       0.762   1.600  -1.750  0.00  0.00    -0.002 C 
ATOM      8  C   UNL     1       0.331   0.148  -1.967  0.00  0.00    -0.015 C 
ENDBRANCH   1   3
BRANCH   1   9
ATOM      9  C   UNL     1       1.030  -2.603  -2.610  0.00  0.00    +0.003 C 
BRANCH   9  10
ATOM     10  C   UNL     1       2.504  -2.898  -2.717  0.00  0.00    +0.138 A 
ATOM     11  N   UNL     1       3.229  -3.584  -1.867  0.00  0.00    -0.115 NA
ATOM     12  N   UNL     1       4.438  -3.616  -2.310  0.00  0.00    -0.023 NA
ATOM     13  N   UNL     1       4.506  -2.961  -3.417  0.00  0.00    -0.044 NA
ATOM     14  N   UNL     1       3.333  -2.503  -3.701  0.00  0.00    -0.228 N 
BRANCH  14  15
ATOM     15  C   UNL     1       2.972  -1.703  -4.874  0.00  0.00    +0.111 C 
ATOM     16  C   UNL     1       3.322  -2.472  -6.165  0.00  0.00    +0.027 C 
ATOM     17  C   UNL     1       3.821  -1.373  -7.137  0.00  0.00    +0.002 C 
ATOM     18  C   UNL     1       4.617  -0.426  -6.205  0.00  0.00    +0.002 C 
ATOM     19  C   UNL     1       3.795  -0.403  -4.899  0.00  0.00    +0.027 C 
ENDBRANCH  14  15
ENDBRANCH   9  10
BRANCH   9  20
ATOM     20  C   UNL     1       0.232  -3.869  -2.930  0.00  0.00    -0.008 C 
BRANCH  20  22
ATOM     21  C   UNL     1      -2.064  -4.834  -3.119  0.00  0.00    +0.004 C 
ATOM     22  C   UNL     1      -1.263  -3.546  -2.917  0.00  0.00    -0.005 C 
ENDBRANCH  20  22
ENDBRANCH   9  20
ENDBRANCH   1   9
BRANCH   1  23
ATOM     23  C   UNL     1       1.334  -3.046  -0.249  0.00  0.00    -0.036 C 
BRANCH  23  24
ATOM     24  C   UNL     1       0.619  -2.895   1.069  0.00  0.00    +0.001 A 
ATOM     25  C   UNL     1      -0.392  -3.739   1.390  0.00  0.00    +0.017 A 
ATOM     26  C   UNL     1      -1.062  -3.568   2.681  0.00  0.00    -0.001 A 
ATOM     27  C   UNL     1      -2.110  -4.411   3.069  0.00  0.00    +0.013 A 
ATOM     28  C   UNL     1      -2.719  -4.221   4.277  0.00  0.00    -0.050 A 
ATOM     29  C   UNL     1      -2.308  -3.200   5.122  0.00  0.00    +0.008 A 
ATOM     30  C   UNL     1      -1.279  -2.358   4.761  0.00  0.00    -0.026 A 
ATOM     31  C   UNL     1      -0.643  -2.532   3.535  0.00  0.00    +0.052 A 
ATOM     32  N   UNL     1       0.388  -1.703   3.148  0.00  0.00    -0.322 N 
ATOM     33  H   UNL     1       0.676  -0.990   3.738  0.00  0.00    +0.169 HD
ATOM     34  C   UNL     1       1.001  -1.871   1.963  0.00  0.00    +0.251 A 
ATOM     35  O   UNL     1       1.909  -1.119   1.652  0.00  0.00    -0.268 OA
ATOM     36  C   UNL     1      -0.843  -1.254   5.689  0.00  0.00    +0.046 C 
ATOM     37  C   UNL     1      -3.846  -5.129   4.695  0.00  0.00    +0.044 C 
ENDBRANCH  23  24
ENDBRANCH   1  23
TORSDOF 8
