REMARK  Name = ZINC00664985
REMARK  12 active torsions:
REMARK  status: ('A' for Active; 'I' for Inactive)
REMARK    1  A    between atoms: C_1  and  C_2
REMARK    2  A    between atoms: C_2  and  C_3
REMARK    3  A    between atoms: N_9  and  C_32
REMARK    4  A    between atoms: C_11  and  C_12
REMARK    5  A    between atoms: C_16  and  C_27
REMARK    6  A    between atoms: C_17  and  N_19
REMARK    7  A    between atoms: N_19  and  C_20
REMARK    8  A    between atoms: C_23  and  C_26
REMARK    9  A    between atoms: C_27  and  O_29
REMARK   10  A    between atoms: O_29  and  C_30
REMARK   11  A    between atoms: C_30  and  C_31
REMARK   12  A    between atoms: C_32  and  C_33
REMARK                            x       y       z     vdW  Elec       q    Type
REMARK                         _______ _______ _______ _____ _____    ______ ____
ROOT
ATOM      1  C   UNL     1      -2.606   1.313   0.539  0.00  0.00    +0.029 C 
ATOM      2  C   UNL     1      -2.842   0.005   0.240  0.00  0.00    +0.062 C 
ATOM      3  C   UNL     1      -4.090  -0.622  -0.214  0.00  0.00    +0.209 C 
ATOM      4  O   UNL     1      -5.123   0.007  -0.384  0.00  0.00    -0.286 OA
ATOM      5  C   UNL     1      -3.991  -2.042  -0.446  0.00  0.00    +0.134 C 
ATOM      6  C   UNL     1      -2.757  -2.650  -0.208  0.00  0.00    +0.088 C 
ATOM      7  S   UNL     1      -1.715  -1.372   0.311  0.00  0.00    -0.069 S 
ENDROOT
BRANCH   1  16
ATOM      8  C   UNL     1       1.319   4.235   1.470  0.00  0.00    -0.024 A 
ATOM      9  C   UNL     1       0.711   5.458   1.288  0.00  0.00    +0.005 A 
ATOM     10  C   UNL     1      -0.632   5.537   0.950  0.00  0.00    +0.001 A 
ATOM     11  C   UNL     1      -1.377   4.388   0.790  0.00  0.00    +0.010 A 
ATOM     12  C   UNL     1      -0.775   3.146   0.970  0.00  0.00    +0.007 A 
ATOM     13  C   UNL     1       0.584   3.064   1.312  0.00  0.00    +0.053 A 
ATOM     14  N   UNL     1       0.905   1.727   1.423  0.00  0.00    -0.337 N 
ATOM     15  C   UNL     1      -0.181   0.956   1.168  0.00  0.00    +0.095 A 
ATOM     16  C   UNL     1      -1.253   1.753   0.875  0.00  0.00    +0.001 A 
BRANCH   8  18
ATOM     17  C   UNL     1       3.616   3.984   0.570  0.00  0.00    +0.009 C 
ATOM     18  C   UNL     1       2.779   4.165   1.837  0.00  0.00    +0.034 C 
ENDBRANCH   8  18
BRANCH  14  19
ATOM     19  C   UNL     1       2.233   1.212   1.768  0.00  0.00    +0.217 C 
BRANCH  19  20
ATOM     20  C   UNL     1       2.386   1.183   3.267  0.00  0.00    +0.230 C 
ATOM     21  O   UNL     1       1.476   1.555   3.977  0.00  0.00    -0.274 OA
ATOM     22  N   UNL     1       3.535   0.743   3.818  0.00  0.00    -0.328 N 
ATOM     23  H   UNL     1       4.262   0.445   3.250  0.00  0.00    +0.145 HD
ATOM     24  H   UNL     1       3.633   0.724   4.783  0.00  0.00    +0.145 HD
ENDBRANCH  19  20
ENDBRANCH  14  19
ENDBRANCH   1  16
BRANCH   6  25
ATOM     25  N   UNL     1      -2.441  -3.975  -0.356  0.00  0.00    -0.308 N 
ATOM     26  H   UNL     1      -3.135  -4.620  -0.562  0.00  0.00    +0.153 HD
BRANCH  25  27
ATOM     27  C   UNL     1      -1.116  -4.397  -0.208  0.00  0.00    +0.032 A 
ATOM     28  C   UNL     1      -0.077  -3.614  -0.694  0.00  0.00    +0.023 A 
ATOM     29  C   UNL     1       1.230  -4.032  -0.542  0.00  0.00    +0.005 A 
ATOM     30  C   UNL     1       1.505  -5.234   0.084  0.00  0.00    -0.050 A 
ATOM     31  C   UNL     1       0.473  -6.019   0.565  0.00  0.00    +0.005 A 
ATOM     32  C   UNL     1      -0.837  -5.604   0.421  0.00  0.00    +0.023 A 
ATOM     33  C   UNL     1       2.933  -5.690   0.242  0.00  0.00    +0.044 C 
ENDBRANCH  25  27
ENDBRANCH   6  25
BRANCH   5  34
ATOM     34  C   UNL     1      -5.108  -2.795  -0.891  0.00  0.00    +0.345 C 
ATOM     35  O   UNL     1      -5.001  -3.993  -1.074  0.00  0.00    -0.245 OA
BRANCH  34  36
ATOM     36  O   UNL     1      -6.289  -2.182  -1.113  0.00  0.00    -0.461 OA
BRANCH  36  37
ATOM     37  C   UNL     1      -7.371  -3.000  -1.561  0.00  0.00    +0.229 C 
ATOM     38  C   UNL     1      -8.618  -2.136  -1.756  0.00  0.00    +0.048 C 
ENDBRANCH  36  37
ENDBRANCH  34  36
ENDBRANCH   5  34
TORSDOF 9
