REMARK  Name = ZINC04149545
REMARK  5 active torsions:
REMARK  status: ('A' for Active; 'I' for Inactive)
REMARK    1  A    between atoms: C_1  and  O_2
REMARK    2  A    between atoms: O_2  and  C_3
REMARK    3  A    between atoms: C_5  and  C_11
REMARK    4  A    between atoms: C_8  and  O_9
REMARK    5  A    between atoms: N_12  and  N_13
REMARK                            x       y       z     vdW  Elec       q    Type
REMARK                         _______ _______ _______ _____ _____    ______ ____
ROOT
ATOM      1  C   UNL     1      -4.855   0.227   0.038  0.00  0.00    +0.138 C 
ATOM      2  N   UNL     1      -6.002  -0.382   0.045  0.00  0.00    -0.188 NA
ENDROOT
BRANCH   2   3
ATOM      3  N   UNL     1      -7.190   0.360   0.055  0.00  0.00    -0.207 N 
ATOM      4  C   UNL     1      -8.407  -0.287   0.063  0.00  0.00    +0.214 A 
ATOM      5  N   UNL     1      -9.626   0.332   0.067  0.00  0.00    -0.325 N 
ATOM      6  H   UNL     1      -9.785   1.288   0.066  0.00  0.00    +0.169 HD
ATOM      7  C   UNL     1     -10.590  -0.662   0.074  0.00  0.00    +0.067 A 
ATOM      8  C   UNL     1     -11.977  -0.655   0.082  0.00  0.00    +0.028 A 
ATOM      9  C   UNL     1     -12.669  -1.848   0.088  0.00  0.00    +0.002 A 
ATOM     10  C   UNL     1     -11.988  -3.057   0.088  0.00  0.00    +0.002 A 
ATOM     11  C   UNL     1     -10.611  -3.082   0.081  0.00  0.00    +0.030 A 
ATOM     12  C   UNL     1      -9.895  -1.882   0.074  0.00  0.00    +0.091 A 
ATOM     13  N   UNL     1      -8.569  -1.587   0.061  0.00  0.00    -0.213 NA
ATOM     14  H   UNL     1      -7.156   1.329   0.056  0.00  0.00    +0.177 HD
ENDBRANCH   2   3
BRANCH   1  17
ATOM     15  C   UNL     1      -1.201  -0.638   0.010  0.00  0.00    +0.163 A 
ATOM     16  C   UNL     1      -2.371   0.100   0.019  0.00  0.00    +0.059 A 
ATOM     17  C   UNL     1      -3.605  -0.554   0.027  0.00  0.00    -0.001 A 
ATOM     18  C   UNL     1      -3.652  -1.951   0.026  0.00  0.00    +0.028 A 
ATOM     19  C   UNL     1      -2.481  -2.680   0.016  0.00  0.00    +0.063 A 
ATOM     20  C   UNL     1      -1.255  -2.030   0.003  0.00  0.00    +0.173 A 
ATOM     21 BR   UNL     1      -2.546  -4.570   0.014  0.00  0.00    -0.046 Br
BRANCH  15  23
ATOM     22  C   UNL     1      -0.017   1.425   0.010  0.00  0.00    +0.277 C 
ATOM     23  O   UNL     1       0.002  -0.004   0.002  0.00  0.00    -0.491 OA
ENDBRANCH  15  23
BRANCH  20  24
ATOM     24  O   UNL     1      -0.103  -2.753  -0.012  0.00  0.00    -0.503 OA
ATOM     25  H   UNL     1       0.238  -2.967   0.867  0.00  0.00    +0.292 HD
ENDBRANCH  20  24
ENDBRANCH   1  17
TORSDOF 4
