REMARK  Name = ZINC13951439
REMARK  6 active torsions:
REMARK  status: ('A' for Active; 'I' for Inactive)
REMARK    1  A    between atoms: C_1  and  O_2
REMARK    2  A    between atoms: O_2  and  C_3
REMARK    3  A    between atoms: C_3  and  C_5
REMARK    4  A    between atoms: C_5  and  N_6
REMARK    5  A    between atoms: N_17  and  C_18
REMARK    6  A    between atoms: C_18  and  C_20
REMARK                            x       y       z     vdW  Elec       q    Type
REMARK                         _______ _______ _______ _____ _____    ______ ____
ROOT
ATOM      1  N   UNL     1      -3.587   1.664   0.028  0.00  0.00    -0.309 N 
ATOM      2  C   UNL     1      -4.638   0.799  -0.220  0.00  0.00    +0.077 A 
ATOM      3  C   UNL     1      -4.299  -0.562  -0.204  0.00  0.00    +0.042 A 
ATOM      4  C   UNL     1      -5.221  -1.555  -0.431  0.00  0.00    +0.037 A 
ATOM      5  C   UNL     1      -6.540  -1.218  -0.687  0.00  0.00    +0.044 A 
ATOM      6  C   UNL     1      -6.905   0.118  -0.709  0.00  0.00    +0.042 A 
ATOM      7  C   UNL     1      -5.982   1.113  -0.481  0.00  0.00    +0.067 A 
ATOM      8 CL   UNL     1      -6.484   2.774  -0.519  0.00  0.00    -0.081 Cl
ATOM      9 CL   UNL     1      -7.722  -2.456  -0.977  0.00  0.00    -0.083 Cl
ATOM     10  S   UNL     1      -2.558  -0.543   0.144  0.00  0.00    -0.052 S 
ATOM     11  C   UNL     1      -2.342   1.174   0.262  0.00  0.00    +0.167 A 
ATOM     12  N   UNL     1      -1.223   1.849   0.515  0.00  0.00    -0.156 NA
ENDROOT
BRANCH  12  13
ATOM     13  C   UNL     1      -0.084   1.196   0.721  0.00  0.00    +0.241 C 
ATOM     14  O   UNL     1      -0.064  -0.019   0.678  0.00  0.00    -0.273 OA
BRANCH  13  15
ATOM     15  C   UNL     1       1.183   1.961   1.002  0.00  0.00    +0.077 C 
ATOM     16  C   UNL     1       2.273   1.941  -0.073  0.00  0.00    +0.013 C 
ATOM     17  C   UNL     1       2.463   1.151   1.224  0.00  0.00    +0.013 C 
ENDBRANCH  13  15
ENDBRANCH  12  13
BRANCH   1  18
ATOM     18  C   UNL     1      -3.818   3.111   0.038  0.00  0.00    +0.244 C 
BRANCH  18  19
ATOM     19  C   UNL     1      -3.781   3.635  -1.375  0.00  0.00    +0.327 C 
ATOM     20  O   UNL     1      -3.582   2.877  -2.295  0.00  0.00    -0.249 OA
BRANCH  19  22
ATOM     21  C   UNL     1      -3.920   5.377  -2.995  0.00  0.00    +0.280 C 
ATOM     22  O   UNL     1      -3.968   4.943  -1.610  0.00  0.00    -0.467 OA
ENDBRANCH  19  22
ENDBRANCH  18  19
ENDBRANCH   1  18
TORSDOF 5
