REMARK  Name = ZINC01123417
REMARK  5 active torsions:
REMARK  status: ('A' for Active; 'I' for Inactive)
REMARK    1  A    between atoms: C_5  and  C_7
REMARK    2  A    between atoms: N_9  and  C_10
REMARK    3  A    between atoms: C_10  and  N_12
REMARK    4  A    between atoms: N_12  and  C_13
REMARK    5  A    between atoms: C_14  and  C_21
REMARK                            x       y       z     vdW  Elec       q    Type
REMARK                         _______ _______ _______ _____ _____    ______ ____
ROOT
ATOM      1  N   UNL     1       1.422   2.099  -2.484  0.00  0.00    -0.291 N 
ATOM      2  H   UNL     1       0.599   1.611  -2.641  0.00  0.00    +0.154 HD
ENDROOT
BRANCH   1   3
ATOM      3  C   UNL     1       1.850   2.337  -1.187  0.00  0.00    +0.084 A 
ATOM      4  C   UNL     1       1.245   1.963   0.001  0.00  0.00    +0.068 A 
ATOM      5  C   UNL     1       1.905   2.349   1.248  0.00  0.00    -0.023 A 
ATOM      6  C   UNL     1       3.057   3.027   1.097  0.00  0.00    -0.004 A 
ATOM      7  S   UNL     1       3.269   3.175  -0.660  0.00  0.00    -0.077 S 
ATOM      8  C   UNL     1       3.681   3.379   2.421  0.00  0.00    +0.043 C 
ATOM      9  C   UNL     1       2.986   2.448   3.439  0.00  0.00    +0.010 C 
ATOM     10  C   UNL     1       1.639   2.172   2.743  0.00  0.00    +0.037 C 
BRANCH   4  11
ATOM     11  C   UNL     1      -0.014   1.213   0.009  0.00  0.00    +0.244 C 
ATOM     12  O   UNL     1       0.002  -0.004   0.002  0.00  0.00    -0.270 OA
ATOM     13  N   UNL     1      -1.191   1.871   0.018  0.00  0.00    -0.325 N 
ATOM     14  H   UNL     1      -2.024   1.375   0.019  0.00  0.00    +0.145 HD
ATOM     15  H   UNL     1      -1.204   2.841   0.023  0.00  0.00    +0.145 HD
ENDBRANCH   4  11
ENDBRANCH   1   3
BRANCH   1  16
ATOM     16  C   UNL     1       2.151   2.545  -3.526  0.00  0.00    +0.141 C 
ATOM     17  S   UNL     1       3.605   3.405  -3.249  0.00  0.00    -0.018 S 
BRANCH  16  20
ATOM     18  C   UNL     1       2.464   2.759  -5.830  0.00  0.00    +0.251 C 
ATOM     19  O   UNL     1       3.496   3.370  -5.633  0.00  0.00    -0.270 OA
ATOM     20  N   UNL     1       1.735   2.313  -4.787  0.00  0.00    -0.264 N 
ATOM     21  H   UNL     1       0.911   1.826  -4.944  0.00  0.00    +0.157 HD
BRANCH  18  26
ATOM     22  C   UNL     1       0.404   1.569  -8.734  0.00  0.00    +0.001 A 
ATOM     23  C   UNL     1       1.154   2.028  -9.803  0.00  0.00    +0.001 A 
ATOM     24  C   UNL     1       2.329   2.724  -9.584  0.00  0.00    +0.016 A 
ATOM     25  C   UNL     1       2.761   2.966  -8.294  0.00  0.00    +0.030 A 
ATOM     26  C   UNL     1       2.008   2.505  -7.212  0.00  0.00    +0.051 A 
ATOM     27  C   UNL     1       0.826   1.798  -7.442  0.00  0.00    +0.014 A 
ATOM     28 BR   UNL     1       4.368   3.917  -7.996  0.00  0.00    -0.050 Br
ENDBRANCH  18  26
ENDBRANCH  16  20
ENDBRANCH   1  16
TORSDOF 5
