REMARK  Name = ZINC39665069
REMARK  6 active torsions:
REMARK  status: ('A' for Active; 'I' for Inactive)
REMARK    1  A    between atoms: C_3  and  C_6
REMARK    2  A    between atoms: C_10  and  S_19
REMARK    3  A    between atoms: N_12  and  C_13
REMARK    4  A    between atoms: S_19  and  C_20
REMARK    5  A    between atoms: C_20  and  C_21
REMARK    6  A    between atoms: C_29  and  C_33
REMARK                            x       y       z     vdW  Elec       q    Type
REMARK                         _______ _______ _______ _____ _____    ______ ____
ROOT
ATOM      1  C   UNL     1       3.599   0.625  -0.029  0.00  0.00    +0.086 C 
ATOM      2  N   UNL     1       4.141   1.787   0.711  0.00  0.00    -0.264 NA
ATOM      3  N   UNL     1       4.401   1.272   2.064  0.00  0.00    -0.261 NA
ATOM      4  C   UNL     1       4.901  -0.104   1.809  0.00  0.00    +0.078 C 
ATOM      5  N   UNL     1       4.085  -0.584   0.669  0.00  0.00    +0.414 N 
ATOM      6  H   UNL     1       3.474   2.544   0.734  0.00  0.00    +0.139 HD
ATOM      7  H   UNL     1       5.098   1.829   2.535  0.00  0.00    +0.140 HD
ATOM      8  H   UNL     1       3.303  -1.126   1.006  0.00  0.00    -0.075 HD
ENDROOT
BRANCH   5   9
ATOM      9  C   UNL     1       4.909  -1.393  -0.238  0.00  0.00    -0.062 C 
ATOM     10  C   UNL     1       4.073  -1.814  -1.449  0.00  0.00    -0.015 C 
ATOM     11  C   UNL     1       4.932  -2.657  -2.393  0.00  0.00    -0.002 C 
ATOM     12  C   UNL     1       5.427  -3.903  -1.657  0.00  0.00    -0.000 C 
ATOM     13  C   UNL     1       6.263  -3.482  -0.447  0.00  0.00    -0.002 C 
ATOM     14  C   UNL     1       5.404  -2.639   0.498  0.00  0.00    -0.015 C 
ENDBRANCH   5   9
BRANCH   1  17
ATOM     15  C   UNL     1      -0.016   1.341   0.009  0.00  0.00    +0.041 A 
ATOM     16  C   UNL     1       1.331   1.769  -0.001  0.00  0.00    +0.044 A 
ATOM     17  C   UNL     1       2.092   0.660  -0.014  0.00  0.00    +0.106 A 
ATOM     18  O   UNL     1       1.282  -0.411  -0.012  0.00  0.00    -0.468 OA
ATOM     19  C   UNL     1       0.002  -0.004   0.002  0.00  0.00    +0.195 A 
ENDBRANCH   1  17
BRANCH   4  20
ATOM     20  S   UNL     1       4.642  -1.154   3.266  0.00  0.00    -0.152 S 
BRANCH  20  21
ATOM     21  C   UNL     1       2.849  -1.093   3.537  0.00  0.00    +0.143 C 
BRANCH  21  22
ATOM     22  C   UNL     1       2.493  -1.935   4.735  0.00  0.00    +0.120 A 
ATOM     23  N   UNL     1       1.187  -2.020   5.098  0.00  0.00    -0.310 N 
ATOM     24  H   UNL     1       0.514  -1.544   4.587  0.00  0.00    +0.170 HD
ATOM     25  C   UNL     1       0.815  -2.764   6.165  0.00  0.00    +0.259 A 
ATOM     26  O   UNL     1      -0.351  -2.849   6.501  0.00  0.00    -0.267 OA
ATOM     27  C   UNL     1       1.878  -3.467   6.905  0.00  0.00    +0.065 A 
ATOM     28  C   UNL     1       1.598  -4.258   8.018  0.00  0.00    +0.016 A 
ATOM     29  C   UNL     1       2.614  -4.892   8.675  0.00  0.00    +0.016 A 
ATOM     30  C   UNL     1       3.938  -4.755   8.239  0.00  0.00    +0.065 A 
ATOM     31  C   UNL     1       4.239  -3.970   7.132  0.00  0.00    +0.043 A 
ATOM     32  C   UNL     1       3.207  -3.318   6.453  0.00  0.00    +0.079 A 
ATOM     33  N   UNL     1       3.450  -2.546   5.364  0.00  0.00    -0.233 NA
BRANCH  30  34
ATOM     34  C   UNL     1       5.024  -5.450   8.963  0.00  0.00    +0.387 C 
ATOM     35  O   UNL     1       4.765  -6.141   9.938  0.00  0.00    -0.241 OA
ATOM     36  O   UNL     1       6.181  -5.333   8.587  0.00  0.00    -0.241 OA
ENDBRANCH  30  34
ENDBRANCH  21  22
ENDBRANCH  20  21
ENDBRANCH   4  20
TORSDOF 6
