REMARK  Name = ZINC00644780
REMARK  5 active torsions:
REMARK  status: ('A' for Active; 'I' for Inactive)
REMARK    1  A    between atoms: C_6  and  C_7
REMARK    2  A    between atoms: C_8  and  C_17
REMARK    3  A    between atoms: C_12  and  N_13
REMARK    4  A    between atoms: N_14  and  C_15
REMARK    5  A    between atoms: N_19  and  C_20
REMARK                            x       y       z     vdW  Elec       q    Type
REMARK                         _______ _______ _______ _____ _____    ______ ____
ROOT
ATOM      1  C   UNL     1      -1.201  -0.709   0.346  0.00  0.00    +0.052 A 
ATOM      2  C   UNL     1      -0.009   0.008   0.164  0.00  0.00    +0.140 A 
ATOM      3  N   UNL     1       1.125  -0.666  -0.029  0.00  0.00    -0.208 NA
ATOM      4  C   UNL     1       1.137  -1.987  -0.039  0.00  0.00    +0.230 A 
ATOM      5  N   UNL     1       0.035  -2.705   0.128  0.00  0.00    -0.199 NA
ATOM      6  C   UNL     1      -1.138  -2.118   0.321  0.00  0.00    +0.130 A 
ATOM      7  N   UNL     1       2.343  -2.645  -0.238  0.00  0.00    -0.221 N 
ATOM      8  H   UNL     1       3.159  -2.136  -0.362  0.00  0.00    +0.167 HD
ENDROOT
BRANCH   1  14
ATOM      9  C   UNL     1      -2.686   0.757   1.708  0.00  0.00    +0.010 A 
ATOM     10  C   UNL     1      -3.884   1.413   1.898  0.00  0.00    +0.020 A 
ATOM     11  C   UNL     1      -4.893   1.304   0.955  0.00  0.00    +0.041 A 
ATOM     12  C   UNL     1      -4.703   0.543  -0.185  0.00  0.00    +0.020 A 
ATOM     13  C   UNL     1      -3.507  -0.113  -0.388  0.00  0.00    +0.010 A 
ATOM     14  C   UNL     1      -2.487  -0.008   0.558  0.00  0.00    -0.012 A 
ATOM     15 CL   UNL     1      -6.401   2.127   1.204  0.00  0.00    -0.084 Cl
ENDBRANCH   1  14
BRANCH   2  16
ATOM     16  C   UNL     1      -0.012   1.489   0.179  0.00  0.00    +0.267 C 
ATOM     17  O   UNL     1      -1.053   2.093   0.345  0.00  0.00    -0.268 OA
ATOM     18  N   UNL     1       1.140   2.167   0.003  0.00  0.00    -0.280 N 
ATOM     19  H   UNL     1       1.981   1.687  -0.056  0.00  0.00    +0.155 HD
BRANCH  18  20
ATOM     20  C   UNL     1       1.122   3.562  -0.095  0.00  0.00    +0.035 A 
ATOM     21  C   UNL     1       0.045   4.204  -0.693  0.00  0.00    +0.025 A 
ATOM     22  C   UNL     1       0.026   5.582  -0.782  0.00  0.00    +0.023 A 
ATOM     23  C   UNL     1       1.086   6.323  -0.289  0.00  0.00    +0.059 A 
ATOM     24  C   UNL     1       2.164   5.686   0.302  0.00  0.00    +0.061 A 
ATOM     25  C   UNL     1       2.184   4.307   0.400  0.00  0.00    +0.044 A 
ATOM     26 CL   UNL     1       3.491   6.619   0.920  0.00  0.00    -0.082 Cl
ATOM     27 CL   UNL     1       1.062   8.055  -0.411  0.00  0.00    -0.082 Cl
ENDBRANCH  18  20
ENDBRANCH   2  16
BRANCH   6  28
ATOM     28  N   UNL     1      -2.282  -2.876   0.495  0.00  0.00    -0.343 N 
ATOM     29  H   UNL     1      -3.136  -2.438   0.635  0.00  0.00    +0.144 HD
ATOM     30  H   UNL     1      -2.230  -3.844   0.476  0.00  0.00    +0.144 HD
ENDBRANCH   6  28
BRANCH   7  31
ATOM     31  C   UNL     1       2.380  -4.000  -0.258  0.00  0.00    +0.173 C 
ATOM     32  N   UNL     1       2.411  -5.135  -0.275  0.00  0.00    -0.174 NA
ENDBRANCH   7  31
TORSDOF 5
