REMARK  Name = ZINC03130751
REMARK  8 active torsions:
REMARK  status: ('A' for Active; 'I' for Inactive)
REMARK    1  A    between atoms: C_1  and  N_2
REMARK    2  A    between atoms: N_2  and  C_3
REMARK    3  A    between atoms: N_6  and  C_7
REMARK    4  A    between atoms: C_7  and  C_9
REMARK    5  A    between atoms: C_7  and  N_13
REMARK    6  A    between atoms: N_13  and  C_14
REMARK    7  A    between atoms: C_14  and  N_16
REMARK    8  A    between atoms: N_16  and  C_17
REMARK                            x       y       z     vdW  Elec       q    Type
REMARK                         _______ _______ _______ _____ _____    ______ ____
ROOT
ATOM      1  N   UNL     1      -0.007   1.496  -0.402  0.00  0.00    -0.305 N 
ATOM      2  H   UNL     1      -0.840   1.910  -0.128  0.00  0.00    +0.150 HD
ENDROOT
BRANCH   1   3
ATOM      3  C   UNL     1       1.136   2.211  -0.389  0.00  0.00    +0.136 C 
ATOM      4  S   UNL     1       2.606   1.483  -0.879  0.00  0.00    -0.019 S 
BRANCH   3   5
ATOM      5  N   UNL     1       1.122   3.498   0.010  0.00  0.00    -0.297 N 
ATOM      6  H   UNL     1       0.281   3.929   0.229  0.00  0.00    +0.154 HD
BRANCH   5   7
ATOM      7  C   UNL     1       2.320   4.213   0.108  0.00  0.00    +0.033 A 
ATOM      8  C   UNL     1       2.570   5.003   1.223  0.00  0.00    +0.024 A 
ATOM      9  C   UNL     1       3.757   5.703   1.320  0.00  0.00    +0.016 A 
ATOM     10  C   UNL     1       4.691   5.628   0.302  0.00  0.00    +0.013 A 
ATOM     11  C   UNL     1       4.442   4.847  -0.812  0.00  0.00    +0.016 A 
ATOM     12  C   UNL     1       3.260   4.140  -0.912  0.00  0.00    +0.024 A 
ATOM     13  I   UNL     1       6.486   6.698   0.450  0.00  0.00    -0.044 I 
ENDBRANCH   5   7
ENDBRANCH   3   5
ENDBRANCH   1   3
BRANCH   1  14
ATOM     14  C   UNL     1       0.009   0.097  -0.835  0.00  0.00    +0.212 C 
BRANCH  14  20
ATOM     15  C   UNL     1       0.584  -0.504  -5.635  0.00  0.00    +0.133 C 
ATOM     16  N   UNL     1      -0.290  -0.292  -4.479  0.00  0.00    -0.292 N 
ATOM     17  C   UNL     1      -1.739  -0.182  -4.666  0.00  0.00    +0.133 C 
ATOM     18  C   UNL     1       0.238  -0.199  -3.243  0.00  0.00    +0.303 C 
ATOM     19  O   UNL     1       1.441  -0.290  -3.087  0.00  0.00    -0.253 OA
ATOM     20  N   UNL     1      -0.566  -0.004  -2.179  0.00  0.00    -0.277 N 
ATOM     21  H   UNL     1      -1.525   0.069  -2.303  0.00  0.00    +0.152 HD
ENDBRANCH  14  20
BRANCH  14  22
ATOM     22  C   UNL     1      -0.817  -0.747   0.138  0.00  0.00    +0.225 C 
ATOM     23 CL   UNL     1      -2.516  -0.145   0.164  0.00  0.00    -0.080 Cl
ATOM     24 CL   UNL     1      -0.798  -2.469  -0.396  0.00  0.00    -0.080 Cl
ATOM     25 CL   UNL     1      -0.110  -0.623   1.791  0.00  0.00    -0.080 Cl
ENDBRANCH  14  22
ENDBRANCH   1  14
TORSDOF 6
