REMARK  Name = ZINC21327097
REMARK  6 active torsions:
REMARK  status: ('A' for Active; 'I' for Inactive)
REMARK    1  A    between atoms: C_10  and  N_11
REMARK    2  A    between atoms: C_12  and  C_14
REMARK    3  A    between atoms: C_14  and  S_15
REMARK    4  A    between atoms: S_15  and  C_16
REMARK    5  A    between atoms: N_20  and  N_21
REMARK    6  A    between atoms: N_22  and  N_23
REMARK                            x       y       z     vdW  Elec       q    Type
REMARK                         _______ _______ _______ _____ _____    ______ ____
ROOT
ATOM      1  C   UNL     1       0.258  -0.065  -0.027  0.00  0.00    +0.210 A 
ATOM      2  N   UNL     1       1.492  -0.509  -0.042  0.00  0.00    -0.119 NA
ATOM      3  N   UNL     1       2.350   0.599  -0.057  0.00  0.00    -0.109 NA
ATOM      4  C   UNL     1       1.612   1.682  -0.050  0.00  0.00    +0.254 A 
ATOM      5  N   UNL     1       0.300   1.300  -0.031  0.00  0.00    -0.211 N 
ATOM      6  N   UNL     1       2.081   2.989  -0.061  0.00  0.00    -0.204 N 
ATOM      7  H   UNL     1       1.370   3.829  -0.054  0.00  0.00    +0.177 HD
ENDROOT
BRANCH   6   8
ATOM      8  N   UNL     1       3.460   3.238  -0.080  0.00  0.00    -0.189 NA
ATOM      9  C   UNL     1       3.892   4.439  -0.186  0.00  0.00    +0.037 C 
ATOM     10  C   UNL     1       2.935   5.611  -0.180  0.00  0.00    +0.052 C 
ATOM     11  C   UNL     1       3.421   6.626   0.866  0.00  0.00    +0.006 C 
ATOM     12  C   UNL     1       4.874   7.000   0.571  0.00  0.00    +0.001 C 
ATOM     13  C   UNL     1       5.768   5.768   0.721  0.00  0.00    +0.006 C 
ATOM     14  C   UNL     1       5.371   4.721  -0.325  0.00  0.00    +0.052 C 
ENDBRANCH   6   8
BRANCH   5  15
ATOM     15  N   UNL     1      -0.780   2.136  -0.024  0.00  0.00    -0.294 N 
ATOM     16  H   UNL     1      -0.632   3.226  -0.029  0.00  0.00    +0.163 HD
ATOM     17  H   UNL     1      -1.798   1.720  -0.014  0.00  0.00    +0.163 HD
ENDBRANCH   5  15
BRANCH   1  18
ATOM     18  S   UNL     1      -1.199  -1.057  -0.004  0.00  0.00    -0.075 S 
BRANCH  18  19
ATOM     19  C   UNL     1      -0.571  -2.759  -0.008  0.00  0.00    +0.173 C 
BRANCH  19  21
ATOM     20  N   UNL     1      -1.503  -5.050   0.011  0.00  0.00    -0.284 N 
ATOM     21  C   UNL     1      -1.730  -3.722   0.011  0.00  0.00    +0.228 C 
ATOM     22  O   UNL     1      -2.868  -3.301   0.025  0.00  0.00    -0.275 OA
ATOM     23  H   UNL     1      -0.474  -5.432   0.091  0.00  0.00    +0.155 HD
BRANCH  20  33
ATOM     24  C   UNL     1      -2.274  -9.843   1.395  0.00  0.00    +0.001 A 
ATOM     25  C   UNL     1      -1.194  -8.969   1.504  0.00  0.00    +0.001 A 
ATOM     26  C   UNL     1      -1.272  -7.696   1.028  0.00  0.00    +0.010 A 
ATOM     27  C   UNL     1      -2.454  -7.255   0.412  0.00  0.00    +0.003 A 
ATOM     28  C   UNL     1      -3.554  -8.141   0.304  0.00  0.00    -0.016 A 
ATOM     29  C   UNL     1      -3.437  -9.448   0.808  0.00  0.00    +0.008 A 
ATOM     30  C   UNL     1      -4.739  -7.700  -0.308  0.00  0.00    +0.008 A 
ATOM     31  C   UNL     1      -4.825  -6.429  -0.787  0.00  0.00    +0.002 A 
ATOM     32  C   UNL     1      -3.752  -5.548  -0.682  0.00  0.00    +0.024 A 
ATOM     33  C   UNL     1      -2.573  -5.941  -0.088  0.00  0.00    +0.041 A 
ENDBRANCH  20  33
ENDBRANCH  19  21
ENDBRANCH  18  19
ENDBRANCH   1  18
TORSDOF 6
