REMARK  Name = ZINC16577202
REMARK  15 active torsions:
REMARK  status: ('A' for Active; 'I' for Inactive)
REMARK    1  A    between atoms: C_1  and  C_2
REMARK    2  A    between atoms: C_2  and  C_37
REMARK    3  A    between atoms: C_3  and  C_22
REMARK    4  A    between atoms: C_6  and  C_8
REMARK    5  A    between atoms: N_10  and  C_11
REMARK    6  A    between atoms: C_11  and  N_13
REMARK    7  A    between atoms: N_13  and  C_14
REMARK    8  A    between atoms: C_19  and  O_20
REMARK    9  A    between atoms: O_20  and  C_21
REMARK   10  A    between atoms: C_22  and  C_23
REMARK   11  A    between atoms: N_25  and  C_26
REMARK   12  A    between atoms: C_26  and  N_28
REMARK   13  A    between atoms: N_28  and  C_29
REMARK   14  A    between atoms: C_34  and  O_35
REMARK   15  A    between atoms: O_35  and  C_36
REMARK                            x       y       z     vdW  Elec       q    Type
REMARK                         _______ _______ _______ _____ _____    ______ ____
ROOT
ATOM      1  C   UNL     1      -4.061   1.293  10.038  0.00  0.00    +0.012 C 
ATOM      2  C   UNL     1      -4.768   2.277   9.104  0.00  0.00    -0.021 C 
ATOM      3  C   UNL     1      -6.289   2.068   9.025  0.00  0.00    +0.005 C 
ATOM      4  C   UNL     1      -6.016   1.088   7.872  0.00  0.00    +0.018 C 
ATOM      5  C   UNL     1      -4.714   1.867   7.622  0.00  0.00    +0.082 C 
ATOM      6  C   UNL     1      -4.361   3.731   9.352  0.00  0.00    +0.012 C 
ENDROOT
BRANCH   5   7
ATOM      7  C   UNL     1      -4.876   3.023   6.669  0.00  0.00    +0.222 C 
ATOM      8  O   UNL     1      -5.653   3.918   6.928  0.00  0.00    -0.275 OA
ATOM      9  N   UNL     1      -4.158   3.063   5.530  0.00  0.00    -0.267 N 
ATOM     10  H   UNL     1      -3.536   2.348   5.323  0.00  0.00    +0.157 HD
BRANCH   9  11
ATOM     11  C   UNL     1      -4.303   4.097   4.678  0.00  0.00    +0.141 C 
ATOM     12  S   UNL     1      -5.399   5.360   5.043  0.00  0.00    -0.018 S 
BRANCH  11  13
ATOM     13  N   UNL     1      -3.584   4.137   3.538  0.00  0.00    -0.294 N 
ATOM     14  H   UNL     1      -3.003   3.396   3.305  0.00  0.00    +0.154 HD
BRANCH  13  15
ATOM     15  C   UNL     1      -3.676   5.248   2.690  0.00  0.00    +0.075 A 
ATOM     16  C   UNL     1      -3.797   6.523   3.225  0.00  0.00    +0.027 A 
ATOM     17  C   UNL     1      -3.888   7.618   2.387  0.00  0.00    +0.002 A 
ATOM     18  C   UNL     1      -3.858   7.447   1.015  0.00  0.00    +0.004 A 
ATOM     19  C   UNL     1      -3.731   6.181   0.475  0.00  0.00    +0.047 A 
ATOM     20  C   UNL     1      -3.646   5.077   1.308  0.00  0.00    +0.141 A 
BRANCH  20  21
ATOM     21  O   UNL     1      -3.527   3.831   0.778  0.00  0.00    -0.493 OA
ATOM     22  C   UNL     1      -3.503   3.731  -0.647  0.00  0.00    +0.277 C 
ENDBRANCH  20  21
ENDBRANCH  13  15
ENDBRANCH  11  13
ENDBRANCH   9  11
ENDBRANCH   5   7
BRANCH   3  23
ATOM     23  C   UNL     1      -6.881   1.403  10.269  0.00  0.00    +0.100 C 
BRANCH  23  24
ATOM     24  C   UNL     1      -8.376   1.289  10.114  0.00  0.00    +0.219 C 
ATOM     25  O   UNL     1      -8.915   1.699   9.108  0.00  0.00    -0.275 OA
ATOM     26  N   UNL     1      -9.114   0.730  11.093  0.00  0.00    -0.268 N 
ATOM     27  H   UNL     1      -8.684   0.402  11.898  0.00  0.00    +0.156 HD
BRANCH  26  28
ATOM     28  C   UNL     1     -10.451   0.628  10.955  0.00  0.00    +0.141 C 
ATOM     29  S   UNL     1     -11.211   1.207   9.534  0.00  0.00    -0.018 S 
BRANCH  28  30
ATOM     30  N   UNL     1     -11.190   0.070  11.934  0.00  0.00    -0.294 N 
ATOM     31  H   UNL     1     -10.771  -0.184  12.772  0.00  0.00    +0.154 HD
BRANCH  30  32
ATOM     32  C   UNL     1     -12.561  -0.144  11.743  0.00  0.00    +0.075 A 
ATOM     33  C   UNL     1     -13.045  -0.470  10.484  0.00  0.00    +0.027 A 
ATOM     34  C   UNL     1     -14.397  -0.686  10.299  0.00  0.00    +0.002 A 
ATOM     35  C   UNL     1     -15.272  -0.566  11.363  0.00  0.00    +0.004 A 
ATOM     36  C   UNL     1     -14.798  -0.235  12.619  0.00  0.00    +0.047 A 
ATOM     37  C   UNL     1     -13.443  -0.023  12.814  0.00  0.00    +0.141 A 
BRANCH  37  38
ATOM     38  O   UNL     1     -12.975   0.302  14.049  0.00  0.00    -0.493 OA
ATOM     39  C   UNL     1     -13.937   0.408  15.100  0.00  0.00    +0.277 C 
ENDBRANCH  37  38
ENDBRANCH  30  32
ENDBRANCH  28  30
ENDBRANCH  26  28
ENDBRANCH  23  24
ENDBRANCH   3  23
TORSDOF 11
