REMARK  Name = ZINC36561188
REMARK  14 active torsions:
REMARK  status: ('A' for Active; 'I' for Inactive)
REMARK    1  A    between atoms: C_1  and  C_2
REMARK    2  A    between atoms: C_2  and  C_3
REMARK    3  A    between atoms: C_3  and  N_4
REMARK    4  A    between atoms: N_4  and  C_5
REMARK    5  A    between atoms: C_5  and  C_7
REMARK    6  A    between atoms: C_5  and  C_16
REMARK    7  A    between atoms: C_8  and  O_15
REMARK    8  A    between atoms: C_10  and  O_14
REMARK    9  A    between atoms: C_12  and  O_13
REMARK   10  A    between atoms: N_18  and  C_19
REMARK   11  A    between atoms: C_25  and  C_27
REMARK   12  A    between atoms: C_27  and  C_29
REMARK   13  A    between atoms: C_27  and  O_35
REMARK   14  A    between atoms: O_35  and  C_36
REMARK                            x       y       z     vdW  Elec       q    Type
REMARK                         _______ _______ _______ _____ _____    ______ ____
ROOT
ATOM      1  C   UNL     1       0.108  -1.615  -1.689  0.00  0.00    +0.199 C 
ENDROOT
BRANCH   1   2
ATOM      2  C   UNL     1       0.327  -0.795  -2.934  0.00  0.00    +0.065 A 
ATOM      3  C   UNL     1       0.008  -1.322  -4.176  0.00  0.00    +0.129 A 
ATOM      4  C   UNL     1       0.210  -0.567  -5.322  0.00  0.00    +0.091 A 
ATOM      5  C   UNL     1       0.730   0.715  -5.225  0.00  0.00    +0.124 A 
ATOM      6  C   UNL     1       1.048   1.242  -3.983  0.00  0.00    +0.091 A 
ATOM      7  C   UNL     1       0.843   0.489  -2.837  0.00  0.00    +0.129 A 
BRANCH   7   8
ATOM      8  O   UNL     1       1.150   1.007  -1.619  0.00  0.00    -0.506 OA
ATOM      9  H   UNL     1       2.058   0.833  -1.335  0.00  0.00    +0.292 HD
ENDBRANCH   7   8
BRANCH   5  10
ATOM     10  O   UNL     1       0.929   1.454  -6.348  0.00  0.00    -0.507 OA
ATOM     11  H   UNL     1       0.169   1.995  -6.603  0.00  0.00    +0.292 HD
ENDBRANCH   5  10
BRANCH   3  12
ATOM     12  O   UNL     1      -0.502  -2.578  -4.271  0.00  0.00    -0.506 OA
ATOM     13  H   UNL     1      -1.468  -2.608  -4.306  0.00  0.00    +0.292 HD
ENDBRANCH   3  12
ENDBRANCH   1   2
BRANCH   1  14
ATOM     14  C   UNL     1      -0.984  -0.988  -0.860  0.00  0.00    +0.239 C 
ATOM     15  O   UNL     1      -0.773  -0.695   0.298  0.00  0.00    -0.273 OA
ATOM     16  N   UNL     1      -2.193  -0.754  -1.406  0.00  0.00    -0.311 N 
ATOM     17  H   UNL     1      -2.362  -0.988  -2.332  0.00  0.00    +0.149 HD
BRANCH  16  18
ATOM     18  C   UNL     1      -3.255  -0.144  -0.600  0.00  0.00    +0.073 C 
ATOM     19  C   UNL     1      -3.985  -1.233   0.189  0.00  0.00    +0.022 C 
ATOM     20  C   UNL     1      -5.093  -0.597   1.030  0.00  0.00    +0.002 C 
ATOM     21  C   UNL     1      -6.085   0.118   0.111  0.00  0.00    +0.000 C 
ATOM     22  C   UNL     1      -5.355   1.207  -0.679  0.00  0.00    +0.002 C 
ATOM     23  C   UNL     1      -4.247   0.571  -1.520  0.00  0.00    +0.022 C 
ENDBRANCH  16  18
ENDBRANCH   1  14
BRANCH   1  24
ATOM     24  N   UNL     1       1.348  -1.661  -0.909  0.00  0.00    -0.283 N 
ATOM     25  C   UNL     1       2.348  -2.484  -1.282  0.00  0.00    +0.250 C 
ATOM     26  O   UNL     1       2.184  -3.260  -2.199  0.00  0.00    -0.272 OA
BRANCH  24  27
ATOM     27  C   UNL     1       1.500  -0.811   0.274  0.00  0.00    +0.109 C 
BRANCH  27  29
ATOM     28  C   UNL     1       1.136  -0.683   2.743  0.00  0.00    +0.005 C 
ATOM     29  C   UNL     1       1.135  -1.611   1.526  0.00  0.00    +0.016 C 
ENDBRANCH  27  29
ENDBRANCH  24  27
BRANCH  25  30
ATOM     30  C   UNL     1       3.669  -2.440  -0.558  0.00  0.00    +0.233 C 
BRANCH  30  31
ATOM     31  C   UNL     1       4.485  -1.282  -1.072  0.00  0.00    -0.010 A 
ATOM     32  C   UNL     1       5.168  -1.395  -2.269  0.00  0.00    +0.006 A 
ATOM     33  C   UNL     1       5.916  -0.333  -2.740  0.00  0.00    +0.000 A 
ATOM     34  C   UNL     1       5.981   0.843  -2.016  0.00  0.00    +0.000 A 
ATOM     35  C   UNL     1       5.297   0.956  -0.820  0.00  0.00    +0.000 A 
ATOM     36  C   UNL     1       4.545  -0.105  -0.350  0.00  0.00    +0.006 A 
ENDBRANCH  30  31
BRANCH  30  37
ATOM     37  O   UNL     1       4.377  -3.660  -0.785  0.00  0.00    -0.366 OA
ATOM     38  C   UNL     1       4.104  -4.679   0.179  0.00  0.00    +0.195 C 
ENDBRANCH  30  37
ENDBRANCH  25  30
ENDBRANCH   1  24
TORSDOF 12
