REMARK  Name = ZINC20681412
REMARK  8 active torsions:
REMARK  status: ('A' for Active; 'I' for Inactive)
REMARK    1  A    between atoms: C_4  and  C_7
REMARK    2  A    between atoms: C_7  and  C_8
REMARK    3  A    between atoms: C_8  and  N_9
REMARK    4  A    between atoms: N_9  and  S_10
REMARK    5  A    between atoms: S_10  and  C_13
REMARK    6  A    between atoms: C_26  and  C_29
REMARK    7  A    between atoms: C_32  and  O_36
REMARK    8  A    between atoms: C_34  and  O_35
REMARK                            x       y       z     vdW  Elec       q    Type
REMARK                         _______ _______ _______ _____ _____    ______ ____
ROOT
ATOM      1  C   UNL     1       1.185   1.837   0.000  0.00  0.00    +0.106 A 
ATOM      2  C   UNL     1       1.160   3.220   0.015  0.00  0.00    +0.030 A 
ATOM      3  C   UNL     1      -0.045   3.892   0.023  0.00  0.00    +0.025 A 
ATOM      4  C   UNL     1      -1.242   3.186   0.022  0.00  0.00    +0.031 A 
ATOM      5  C   UNL     1      -1.209   1.787   0.015  0.00  0.00    -0.018 A 
ATOM      6  C   UNL     1      -0.001   1.125   0.002  0.00  0.00    +0.034 A 
ATOM      7  C   UNL     1      -2.504   1.073   0.061  0.00  0.00    +0.049 C 
ATOM      8  C   UNL     1      -2.691  -0.309  -0.475  0.00  0.00    -0.023 C 
ATOM      9  C   UNL     1      -3.925  -0.430  -0.949  0.00  0.00    -0.030 C 
ATOM     10  C   UNL     1      -4.684   0.887  -0.777  0.00  0.00    +0.033 C 
ATOM     11  C   UNL     1      -3.535   1.905  -0.760  0.00  0.00    +0.029 C 
ATOM     12  C   UNL     1      -3.751   3.180   0.034  0.00  0.00    +0.108 C 
ATOM     13  N   UNL     1      -2.453   3.889   0.011  0.00  0.00    -0.336 N 
ATOM     14  H   UNL     1      -2.426   4.988  -0.015  0.00  0.00    +0.147 HD
ENDROOT
BRANCH  12  15
ATOM     15  C   UNL     1      -4.142   2.854   1.452  0.00  0.00    +0.015 A 
ATOM     16  C   UNL     1      -3.168   2.729   2.425  0.00  0.00    +0.012 A 
ATOM     17  C   UNL     1      -3.523   2.431   3.726  0.00  0.00    +0.046 A 
ATOM     18  C   UNL     1      -4.859   2.256   4.060  0.00  0.00    +0.120 A 
ATOM     19  C   UNL     1      -5.838   2.381   3.086  0.00  0.00    +0.091 A 
ATOM     20  C   UNL     1      -5.479   2.686   1.782  0.00  0.00    +0.125 A 
BRANCH  20  21
ATOM     21  O   UNL     1      -6.436   2.814   0.826  0.00  0.00    -0.506 OA
ATOM     22  H   UNL     1      -7.496   2.681   1.087  0.00  0.00    +0.292 HD
ENDBRANCH  20  21
BRANCH  18  23
ATOM     23  O   UNL     1      -5.208   1.962   5.340  0.00  0.00    -0.507 OA
ATOM     24  H   UNL     1      -6.267   1.824   5.604  0.00  0.00    +0.292 HD
ENDBRANCH  18  23
ENDBRANCH  12  15
BRANCH   1  25
ATOM     25  S   UNL     1       2.726   0.984  -0.021  0.00  0.00    +0.058 S 
ATOM     26  O   UNL     1       3.689   1.871   0.532  0.00  0.00    -0.153 OA
ATOM     27  O   UNL     1       2.482  -0.308   0.517  0.00  0.00    -0.153 OA
BRANCH  25  28
ATOM     28  N   UNL     1       3.142   0.764  -1.609  0.00  0.00    -0.190 NA
ATOM     29  H   UNL     1       3.037  -0.234  -2.059  0.00  0.00    +0.148 HD
BRANCH  28  30
ATOM     30  C   UNL     1       3.433   1.922  -2.457  0.00  0.00    +0.110 C 
BRANCH  30  31
ATOM     31  C   UNL     1       4.139   1.456  -3.732  0.00  0.00    +0.052 C 
BRANCH  31  35
ATOM     32  C   UNL     1       4.990   4.833  -6.206  0.00  0.00    +0.000 A 
ATOM     33  C   UNL     1       5.913   4.415  -5.265  0.00  0.00    +0.000 A 
ATOM     34  C   UNL     1       5.637   3.322  -4.465  0.00  0.00    +0.003 A 
ATOM     35  C   UNL     1       4.439   2.648  -4.605  0.00  0.00    -0.046 A 
ATOM     36  C   UNL     1       3.518   3.063  -5.549  0.00  0.00    +0.003 A 
ATOM     37  C   UNL     1       3.792   4.158  -6.346  0.00  0.00    +0.000 A 
ENDBRANCH  31  35
ENDBRANCH  30  31
ENDBRANCH  28  30
ENDBRANCH  25  28
ENDBRANCH   1  25
TORSDOF 8
