REMARK  Name = ZINC08863747
REMARK  11 active torsions:
REMARK  status: ('A' for Active; 'I' for Inactive)
REMARK    1  A    between atoms: C_1  and  C_2
REMARK    2  A    between atoms: C_2  and  O_3
REMARK    3  A    between atoms: O_3  and  C_4
REMARK    4  A    between atoms: C_4  and  C_6
REMARK    5  A    between atoms: C_7  and  N_30
REMARK    6  A    between atoms: C_9  and  C_24
REMARK    7  A    between atoms: C_11  and  N_23
REMARK    8  A    between atoms: C_12  and  C_18
REMARK    9  A    between atoms: C_18  and  O_20
REMARK   10  A    between atoms: O_20  and  C_21
REMARK   11  A    between atoms: C_21  and  C_22
REMARK                            x       y       z     vdW  Elec       q    Type
REMARK                         _______ _______ _______ _____ _____    ______ ____
ROOT
ATOM      1  C   UNL     1       0.986   0.108  -2.341  0.00  0.00    +0.235 A 
ATOM      2  C   UNL     1       1.885   1.134  -2.119  0.00  0.00    +0.088 A 
ATOM      3  C   UNL     1       1.116   2.204  -1.476  0.00  0.00    +0.070 A 
ATOM      4  C   UNL     1       1.442   3.483  -1.008  0.00  0.00    +0.008 A 
ATOM      5  C   UNL     1       0.414   4.275  -0.422  0.00  0.00    +0.038 A 
ATOM      6  C   UNL     1       0.511   5.617   0.127  0.00  0.00    +0.056 A 
ATOM      7  C   UNL     1      -0.629   6.195   0.647  0.00  0.00    +0.119 A 
ATOM      8  S   UNL     1      -1.872   4.941   0.410  0.00  0.00    -0.060 S 
ATOM      9  C   UNL     1      -0.874   3.691  -0.363  0.00  0.00    +0.115 A 
ATOM     10  N   UNL     1      -1.137   2.486  -0.820  0.00  0.00    -0.205 NA
ATOM     11  C   UNL     1      -0.203   1.721  -1.366  0.00  0.00    +0.232 A 
ATOM     12  O   UNL     1      -0.235   0.479  -1.889  0.00  0.00    -0.428 OA
ENDROOT
BRANCH   4  13
ATOM     13  C   UNL     1       2.824   3.999  -1.120  0.00  0.00    -0.016 A 
ATOM     14  C   UNL     1       3.124   5.004  -2.041  0.00  0.00    +0.008 A 
ATOM     15  C   UNL     1       4.413   5.486  -2.135  0.00  0.00    +0.001 A 
ATOM     16  C   UNL     1       5.410   4.966  -1.329  0.00  0.00    +0.000 A 
ATOM     17  C   UNL     1       5.120   3.965  -0.418  0.00  0.00    +0.001 A 
ATOM     18  C   UNL     1       3.834   3.479  -0.309  0.00  0.00    +0.008 A 
ENDBRANCH   4  13
BRANCH   6  19
ATOM     19  N   UNL     1       1.718   6.299   0.129  0.00  0.00    -0.356 N 
ATOM     20  H   UNL     1       2.551   5.812   0.026  0.00  0.00    +0.142 HD
ATOM     21  H   UNL     1       1.730   7.263   0.233  0.00  0.00    +0.142 HD
ENDBRANCH   6  19
BRANCH   2  22
ATOM     22  N   UNL     1       3.232   1.147  -2.437  0.00  0.00    -0.354 N 
ATOM     23  H   UNL     1       3.638   0.376  -2.864  0.00  0.00    +0.142 HD
ATOM     24  H   UNL     1       3.771   1.928  -2.233  0.00  0.00    +0.142 HD
ENDBRANCH   2  22
BRANCH   1  25
ATOM     25  C   UNL     1       1.291  -1.130  -2.944  0.00  0.00    +0.377 C 
ATOM     26  O   UNL     1       2.427  -1.363  -3.316  0.00  0.00    -0.241 OA
BRANCH  25  27
ATOM     27  O   UNL     1       0.324  -2.058  -3.109  0.00  0.00    -0.459 OA
BRANCH  27  29
ATOM     28  C   UNL     1      -0.515  -4.208  -3.826  0.00  0.00    +0.048 C 
ATOM     29  C   UNL     1       0.705  -3.289  -3.726  0.00  0.00    +0.229 C 
ENDBRANCH  27  29
ENDBRANCH  25  27
ENDBRANCH   1  25
BRANCH   7  30
ATOM     30  C   UNL     1      -0.775   7.474   1.228  0.00  0.00    +0.348 C 
ATOM     31  O   UNL     1       0.186   8.217   1.315  0.00  0.00    -0.244 OA
BRANCH  30  32
ATOM     32  O   UNL     1      -1.980   7.874   1.687  0.00  0.00    -0.461 OA
BRANCH  32  33
ATOM     33  C   UNL     1      -2.055   9.180   2.262  0.00  0.00    +0.229 C 
ATOM     34  C   UNL     1      -3.489   9.453   2.722  0.00  0.00    +0.048 C 
ENDBRANCH  32  33
ENDBRANCH  30  32
ENDBRANCH   7  30
TORSDOF 9
