REMARK  Name = ZINC18199013
REMARK  10 active torsions:
REMARK  status: ('A' for Active; 'I' for Inactive)
REMARK    1  A    between atoms: C_1  and  O_2
REMARK    2  A    between atoms: O_2  and  C_3
REMARK    3  A    between atoms: C_6  and  C_11
REMARK    4  A    between atoms: C_7  and  O_9
REMARK    5  A    between atoms: O_9  and  C_10
REMARK    6  A    between atoms: C_16  and  C_21
REMARK    7  A    between atoms: C_24  and  O_29
REMARK    8  A    between atoms: C_25  and  O_27
REMARK    9  A    between atoms: O_27  and  C_28
REMARK   10  A    between atoms: O_29  and  C_30
REMARK                            x       y       z     vdW  Elec       q    Type
REMARK                         _______ _______ _______ _____ _____    ______ ____
ROOT
ATOM      1  C   UNL     1      -4.252   0.397   0.041  0.00  0.00    +0.179 C 
ATOM      2  C   UNL     1      -2.823   0.892   0.084  0.00  0.00    +0.041 C 
ATOM      3  C   UNL     1      -2.167   1.091   1.247  0.00  0.00    +0.020 C 
ATOM      4  C   UNL     1      -0.740   1.585   1.258  0.00  0.00    +0.060 C 
ATOM      5  C   UNL     1      -0.013   1.086   0.008  0.00  0.00    +0.032 C 
ATOM      6  C   UNL     1      -0.765   1.599  -1.225  0.00  0.00    +0.088 C 
ATOM      7  C   UNL     1      -2.194   1.136  -1.150  0.00  0.00    +0.164 C 
ATOM      8  O   UNL     1      -2.819   0.970  -2.179  0.00  0.00    -0.292 OA
ATOM      9  N   UNL     1      -2.765   0.864   2.463  0.00  0.00    -0.287 N 
ATOM     10  C   UNL     1      -4.142   0.717   2.495  0.00  0.00    +0.220 A 
ATOM     11  N   UNL     1      -4.856   0.502   1.363  0.00  0.00    -0.219 N 
ATOM     12  N   UNL     1      -6.194   0.412   1.747  0.00  0.00    -0.132 NA
ATOM     13  C   UNL     1      -6.224   0.566   3.053  0.00  0.00    +0.233 A 
ATOM     14  N   UNL     1      -4.974   0.750   3.500  0.00  0.00    -0.180 NA
ATOM     15  N   UNL     1      -7.373   0.543   3.845  0.00  0.00    -0.326 N 
ATOM     16  H   UNL     1      -2.238   0.807   3.276  0.00  0.00    +0.155 HD
ATOM     17  H   UNL     1      -8.242   0.404   3.435  0.00  0.00    +0.145 HD
ATOM     18  H   UNL     1      -7.303   0.666   4.804  0.00  0.00    +0.145 HD
ENDROOT
BRANCH   1  22
ATOM     19  C   UNL     1      -4.294  -3.690  -1.217  0.00  0.00    +0.124 A 
ATOM     20  C   UNL     1      -3.622  -3.323  -0.059  0.00  0.00    +0.046 A 
ATOM     21  C   UNL     1      -3.610  -2.002   0.344  0.00  0.00    +0.013 A 
ATOM     22  C   UNL     1      -4.267  -1.043  -0.402  0.00  0.00    +0.023 A 
ATOM     23  C   UNL     1      -4.946  -1.406  -1.557  0.00  0.00    +0.129 A 
ATOM     24  C   UNL     1      -4.954  -2.730  -1.968  0.00  0.00    +0.091 A 
BRANCH  19  26
ATOM     25  C   UNL     1      -3.605  -5.926  -0.792  0.00  0.00    +0.277 C 
ATOM     26  O   UNL     1      -4.306  -4.990  -1.614  0.00  0.00    -0.495 OA
ENDBRANCH  19  26
BRANCH  23  27
ATOM     27  O   UNL     1      -5.597  -0.463  -2.288  0.00  0.00    -0.495 OA
ATOM     28  C   UNL     1      -6.274  -0.908  -3.465  0.00  0.00    +0.277 C 
ENDBRANCH  23  27
ENDBRANCH   1  22
BRANCH   5  29
ATOM     29  C   UNL     1       1.399   1.613  -0.003  0.00  0.00    -0.040 A 
ATOM     30  C   UNL     1       1.626   2.977   0.003  0.00  0.00    +0.008 A 
ATOM     31  C   UNL     1       2.920   3.465  -0.006  0.00  0.00    +0.049 A 
ATOM     32  C   UNL     1       3.992   2.587  -0.021  0.00  0.00    +0.161 A 
ATOM     33  C   UNL     1       3.763   1.214  -0.026  0.00  0.00    +0.162 A 
ATOM     34  C   UNL     1       2.464   0.732  -0.012  0.00  0.00    +0.053 A 
BRANCH  33  35
ATOM     35  O   UNL     1       4.812   0.349  -0.041  0.00  0.00    -0.491 OA
ATOM     36  C   UNL     1       4.502  -1.046  -0.046  0.00  0.00    +0.277 C 
ENDBRANCH  33  35
BRANCH  32  37
ATOM     37  O   UNL     1       5.264   3.066  -0.030  0.00  0.00    -0.491 OA
ATOM     38  C   UNL     1       5.423   4.486  -0.024  0.00  0.00    +0.277 C 
ENDBRANCH  32  37
ENDBRANCH   5  29
TORSDOF 6
