REMARK  Name = ZINC03503658
REMARK  5 active torsions:
REMARK  status: ('A' for Active; 'I' for Inactive)
REMARK    1  A    between atoms: C_4  and  N_11
REMARK    2  A    between atoms: C_6  and  C_7
REMARK    3  A    between atoms: N_11  and  C_12
REMARK    4  A    between atoms: C_12  and  N_14
REMARK    5  A    between atoms: N_14  and  C_15
REMARK                            x       y       z     vdW  Elec       q    Type
REMARK                         _______ _______ _______ _____ _____    ______ ____
ROOT
ATOM      1  C   UNL     1      -0.236   1.740  -0.040  0.00  0.00    +0.139 C 
ATOM      2  S   UNL     1      -0.507   0.050  -0.100  0.00  0.00    -0.018 S 
ENDROOT
BRANCH   1   3
ATOM      3  N   UNL     1       0.981   2.238  -0.336  0.00  0.00    -0.295 N 
ATOM      4  H   UNL     1       1.116   3.198  -0.373  0.00  0.00    +0.154 HD
BRANCH   3   8
ATOM      5  C   UNL     1       4.162  -0.345  -1.095  0.00  0.00    +0.014 A 
ATOM      6  C   UNL     1       4.317   0.695  -0.196  0.00  0.00    +0.022 A 
ATOM      7  C   UNL     1       3.264   1.553   0.059  0.00  0.00    +0.062 A 
ATOM      8  C   UNL     1       2.049   1.371  -0.591  0.00  0.00    +0.052 A 
ATOM      9  C   UNL     1       1.895   0.323  -1.488  0.00  0.00    +0.037 A 
ATOM     10  C   UNL     1       2.954  -0.529  -1.741  0.00  0.00    +0.057 A 
ATOM     11 CL   UNL     1       3.460   2.858   1.187  0.00  0.00    -0.082 Cl
BRANCH  10  12
ATOM     12  C   UNL     1       2.789  -1.663  -2.719  0.00  0.00    +0.417 C 
ATOM     13  F   UNL     1       3.985  -2.384  -2.803  0.00  0.00    -0.166 F 
ATOM     14  F   UNL     1       1.764  -2.510  -2.283  0.00  0.00    -0.166 F 
ATOM     15  F   UNL     1       2.465  -1.150  -3.980  0.00  0.00    -0.166 F 
ENDBRANCH  10  12
ENDBRANCH   3   8
ENDBRANCH   1   3
BRANCH   1  16
ATOM     16  N   UNL     1      -1.241   2.572   0.299  0.00  0.00    -0.297 N 
ATOM     17  H   UNL     1      -1.105   3.532   0.274  0.00  0.00    +0.154 HD
BRANCH  16  18
ATOM     18  C   UNL     1      -2.481   2.050   0.688  0.00  0.00    +0.035 A 
ATOM     19  C   UNL     1      -3.128   2.561   1.808  0.00  0.00    +0.025 A 
ATOM     20  C   UNL     1      -4.351   2.051   2.196  0.00  0.00    +0.029 A 
ATOM     21  C   UNL     1      -4.936   1.026   1.468  0.00  0.00    +0.067 A 
ATOM     22  C   UNL     1      -4.289   0.511   0.343  0.00  0.00    +0.069 A 
ATOM     23  C   UNL     1      -3.064   1.029  -0.048  0.00  0.00    +0.051 A 
ATOM     24  N   UNL     1      -5.108  -0.491  -0.170  0.00  0.00    -0.306 N 
ATOM     25  H   UNL     1      -4.921  -1.032  -0.953  0.00  0.00    +0.170 HD
ATOM     26  C   UNL     1      -6.204  -0.583   0.607  0.00  0.00    +0.325 A 
ATOM     27  O   UNL     1      -7.122  -1.363   0.434  0.00  0.00    -0.247 OA
ATOM     28  N   UNL     1      -6.131   0.319   1.603  0.00  0.00    -0.306 N 
ATOM     29  H   UNL     1      -6.795   0.454   2.298  0.00  0.00    +0.170 HD
ENDBRANCH  16  18
ENDBRANCH   1  16
TORSDOF 5
