REMARK  Name = ZINC09611390
REMARK  10 active torsions:
REMARK  status: ('A' for Active; 'I' for Inactive)
REMARK    1  A    between atoms: C_1  and  C_2
REMARK    2  A    between atoms: C_5  and  C_8
REMARK    3  A    between atoms: C_8  and  C_9
REMARK    4  A    between atoms: C_9  and  N_10
REMARK    5  A    between atoms: C_11  and  C_13
REMARK    6  A    between atoms: C_13  and  C_15
REMARK    7  A    between atoms: C_13  and  N_22
REMARK    8  A    between atoms: C_15  and  C_16
REMARK    9  A    between atoms: N_22  and  S_23
REMARK   10  A    between atoms: S_23  and  C_26
REMARK                            x       y       z     vdW  Elec       q    Type
REMARK                         _______ _______ _______ _____ _____    ______ ____
ROOT
ATOM      1  C   UNL     1       1.372  -6.418  -2.385  0.00  0.00    +0.166 C 
ENDROOT
BRANCH   1   3
ATOM      2  N   UNL     1       1.046  -4.369  -1.039  0.00  0.00    -0.314 N 
ATOM      3  C   UNL     1       1.262  -4.921  -2.249  0.00  0.00    +0.232 C 
ATOM      4  O   UNL     1       1.368  -4.213  -3.229  0.00  0.00    -0.274 OA
ATOM      5  H   UNL     1       0.962  -4.934  -0.256  0.00  0.00    +0.149 HD
BRANCH   2   6
ATOM      6  C   UNL     1       0.939  -2.913  -0.906  0.00  0.00    +0.109 C 
BRANCH   6   7
ATOM      7  C   UNL     1       0.696  -2.551   0.560  0.00  0.00    +0.054 C 
BRANCH   7  12
ATOM      8  C   UNL     1       0.275   3.188   1.085  0.00  0.00    +0.044 C 
ATOM      9  C   UNL     1       0.385   1.691   0.948  0.00  0.00    -0.050 A 
ATOM     10  C   UNL     1      -0.747   0.934   0.706  0.00  0.00    +0.003 A 
ATOM     11  C   UNL     1      -0.646  -0.439   0.580  0.00  0.00    +0.004 A 
ATOM     12  C   UNL     1       0.586  -1.055   0.696  0.00  0.00    -0.046 A 
ATOM     13  C   UNL     1       1.718  -0.298   0.938  0.00  0.00    +0.004 A 
ATOM     14  C   UNL     1       1.617   1.075   1.063  0.00  0.00    +0.003 A 
ENDBRANCH   7  12
ENDBRANCH   6   7
ENDBRANCH   2   6
ENDBRANCH   1   3
BRANCH   1  15
ATOM     15  N   UNL     1       1.605  -6.764  -3.790  0.00  0.00    -0.178 NA
ATOM     16  H   UNL     1       0.855  -6.855  -4.398  0.00  0.00    +0.149 HD
BRANCH  15  17
ATOM     17  S   UNL     1       3.149  -7.003  -4.339  0.00  0.00    +0.059 S 
ATOM     18  O   UNL     1       3.041  -7.378  -5.705  0.00  0.00    -0.153 OA
ATOM     19  O   UNL     1       3.908  -5.879  -3.915  0.00  0.00    -0.153 OA
BRANCH  17  20
ATOM     20  C   UNL     1       3.797  -8.400  -3.483  0.00  0.00    +0.106 A 
ATOM     21  C   UNL     1       3.547  -9.675  -3.955  0.00  0.00    +0.030 A 
ATOM     22  C   UNL     1       4.053 -10.773  -3.287  0.00  0.00    +0.025 A 
ATOM     23  C   UNL     1       4.814 -10.594  -2.139  0.00  0.00    +0.037 A 
ATOM     24  C   UNL     1       5.064  -9.312  -1.668  0.00  0.00    -0.024 A 
ATOM     25  C   UNL     1       4.559  -8.218  -2.343  0.00  0.00    +0.034 A 
ATOM     26  C   UNL     1       5.890  -9.118  -0.424  0.00  0.00    +0.046 C 
ATOM     27  C   UNL     1       5.633 -10.272   0.546  0.00  0.00    +0.101 C 
ATOM     28  C   UNL     1       5.739 -11.586  -0.182  0.00  0.00    +0.218 C 
ATOM     29  O   UNL     1       6.199 -12.552   0.390  0.00  0.00    -0.275 OA
ATOM     30  N   UNL     1       5.330 -11.700  -1.458  0.00  0.00    -0.285 N 
ATOM     31  H   UNL     1       5.394 -12.557  -1.909  0.00  0.00    +0.155 HD
ENDBRANCH  17  20
ENDBRANCH  15  17
ENDBRANCH   1  15
BRANCH   1  32
ATOM     32  C   UNL     1       0.073  -7.070  -1.908  0.00  0.00    +0.065 C 
BRANCH  32  33
ATOM     33  C   UNL     1       0.218  -8.569  -1.951  0.00  0.00    -0.045 A 
ATOM     34  C   UNL     1      -0.237  -9.277  -3.047  0.00  0.00    +0.004 A 
ATOM     35  C   UNL     1      -0.099 -10.652  -3.089  0.00  0.00    +0.000 A 
ATOM     36  C   UNL     1       0.485 -11.320  -2.029  0.00  0.00    +0.000 A 
ATOM     37  C   UNL     1       0.935 -10.613  -0.930  0.00  0.00    +0.000 A 
ATOM     38  C   UNL     1       0.802  -9.238  -0.891  0.00  0.00    +0.004 A 
ENDBRANCH  32  33
ENDBRANCH   1  32
TORSDOF 9
