REMARK  Name = ZINC40470535
REMARK  4 active torsions:
REMARK  status: ('A' for Active; 'I' for Inactive)
REMARK    1  A    between atoms: C_4  and  C_7
REMARK    2  A    between atoms: C_4  and  N_20
REMARK    3  A    between atoms: C_11  and  O_19
REMARK    4  A    between atoms: C_14  and  C_16
REMARK                            x       y       z     vdW  Elec       q    Type
REMARK                         _______ _______ _______ _____ _____    ______ ____
ROOT
ATOM      1  C   UNL     1       2.867  -0.542   0.025  0.00  0.00    +0.205 C 
ATOM      2  O   UNL     1       3.260   0.198  -0.852  0.00  0.00    -0.277 OA
ATOM      3  N   UNL     1       3.050  -1.873  -0.084  0.00  0.00    -0.286 N 
ATOM      4  C   UNL     1       2.529  -2.891   0.847  0.00  0.00    +0.140 C 
ATOM      5  C   UNL     1       3.474  -4.106   0.675  0.00  0.00    +0.134 C 
ATOM      6  C   UNL     1       3.763  -4.063  -0.849  0.00  0.00    +0.067 C 
ATOM      7  C   UNL     1       3.796  -2.550  -1.154  0.00  0.00    +0.191 C 
ENDROOT
BRANCH   1  11
ATOM      8  C   UNL     1      -0.164   1.248  -0.039  0.00  0.00    -0.000 C 
ATOM      9  C   UNL     1       1.230   1.866  -0.166  0.00  0.00    -0.001 C 
ATOM     10  C   UNL     1       2.047   1.544   1.086  0.00  0.00    -0.004 C 
ATOM     11  C   UNL     1       2.174   0.026   1.237  0.00  0.00    +0.007 C 
ATOM     12  C   UNL     1       0.780  -0.592   1.364  0.00  0.00    -0.004 C 
ATOM     13  C   UNL     1      -0.037  -0.270   0.112  0.00  0.00    -0.001 C 
BRANCH  11  14
ATOM     14  N   UNL     1       2.959  -0.282   2.439  0.00  0.00    +0.388 N 
ATOM     15  H   UNL     1       2.435  -0.018   3.260  0.00  0.00    -0.089 HD
ATOM     16  H   UNL     1       3.153  -1.272   2.469  0.00  0.00    -0.089 HD
ATOM     17  H   UNL     1       3.827   0.230   2.415  0.00  0.00    -0.089 HD
ENDBRANCH  11  14
ENDBRANCH   1  11
BRANCH   7  18
ATOM     18  C   UNL     1       3.144  -2.279  -2.485  0.00  0.00    +0.376 C 
ATOM     19  O   UNL     1       3.710  -2.598  -3.517  0.00  0.00    -0.244 OA
ATOM     20  O   UNL     1       2.051  -1.741  -2.530  0.00  0.00    -0.244 OA
ENDBRANCH   7  18
BRANCH   5  21
ATOM     21  O   UNL     1       4.675  -3.931   1.430  0.00  0.00    -0.390 OA
ATOM     22  H   UNL     1       4.532  -3.854   2.383  0.00  0.00    +0.210 HD
ENDBRANCH   5  21
TORSDOF 4
