REMARK  Name = ZINC45632538
REMARK  13 active torsions:
REMARK  status: ('A' for Active; 'I' for Inactive)
REMARK    1  A    between atoms: C_1  and  C_2
REMARK    2  A    between atoms: C_2  and  O_3
REMARK    3  A    between atoms: O_3  and  C_4
REMARK    4  A    between atoms: C_4  and  C_6
REMARK    5  A    between atoms: C_7  and  C_20
REMARK    6  A    between atoms: C_12  and  C_14
REMARK    7  A    between atoms: C_20  and  N_21
REMARK    8  A    between atoms: N_25  and  C_28
REMARK    9  A    between atoms: C_28  and  C_29
REMARK   10  A    between atoms: N_31  and  C_32
REMARK   11  A    between atoms: C_32  and  C_33
REMARK   12  A    between atoms: C_32  and  C_34
REMARK   13  A    between atoms: C_32  and  C_35
REMARK                            x       y       z     vdW  Elec       q    Type
REMARK                         _______ _______ _______ _____ _____    ______ ____
ROOT
ATOM      1  C   UNL     1       1.353  -2.336  -2.516  0.00  0.00    +0.079 C 
ATOM      2  C   UNL     1       1.628  -3.654  -2.615  0.00  0.00    +0.038 C 
ATOM      3  N   UNL     1       2.328  -4.151  -3.677  0.00  0.00    -0.271 N 
ATOM      4  C   UNL     1       2.790  -3.395  -4.681  0.00  0.00    +0.304 C 
ATOM      5  O   UNL     1       3.405  -3.928  -5.584  0.00  0.00    -0.252 OA
ATOM      6  N   UNL     1       2.596  -2.062  -4.723  0.00  0.00    -0.288 N 
ATOM      7  C   UNL     1       1.844  -1.428  -3.626  0.00  0.00    +0.144 C 
ATOM      8  H   UNL     1       2.502  -5.105  -3.705  0.00  0.00    +0.156 HD
ATOM      9  H   UNL     1       2.939  -1.533  -5.460  0.00  0.00    +0.151 HD
ENDROOT
BRANCH   7  10
ATOM     10  C   UNL     1       0.648  -0.730  -4.219  0.00  0.00    -0.023 A 
ATOM     11  C   UNL     1      -0.157  -1.390  -5.128  0.00  0.00    +0.006 A 
ATOM     12  C   UNL     1      -1.255  -0.749  -5.672  0.00  0.00    +0.000 A 
ATOM     13  C   UNL     1      -1.548   0.551  -5.306  0.00  0.00    +0.000 A 
ATOM     14  C   UNL     1      -0.743   1.211  -4.396  0.00  0.00    +0.000 A 
ATOM     15  C   UNL     1       0.352   0.569  -3.849  0.00  0.00    +0.006 A 
ENDBRANCH   7  10
BRANCH   1  16
ATOM     16  C   UNL     1       0.627  -1.820  -1.417  0.00  0.00    +0.339 C 
ATOM     17  O   UNL     1      -0.560  -1.578  -1.532  0.00  0.00    -0.245 OA
BRANCH  16  18
ATOM     18  O   UNL     1       1.250  -1.597  -0.242  0.00  0.00    -0.462 OA
BRANCH  18  20
ATOM     19  C   UNL     1       1.329  -0.890   2.068  0.00  0.00    +0.048 C 
ATOM     20  C   UNL     1       0.456  -1.075   0.825  0.00  0.00    +0.229 C 
ENDBRANCH  18  20
ENDBRANCH  16  18
ENDBRANCH   1  16
BRANCH   2  21
ATOM     21  C   UNL     1       1.153  -4.593  -1.536  0.00  0.00    +0.135 C 
BRANCH  21  22
ATOM     22  N   UNL     1       0.182  -5.539  -2.102  0.00  0.00    -0.299 NA
ATOM     23  C   UNL     1      -1.021  -4.831  -2.600  0.00  0.00    +0.083 C 
ATOM     24  C   UNL     1      -1.675  -5.685  -3.657  0.00  0.00    -0.003 C 
ATOM     25  C   UNL     1      -2.759  -6.610  -3.082  0.00  0.00    -0.077 C 
ATOM     26  N   UNL     1      -2.358  -7.232  -1.800  0.00  0.00    +0.386 N 
ATOM     27  C   UNL     1      -0.981  -7.670  -1.812  0.00  0.00    -0.063 C 
ATOM     28  C   UNL     1      -0.109  -6.561  -1.193  0.00  0.00    +0.066 C 
ATOM     29  H   UNL     1      -2.481  -6.560  -1.058  0.00  0.00    -0.081 HD
BRANCH  26  30
ATOM     30  C   UNL     1      -3.224  -8.390  -1.540  0.00  0.00    +0.019 C 
BRANCH  30  31
ATOM     31  C   UNL     1      -4.642  -7.921  -1.337  0.00  0.00    +0.197 C 
ATOM     32  O   UNL     1      -4.905  -6.739  -1.402  0.00  0.00    -0.278 OA
ATOM     33  N   UNL     1      -5.617  -8.816  -1.083  0.00  0.00    -0.312 N 
ATOM     34  H   UNL     1      -5.407  -9.761  -1.031  0.00  0.00    +0.149 HD
BRANCH  33  35
ATOM     35  C   UNL     1      -6.995  -8.360  -0.885  0.00  0.00    +0.026 C 
ATOM     36  C   UNL     1      -7.478  -7.634  -2.142  0.00  0.00    +0.031 C 
ATOM     37  C   UNL     1      -7.897  -9.566  -0.615  0.00  0.00    +0.031 C 
ATOM     38  C   UNL     1      -7.050  -7.405   0.308  0.00  0.00    +0.031 C 
ENDBRANCH  33  35
ENDBRANCH  30  31
ENDBRANCH  26  30
ENDBRANCH  21  22
ENDBRANCH   2  21
TORSDOF 9
