REMARK  Name = ZINC00087687
REMARK  6 active torsions:
REMARK  status: ('A' for Active; 'I' for Inactive)
REMARK    1  A    between atoms: C_1  and  C_2
REMARK    2  A    between atoms: C_4  and  C_15
REMARK    3  A    between atoms: C_6  and  N_14
REMARK    4  A    between atoms: C_7  and  C_11
REMARK    5  A    between atoms: C_15  and  O_16
REMARK    6  A    between atoms: O_16  and  C_17
REMARK                            x       y       z     vdW  Elec       q    Type
REMARK                         _______ _______ _______ _____ _____    ______ ____
ROOT
ATOM      1  C   UNL     1      -0.018   1.503   0.010  0.00  0.00    +0.065 C 
ATOM      2  C   UNL     1       0.002  -0.004   0.002  0.00  0.00    +0.040 A 
ATOM      3  C   UNL     1       0.006  -0.686  -1.206  0.00  0.00    +0.029 A 
ATOM      4  C   UNL     1       0.025  -2.061  -1.228  0.00  0.00    -0.009 A 
ATOM      5  C   UNL     1       0.041  -2.768   0.000  0.00  0.00    +0.034 A 
ATOM      6  C   UNL     1       0.062  -4.206   0.221  0.00  0.00    +0.054 A 
ATOM      7  C   UNL     1       0.075  -4.668   1.518  0.00  0.00    +0.097 A 
ATOM      8  S   UNL     1       0.059  -3.174   2.489  0.00  0.00    -0.062 S 
ATOM      9  C   UNL     1       0.035  -1.980   1.174  0.00  0.00    +0.111 A 
ATOM     10  N   UNL     1       0.022  -0.665   1.143  0.00  0.00    -0.245 NA
ENDROOT
BRANCH   7  11
ATOM     11  C   UNL     1       0.096  -6.010   1.972  0.00  0.00    +0.250 C 
ATOM     12  O   UNL     1       0.104  -6.925   1.168  0.00  0.00    -0.270 OA
ATOM     13  N   UNL     1       0.106  -6.274   3.294  0.00  0.00    -0.325 N 
ATOM     14  H   UNL     1       0.100  -5.546   3.934  0.00  0.00    +0.145 HD
ATOM     15  H   UNL     1       0.121  -7.193   3.605  0.00  0.00    +0.145 HD
ENDBRANCH   7  11
BRANCH   6  16
ATOM     16  N   UNL     1       0.069  -5.089  -0.849  0.00  0.00    -0.356 N 
ATOM     17  H   UNL     1       0.059  -4.750  -1.758  0.00  0.00    +0.142 HD
ATOM     18  H   UNL     1       0.083  -6.046  -0.689  0.00  0.00    +0.142 HD
ENDBRANCH   6  16
BRANCH   4  19
ATOM     19  C   UNL     1       0.028  -2.805  -2.539  0.00  0.00    +0.195 C 
BRANCH  19  20
ATOM     20  O   UNL     1       0.009  -1.868  -3.618  0.00  0.00    -0.378 OA
ATOM     21  C   UNL     1       0.011  -2.473  -4.912  0.00  0.00    +0.194 C 
ENDBRANCH  19  20
ENDBRANCH   4  19
TORSDOF 4
