REMARK  Name = ZINC08386735
REMARK  12 active torsions:
REMARK  status: ('A' for Active; 'I' for Inactive)
REMARK    1  A    between atoms: C_1  and  C_2
REMARK    2  A    between atoms: C_2  and  C_3
REMARK    3  A    between atoms: C_4  and  C_23
REMARK    4  A    between atoms: C_5  and  C_21
REMARK    5  A    between atoms: C_6  and  C_11
REMARK    6  A    between atoms: C_7  and  C_9
REMARK    7  A    between atoms: C_9  and  C_10
REMARK    8  A    between atoms: N_12  and  O_13
REMARK    9  A    between atoms: N_14  and  C_15
REMARK   10  A    between atoms: C_21  and  C_22
REMARK   11  A    between atoms: N_24  and  O_25
REMARK   12  A    between atoms: N_26  and  C_27
REMARK                            x       y       z     vdW  Elec       q    Type
REMARK                         _______ _______ _______ _____ _____    ______ ____
ROOT
ATOM      1  C   UNL     1      -0.105  -0.922  -2.000  0.00  0.00    -0.037 A 
ATOM      2  C   UNL     1       1.278  -0.801  -2.135  0.00  0.00    +0.025 A 
ATOM      3  C   UNL     1       1.904  -1.255  -3.294  0.00  0.00    -0.026 A 
ATOM      4  C   UNL     1       1.143  -1.828  -4.310  0.00  0.00    +0.025 A 
ATOM      5  C   UNL     1      -0.240  -1.944  -4.162  0.00  0.00    -0.037 A 
ATOM      6  C   UNL     1      -0.853  -1.496  -3.008  0.00  0.00    +0.008 A 
ENDROOT
BRANCH   4   7
ATOM      7  C   UNL     1       1.800  -2.313  -5.545  0.00  0.00    +0.170 C 
ATOM      8  N   UNL     1       2.224  -3.541  -5.617  0.00  0.00    -0.071 NA
ATOM      9  N   UNL     1       1.963  -1.460  -6.624  0.00  0.00    -0.296 N 
ATOM     10  H   UNL     1       1.720  -0.524  -6.543  0.00  0.00    +0.154 HD
BRANCH   9  11
ATOM     11  C   UNL     1       2.478  -1.947  -7.829  0.00  0.00    +0.032 A 
ATOM     12  C   UNL     1       3.325  -1.156  -8.594  0.00  0.00    +0.023 A 
ATOM     13  C   UNL     1       3.832  -1.641  -9.784  0.00  0.00    +0.002 A 
ATOM     14  C   UNL     1       3.497  -2.912 -10.213  0.00  0.00    +0.000 A 
ATOM     15  C   UNL     1       2.654  -3.702  -9.454  0.00  0.00    +0.002 A 
ATOM     16  C   UNL     1       2.148  -3.226  -8.260  0.00  0.00    +0.023 A 
ENDBRANCH   9  11
BRANCH   8  17
ATOM     17  O   UNL     1       2.058  -4.413  -4.514  0.00  0.00    -0.408 OA
ATOM     18  H   UNL     1       2.404  -5.304  -4.661  0.00  0.00    +0.328 HD
ENDBRANCH   8  17
ENDBRANCH   4   7
BRANCH   2  19
ATOM     19  C   UNL     1       2.080  -0.190  -1.051  0.00  0.00    +0.170 C 
ATOM     20  N   UNL     1       2.567  -0.936  -0.103  0.00  0.00    -0.071 NA
ATOM     21  N   UNL     1       2.311   1.176  -1.045  0.00  0.00    -0.296 N 
ATOM     22  H   UNL     1       2.020   1.720  -1.794  0.00  0.00    +0.154 HD
BRANCH  21  23
ATOM     23  C   UNL     1       2.962   1.770   0.039  0.00  0.00    +0.032 A 
ATOM     24  C   UNL     1       3.837   2.829  -0.170  0.00  0.00    +0.023 A 
ATOM     25  C   UNL     1       4.479   3.414   0.904  0.00  0.00    +0.002 A 
ATOM     26  C   UNL     1       4.252   2.947   2.186  0.00  0.00    +0.000 A 
ATOM     27  C   UNL     1       3.382   1.893   2.397  0.00  0.00    +0.002 A 
ATOM     28  C   UNL     1       2.732   1.307   1.328  0.00  0.00    +0.023 A 
ENDBRANCH  21  23
BRANCH  20  29
ATOM     29  O   UNL     1       2.331  -2.332  -0.109  0.00  0.00    -0.408 OA
ATOM     30  H   UNL     1       2.733  -2.802   0.635  0.00  0.00    +0.328 HD
ENDBRANCH  20  29
ENDBRANCH   2  19
BRANCH   1  32
ATOM     31  C   UNL     1      -1.080   1.063  -0.879  0.00  0.00    +0.009 C 
ATOM     32  C   UNL     1      -0.783  -0.431  -0.746  0.00  0.00    +0.032 C 
ENDBRANCH   1  32
BRANCH   5  33
ATOM     33  C   UNL     1      -1.065  -2.564  -5.260  0.00  0.00    +0.032 C 
ATOM     34  C   UNL     1      -1.067  -4.085  -5.099  0.00  0.00    +0.009 C 
ENDBRANCH   5  33
BRANCH   3  35
ATOM     35  C   UNL     1       3.397  -1.127  -3.447  0.00  0.00    +0.033 C 
ATOM     36  C   UNL     1       4.077  -2.382  -2.896  0.00  0.00    +0.009 C 
ENDBRANCH   3  35
TORSDOF 9
