REMARK  Name = ZINC25588613
REMARK  11 active torsions:
REMARK  status: ('A' for Active; 'I' for Inactive)
REMARK    1  A    between atoms: C_1  and  C_2
REMARK    2  A    between atoms: C_2  and  C_3
REMARK    3  A    between atoms: C_4  and  C_27
REMARK    4  A    between atoms: C_5  and  N_26
REMARK    5  A    between atoms: C_7  and  S_9
REMARK    6  A    between atoms: S_9  and  C_10
REMARK    7  A    between atoms: C_10  and  C_12
REMARK    8  A    between atoms: C_10  and  C_13
REMARK    9  A    between atoms: N_15  and  C_16
REMARK   10  A    between atoms: C_19  and  N_22
REMARK   11  A    between atoms: C_23  and  C_25
REMARK                            x       y       z     vdW  Elec       q    Type
REMARK                         _______ _______ _______ _____ _____    ______ ____
ROOT
ATOM      1  C   UNL     1      -3.401   1.032   1.141  0.00  0.00    +0.055 A 
ATOM      2  C   UNL     1      -2.568   1.026   0.024  0.00  0.00    +0.043 A 
ATOM      3  C   UNL     1      -2.974   0.293  -1.107  0.00  0.00    +0.129 A 
ATOM      4  N   UNL     1      -4.123  -0.370  -1.063  0.00  0.00    -0.207 NA
ATOM      5  C   UNL     1      -4.883  -0.336   0.022  0.00  0.00    +0.191 A 
ATOM      6  N   UNL     1      -4.534   0.349   1.103  0.00  0.00    -0.226 NA
ENDROOT
BRANCH   2   7
ATOM      7  C   UNL     1      -1.290   1.778   0.024  0.00  0.00    -0.013 A 
ATOM      8  C   UNL     1      -1.130   2.886  -0.807  0.00  0.00    +0.010 A 
ATOM      9  C   UNL     1       0.059   3.586  -0.798  0.00  0.00    +0.020 A 
ATOM     10  C   UNL     1       1.094   3.186   0.030  0.00  0.00    +0.041 A 
ATOM     11  C   UNL     1       0.942   2.084   0.854  0.00  0.00    +0.020 A 
ATOM     12  C   UNL     1      -0.243   1.377   0.852  0.00  0.00    +0.010 A 
ATOM     13 CL   UNL     1       2.588   4.071   0.036  0.00  0.00    -0.084 Cl
ENDBRANCH   2   7
BRANCH   3  14
ATOM     14  N   UNL     1      -2.186   0.261  -2.244  0.00  0.00    -0.343 N 
ATOM     15  H   UNL     1      -2.513  -0.315  -3.123  0.00  0.00    +0.144 HD
ATOM     16  H   UNL     1      -1.234   0.810  -2.269  0.00  0.00    +0.144 HD
ENDBRANCH   3  14
BRANCH   1  18
ATOM     17  C   UNL     1      -3.669   3.188   2.335  0.00  0.00    +0.010 C 
ATOM     18  C   UNL     1      -3.017   1.804   2.376  0.00  0.00    +0.053 C 
ENDBRANCH   1  18
BRANCH   5  19
ATOM     19  S   UNL     1      -6.404  -1.227   0.030  0.00  0.00    -0.074 S 
BRANCH  19  20
ATOM     20  C   UNL     1      -6.359  -1.938  -1.634  0.00  0.00    +0.137 C 
ATOM     21  C   UNL     1      -5.191  -2.921  -1.738  0.00  0.00    +0.029 C 
BRANCH  20  22
ATOM     22  C   UNL     1      -7.652  -2.665  -1.904  0.00  0.00    +0.230 C 
ATOM     23  O   UNL     1      -8.355  -3.016  -0.981  0.00  0.00    -0.274 OA
ATOM     24  N   UNL     1      -8.026  -2.924  -3.173  0.00  0.00    -0.285 N 
ATOM     25  H   UNL     1      -7.353  -2.677  -4.007  0.00  0.00    +0.155 HD
BRANCH  24  26
ATOM     26  C   UNL     1      -9.273  -3.508  -3.429  0.00  0.00    +0.034 A 
ATOM     27  C   UNL     1      -9.792  -4.451  -2.551  0.00  0.00    +0.025 A 
ATOM     28  C   UNL     1     -11.023  -5.023  -2.802  0.00  0.00    +0.025 A 
ATOM     29  C   UNL     1     -11.738  -4.664  -3.937  0.00  0.00    +0.033 A 
ATOM     30  C   UNL     1     -11.217  -3.724  -4.817  0.00  0.00    +0.025 A 
ATOM     31  C   UNL     1      -9.988  -3.149  -4.564  0.00  0.00    +0.025 A 
BRANCH  29  32
ATOM     32  N   UNL     1     -12.985  -5.248  -4.194  0.00  0.00    -0.286 N 
ATOM     33  C   UNL     1     -13.799  -5.577  -3.171  0.00  0.00    +0.214 C 
ATOM     34  O   UNL     1     -13.491  -5.287  -2.034  0.00  0.00    -0.276 OA
ATOM     35  C   UNL     1     -15.090  -6.305  -3.439  0.00  0.00    +0.109 C 
ATOM     36  H   UNL     1     -13.301  -5.438  -5.230  0.00  0.00    +0.155 HD
ENDBRANCH  29  32
ENDBRANCH  24  26
ENDBRANCH  20  22
ENDBRANCH  19  20
ENDBRANCH   5  19
TORSDOF 8
