REMARK  Name = ZINC04234547
REMARK  3 active torsions:
REMARK  status: ('A' for Active; 'I' for Inactive)
REMARK    1  A    between atoms: C_6  and  C_14
REMARK    2  A    between atoms: C_6  and  O_18
REMARK    3  A    between atoms: C_10  and  C_12
REMARK                            x       y       z     vdW  Elec       q    Type
REMARK                         _______ _______ _______ _____ _____    ______ ____
ROOT
ATOM      1  C   UNL     1      -1.346   3.168   0.033  0.00  0.00    +0.001 C 
ATOM      2  C   UNL     1      -0.956   2.134  -1.038  0.00  0.00    +0.009 C 
ATOM      3  C   UNL     1      -0.019   1.525   0.010  0.00  0.00    -0.001 C 
ATOM      4  C   UNL     1      -0.935   2.122   1.084  0.00  0.00    +0.009 C 
ATOM      5  C   UNL     1       0.002  -0.004   0.002  0.00  0.00    +0.073 C 
ATOM      6  C   UNL     1       0.664  -0.490   1.293  0.00  0.00    +0.230 C 
ATOM      7  N   UNL     1       1.918   0.211   1.527  0.00  0.00    -0.280 N 
ATOM      8  C   UNL     1       2.248   1.386   0.994  0.00  0.00    +0.233 C 
ATOM      9  O   UNL     1       3.297   1.894   1.328  0.00  0.00    -0.274 OA
ATOM     10  C   UNL     1       1.388   2.117   0.000  0.00  0.00    +0.183 C 
ATOM     11  H   UNL     1       2.563  -0.210   2.116  0.00  0.00    +0.152 HD
ENDROOT
BRANCH   6  12
ATOM     12  C   UNL     1       0.940  -1.991   1.183  0.00  0.00    +0.435 C 
ATOM     13  F   UNL     1       1.792  -2.230   0.099  0.00  0.00    -0.166 F 
ATOM     14  F   UNL     1       1.546  -2.442   2.361  0.00  0.00    -0.166 F 
ATOM     15  F   UNL     1      -0.265  -2.674   0.987  0.00  0.00    -0.166 F 
ENDBRANCH   6  12
BRANCH  10  16
ATOM     16  C   UNL     1       1.968   1.979  -1.346  0.00  0.00    +0.076 C 
ATOM     17  N   UNL     1       2.416   1.873  -2.384  0.00  0.00    -0.196 NA
ENDBRANCH  10  16
BRANCH   6  18
ATOM     18  O   UNL     1      -0.218  -0.254   2.392  0.00  0.00    -0.364 OA
ATOM     19  H   UNL     1       0.133  -0.537   3.247  0.00  0.00    +0.212 HD
ENDBRANCH   6  18
TORSDOF 3
