REMARK  Name = ZINC20214386
REMARK  12 active torsions:
REMARK  status: ('A' for Active; 'I' for Inactive)
REMARK    1  A    between atoms: C_1  and  C_2
REMARK    2  A    between atoms: C_2  and  O_3
REMARK    3  A    between atoms: O_3  and  C_4
REMARK    4  A    between atoms: C_4  and  C_6
REMARK    5  A    between atoms: C_7  and  C_24
REMARK    6  A    between atoms: C_12  and  C_14
REMARK    7  A    between atoms: C_17  and  O_20
REMARK    8  A    between atoms: O_20  and  C_21
REMARK    9  A    between atoms: C_21  and  C_22
REMARK   10  A    between atoms: C_21  and  C_23
REMARK   11  A    between atoms: C_24  and  N_25
REMARK   12  A    between atoms: C_28  and  C_31
REMARK                            x       y       z     vdW  Elec       q    Type
REMARK                         _______ _______ _______ _____ _____    ______ ____
ROOT
ATOM      1  C   UNL     1      -1.017   0.426   0.370  0.00  0.00    +0.079 C 
ATOM      2  C   UNL     1      -2.164   1.125   0.504  0.00  0.00    +0.038 C 
ATOM      3  N   UNL     1      -2.669   1.857  -0.532  0.00  0.00    -0.271 N 
ATOM      4  C   UNL     1      -2.087   1.940  -1.735  0.00  0.00    +0.304 C 
ATOM      5  O   UNL     1      -2.612   2.618  -2.597  0.00  0.00    -0.252 OA
ATOM      6  N   UNL     1      -0.938   1.298  -2.021  0.00  0.00    -0.288 N 
ATOM      7  C   UNL     1      -0.310   0.481  -0.969  0.00  0.00    +0.144 C 
ATOM      8  H   UNL     1      -3.605   2.420  -0.404  0.00  0.00    +0.156 HD
ATOM      9  H   UNL     1      -0.468   1.373  -3.013  0.00  0.00    +0.151 HD
ENDROOT
BRANCH   7  10
ATOM     10  C   UNL     1       1.082   1.010  -0.738  0.00  0.00    -0.022 A 
ATOM     11  C   UNL     1       1.300   2.374  -0.671  0.00  0.00    +0.009 A 
ATOM     12  C   UNL     1       2.574   2.861  -0.454  0.00  0.00    +0.046 A 
ATOM     13  C   UNL     1       3.637   1.982  -0.315  0.00  0.00    +0.121 A 
ATOM     14  C   UNL     1       3.417   0.614  -0.388  0.00  0.00    +0.046 A 
ATOM     15  C   UNL     1       2.140   0.131  -0.600  0.00  0.00    +0.009 A 
BRANCH  13  16
ATOM     16  O   UNL     1       4.893   2.459  -0.106  0.00  0.00    -0.489 OA
BRANCH  16  17
ATOM     17  C   UNL     1       5.921   1.496   0.136  0.00  0.00    +0.167 C 
ATOM     18  C   UNL     1       6.462   0.982  -1.200  0.00  0.00    +0.051 C 
ATOM     19  C   UNL     1       7.055   2.150   0.928  0.00  0.00    +0.051 C 
ENDBRANCH  16  17
ENDBRANCH  13  16
ENDBRANCH   7  10
BRANCH   1  20
ATOM     20  C   UNL     1      -0.492  -0.332   1.443  0.00  0.00    +0.339 C 
ATOM     21  O   UNL     1       0.411   0.119   2.122  0.00  0.00    -0.245 OA
BRANCH  20  22
ATOM     22  O   UNL     1      -0.994  -1.555   1.714  0.00  0.00    -0.462 OA
BRANCH  22  24
ATOM     23  C   UNL     1      -1.110  -3.620   2.964  0.00  0.00    +0.048 C 
ATOM     24  C   UNL     1      -0.417  -2.264   2.812  0.00  0.00    +0.229 C 
ENDBRANCH  22  24
ENDBRANCH  20  22
ENDBRANCH   1  20
BRANCH   2  25
ATOM     25  C   UNL     1      -2.899   1.099   1.820  0.00  0.00    +0.135 C 
BRANCH  25  26
ATOM     26  N   UNL     1      -2.895   2.444   2.411  0.00  0.00    -0.297 NA
ATOM     27  C   UNL     1      -1.532   2.854   2.774  0.00  0.00    +0.085 C 
ATOM     28  C   UNL     1      -1.546   4.309   3.249  0.00  0.00    +0.028 C 
ATOM     29  C   UNL     1      -2.477   4.437   4.457  0.00  0.00    +0.077 C 
ATOM     30  C   UNL     1      -3.878   3.958   4.066  0.00  0.00    +0.028 C 
ATOM     31  C   UNL     1      -3.796   2.513   3.567  0.00  0.00    +0.085 C 
BRANCH  29  32
ATOM     32  C   UNL     1      -2.542   5.878   4.894  0.00  0.00    +0.214 C 
ATOM     33  O   UNL     1      -3.603   6.465   4.893  0.00  0.00    -0.276 OA
ATOM     34  N   UNL     1      -1.420   6.514   5.286  0.00  0.00    -0.329 N 
ATOM     35  H   UNL     1      -1.468   7.566   5.605  0.00  0.00    +0.145 HD
ATOM     36  H   UNL     1      -0.458   5.982   5.287  0.00  0.00    +0.145 HD
ENDBRANCH  29  32
ENDBRANCH  25  26
ENDBRANCH   2  25
TORSDOF 9
