REMARK  Name = ZINC55778519
REMARK  4 active torsions:
REMARK  status: ('A' for Active; 'I' for Inactive)
REMARK    1  A    between atoms: C_4  and  N_23
REMARK    2  A    between atoms: C_5  and  C_7
REMARK    3  A    between atoms: C_7  and  C_8
REMARK    4  A    between atoms: C_14  and  C_16
REMARK                            x       y       z     vdW  Elec       q    Type
REMARK                         _______ _______ _______ _____ _____    ______ ____
ROOT
ATOM      1  C   UNL     1       1.571  -2.682   1.381  0.00  0.00    +0.220 C 
ATOM      2  O   UNL     1       1.473  -1.910   2.311  0.00  0.00    -0.275 OA
ATOM      3  N   UNL     1       1.723  -4.001   1.613  0.00  0.00    -0.294 N 
ATOM      4  C   UNL     1       1.861  -5.045   0.582  0.00  0.00    +0.108 C 
ATOM      5  C   UNL     1       1.388  -6.349   1.271  0.00  0.00    +0.021 C 
ATOM      6  C   UNL     1       1.934  -6.155   2.711  0.00  0.00    +0.029 C 
ATOM      7  C   UNL     1       1.785  -4.636   2.938  0.00  0.00    +0.108 C 
ENDROOT
BRANCH   7   8
ATOM      8  C   UNL     1       2.971  -4.111   3.704  0.00  0.00    -0.009 A 
ATOM      9  C   UNL     1       4.016  -3.505   3.030  0.00  0.00    +0.007 A 
ATOM     10  C   UNL     1       5.104  -3.023   3.732  0.00  0.00    +0.000 A 
ATOM     11  C   UNL     1       5.149  -3.146   5.109  0.00  0.00    +0.001 A 
ATOM     12  C   UNL     1       4.106  -3.751   5.783  0.00  0.00    +0.020 A 
ATOM     13  C   UNL     1       3.013  -4.229   5.081  0.00  0.00    +0.046 A 
ATOM     14 CL   UNL     1       1.699  -4.983   5.929  0.00  0.00    -0.083 Cl
ENDBRANCH   7   8
BRANCH   1  15
ATOM     15  C   UNL     1       1.524  -2.167  -0.034  0.00  0.00    +0.133 C 
BRANCH  15  20
ATOM     16  C   UNL     1      -0.063   1.255  -0.196  0.00  0.00    +0.000 A 
ATOM     17  C   UNL     1       1.030   2.076   0.009  0.00  0.00    +0.002 A 
ATOM     18  C   UNL     1       2.283   1.524   0.199  0.00  0.00    +0.033 A 
ATOM     19  C   UNL     1       2.443   0.151   0.185  0.00  0.00    +0.130 A 
ATOM     20  C   UNL     1       1.350  -0.670  -0.018  0.00  0.00    -0.008 A 
ATOM     21  C   UNL     1       0.097  -0.118  -0.210  0.00  0.00    +0.006 A 
BRANCH  19  22
ATOM     22  N   UNL     1       3.785  -0.440   0.388  0.00  0.00    +0.057 N 
ATOM     23  O   UNL     1       4.756   0.277   0.461  0.00  0.00    -0.126 OA
ATOM     24  O   UNL     1       3.910  -1.639   0.481  0.00  0.00    -0.126 OA
ENDBRANCH  19  22
ENDBRANCH  15  20
ENDBRANCH   1  15
TORSDOF 4
