REMARK  Name = ZINC40824480
REMARK  8 active torsions:
REMARK  status: ('A' for Active; 'I' for Inactive)
REMARK    1  A    between atoms: C_1  and  C_2
REMARK    2  A    between atoms: C_2  and  C_3
REMARK    3  A    between atoms: C_6  and  N_9
REMARK    4  A    between atoms: C_10  and  C_12
REMARK    5  A    between atoms: C_13  and  C_26
REMARK    6  A    between atoms: N_21  and  N_22
REMARK    7  A    between atoms: N_22  and  C_23
REMARK    8  A    between atoms: C_23  and  N_25
REMARK                            x       y       z     vdW  Elec       q    Type
REMARK                         _______ _______ _______ _____ _____    ______ ____
ROOT
ATOM      1  C   UNL     1      -7.406  -2.509  -1.097  0.00  0.00    +0.193 A 
ATOM      2  C   UNL     1      -8.199  -2.688  -2.196  0.00  0.00    +0.009 A 
ATOM      3  C   UNL     1      -9.457  -3.068  -1.713  0.00  0.00    +0.042 A 
ATOM      4  C   UNL     1      -9.379  -3.103  -0.341  0.00  0.00    +0.115 A 
ATOM      5  O   UNL     1      -8.138  -2.772   0.009  0.00  0.00    -0.454 OA
ATOM      6  C   UNL     1     -10.548  -3.469   0.538  0.00  0.00    +0.075 C 
ATOM      7  C   UNL     1     -11.851  -3.274  -0.241  0.00  0.00    +0.014 C 
ATOM      8  C   UNL     1     -11.800  -4.023  -1.576  0.00  0.00    +0.058 C 
ATOM      9  C   UNL     1     -10.708  -3.397  -2.432  0.00  0.00    +0.070 C 
ATOM     10  N   UNL     1     -10.863  -3.168  -3.700  0.00  0.00    -0.185 NA
ATOM     11  C   UNL     1      -7.800  -2.510  -3.639  0.00  0.00    +0.048 C 
ENDROOT
BRANCH   1  13
ATOM     12  N   UNL     1      -5.319  -1.969   0.042  0.00  0.00    -0.279 N 
ATOM     13  C   UNL     1      -5.996  -2.106  -1.115  0.00  0.00    +0.284 C 
ATOM     14  O   UNL     1      -5.437  -1.894  -2.175  0.00  0.00    -0.266 OA
ATOM     15  H   UNL     1      -5.740  -2.210   0.882  0.00  0.00    +0.155 HD
BRANCH  12  19
ATOM     16  C   UNL     1      -1.418  -0.509   0.013  0.00  0.00    -0.048 A 
ATOM     17  C   UNL     1      -1.796  -1.450   0.954  0.00  0.00    +0.005 A 
ATOM     18  C   UNL     1      -3.088  -1.936   0.966  0.00  0.00    +0.023 A 
ATOM     19  C   UNL     1      -4.009  -1.478   0.033  0.00  0.00    +0.034 A 
ATOM     20  C   UNL     1      -3.627  -0.533  -0.910  0.00  0.00    +0.023 A 
ATOM     21  C   UNL     1      -2.334  -0.047  -0.913  0.00  0.00    +0.005 A 
BRANCH  16  23
ATOM     22  C   UNL     1       0.085   1.250   0.906  0.00  0.00    +0.009 C 
ATOM     23  C   UNL     1      -0.006   0.018   0.003  0.00  0.00    +0.032 C 
ENDBRANCH  16  23
ENDBRANCH  12  19
ENDBRANCH   1  13
BRANCH  10  24
ATOM     24  N   UNL     1     -12.070  -3.501  -4.329  0.00  0.00    -0.218 N 
ATOM     25  H   UNL     1     -12.789  -3.902  -3.817  0.00  0.00    +0.176 HD
BRANCH  24  26
ATOM     26  C   UNL     1     -12.231  -3.263  -5.646  0.00  0.00    +0.147 C 
ATOM     27  S   UNL     1     -13.705  -3.669  -6.415  0.00  0.00    -0.017 S 
BRANCH  26  28
ATOM     28  N   UNL     1     -11.231  -2.706  -6.357  0.00  0.00    -0.339 N 
ATOM     29  H   UNL     1     -10.395  -2.475  -5.921  0.00  0.00    +0.144 HD
ATOM     30  H   UNL     1     -11.347  -2.535  -7.305  0.00  0.00    +0.144 HD
ENDBRANCH  26  28
ENDBRANCH  24  26
ENDBRANCH  10  24
TORSDOF 6
