REMARK  Name = ZINC35668515
REMARK  7 active torsions:
REMARK  status: ('A' for Active; 'I' for Inactive)
REMARK    1  A    between atoms: C_6  and  S_7
REMARK    2  A    between atoms: S_7  and  C_8
REMARK    3  A    between atoms: C_8  and  C_9
REMARK    4  A    between atoms: N_11  and  C_12
REMARK    5  A    between atoms: C_12  and  N_14
REMARK    6  A    between atoms: N_14  and  C_15
REMARK    7  A    between atoms: C_16  and  C_24
REMARK                            x       y       z     vdW  Elec       q    Type
REMARK                         _______ _______ _______ _____ _____    ______ ____
ROOT
ATOM      1  N   UNL     1      -2.989  -7.013  -0.006  0.00  0.00    -0.291 N 
ATOM      2  H   UNL     1      -2.100  -7.403  -0.017  0.00  0.00    +0.154 HD
ENDROOT
BRANCH   1   3
ATOM      3  C   UNL     1      -4.105  -7.834   0.001  0.00  0.00    +0.084 A 
ATOM      4  C   UNL     1      -4.144  -9.220  -0.001  0.00  0.00    +0.068 A 
ATOM      5  C   UNL     1      -5.455  -9.847   0.007  0.00  0.00    -0.023 A 
ATOM      6  C   UNL     1      -6.485  -8.974   0.015  0.00  0.00    -0.004 A 
ATOM      7  S   UNL     1      -5.721  -7.379   0.020  0.00  0.00    -0.077 S 
ATOM      8  C   UNL     1      -7.945  -9.306   0.023  0.00  0.00    +0.043 C 
ATOM      9  C   UNL     1      -8.106 -10.784  -0.360  0.00  0.00    +0.005 C 
ATOM     10  C   UNL     1      -7.126 -11.620   0.469  0.00  0.00    +0.005 C 
ATOM     11  C   UNL     1      -5.692 -11.350   0.009  0.00  0.00    +0.037 C 
BRANCH   4  12
ATOM     12  C   UNL     1      -2.915 -10.019  -0.010  0.00  0.00    +0.244 C 
ATOM     13  O   UNL     1      -2.398 -10.352   1.040  0.00  0.00    -0.270 OA
ATOM     14  N   UNL     1      -2.358 -10.384  -1.182  0.00  0.00    -0.325 N 
ATOM     15  H   UNL     1      -2.771 -10.119  -2.019  0.00  0.00    +0.145 HD
ATOM     16  H   UNL     1      -1.545 -10.913  -1.188  0.00  0.00    +0.145 HD
ENDBRANCH   4  12
ENDBRANCH   1   3
BRANCH   1  17
ATOM     17  C   UNL     1      -3.137  -5.674   0.003  0.00  0.00    +0.141 C 
ATOM     18  S   UNL     1      -4.705  -4.986   0.022  0.00  0.00    -0.018 S 
BRANCH  17  21
ATOM     19  C   UNL     1      -2.199  -3.536   0.005  0.00  0.00    +0.229 C 
ATOM     20  O   UNL     1      -3.309  -3.049   0.019  0.00  0.00    -0.275 OA
ATOM     21  N   UNL     1      -2.051  -4.876  -0.004  0.00  0.00    -0.267 N 
ATOM     22  H   UNL     1      -1.163  -5.265  -0.015  0.00  0.00    +0.157 HD
BRANCH  19  23
ATOM     23  C   UNL     1      -0.985  -2.644  -0.002  0.00  0.00    +0.170 C 
BRANCH  23  24
ATOM     24  S   UNL     1      -1.511  -0.907   0.012  0.00  0.00    -0.116 S 
BRANCH  24  30
ATOM     25  C   UNL     1      -0.017   1.385   0.010  0.00  0.00    +0.016 A 
ATOM     26  C   UNL     1       1.170   2.091   0.002  0.00  0.00    +0.021 A 
ATOM     27  C   UNL     1       2.378   1.415  -0.013  0.00  0.00    +0.041 A 
ATOM     28  C   UNL     1       2.400   0.031  -0.021  0.00  0.00    +0.021 A 
ATOM     29  C   UNL     1       1.216  -0.680  -0.013  0.00  0.00    +0.016 A 
ATOM     30  C   UNL     1       0.002  -0.004   0.002  0.00  0.00    +0.008 A 
ATOM     31 CL   UNL     1       3.869   2.305  -0.023  0.00  0.00    -0.084 Cl
ENDBRANCH  24  30
ENDBRANCH  23  24
ENDBRANCH  19  23
ENDBRANCH  17  21
ENDBRANCH   1  17
TORSDOF 7
