REMARK  Name = ZINC39722419
REMARK  7 active torsions:
REMARK  status: ('A' for Active; 'I' for Inactive)
REMARK    1  A    between atoms: C_1  and  C_2
REMARK    2  A    between atoms: C_2  and  N_3
REMARK    3  A    between atoms: C_4  and  C_27
REMARK    4  A    between atoms: C_8  and  S_10
REMARK    5  A    between atoms: S_10  and  C_11
REMARK    6  A    between atoms: C_11  and  C_12
REMARK    7  A    between atoms: C_20  and  C_24
REMARK                            x       y       z     vdW  Elec       q    Type
REMARK                         _______ _______ _______ _____ _____    ______ ____
ROOT
ATOM      1  N   UNL     1       0.947  -0.594   0.875  0.00  0.00    +0.410 N 
ATOM      2  C   UNL     1       0.570  -1.961   1.304  0.00  0.00    +0.049 C 
ATOM      3  N   UNL     1       1.751  -2.792   0.953  0.00  0.00    -0.267 NA
ATOM      4  N   UNL     1       2.884  -1.906   1.259  0.00  0.00    -0.262 NA
ATOM      5  C   UNL     1       2.424  -0.561   0.846  0.00  0.00    +0.077 C 
ATOM      6  H   UNL     1       1.784  -3.629   1.516  0.00  0.00    +0.139 HD
ATOM      7  H   UNL     1       3.707  -2.180   0.744  0.00  0.00    +0.140 HD
ATOM      8  H   UNL     1       0.598   0.085   1.535  0.00  0.00    -0.075 HD
ENDROOT
BRANCH   2   9
ATOM      9  C   UNL     1      -0.651  -2.430   0.555  0.00  0.00    -0.046 A 
ATOM     10  C   UNL     1      -0.531  -2.888  -0.744  0.00  0.00    +0.005 A 
ATOM     11  C   UNL     1      -1.650  -3.319  -1.431  0.00  0.00    +0.020 A 
ATOM     12  C   UNL     1      -2.890  -3.292  -0.819  0.00  0.00    +0.041 A 
ATOM     13  C   UNL     1      -3.010  -2.834   0.481  0.00  0.00    +0.020 A 
ATOM     14  C   UNL     1      -1.889  -2.409   1.169  0.00  0.00    +0.005 A 
ATOM     15 CL   UNL     1      -4.296  -3.833  -1.682  0.00  0.00    -0.084 Cl
ENDBRANCH   2   9
BRANCH   1  17
ATOM     16  C   UNL     1       0.753   1.116  -0.867  0.00  0.00    -0.017 C 
ATOM     17  C   UNL     1       0.410  -0.320  -0.464  0.00  0.00    -0.076 C 
ENDBRANCH   1  17
BRANCH   5  18
ATOM     18  S   UNL     1       3.041   0.691   2.005  0.00  0.00    -0.152 S 
BRANCH  18  19
ATOM     19  C   UNL     1       2.408   0.147   3.616  0.00  0.00    +0.143 C 
BRANCH  19  20
ATOM     20  C   UNL     1       2.854   1.113   4.683  0.00  0.00    +0.120 A 
ATOM     21  N   UNL     1       2.483   0.871   5.967  0.00  0.00    -0.310 N 
ATOM     22  H   UNL     1       1.943   0.092   6.172  0.00  0.00    +0.170 HD
ATOM     23  C   UNL     1       2.858   1.708   6.962  0.00  0.00    +0.259 A 
ATOM     24  O   UNL     1       2.532   1.504   8.117  0.00  0.00    -0.267 OA
ATOM     25  C   UNL     1       3.677   2.876   6.593  0.00  0.00    +0.065 A 
ATOM     26  C   UNL     1       4.114   3.796   7.545  0.00  0.00    +0.016 A 
ATOM     27  C   UNL     1       4.871   4.865   7.159  0.00  0.00    +0.016 A 
ATOM     28  C   UNL     1       5.215   5.047   5.813  0.00  0.00    +0.065 A 
ATOM     29  C   UNL     1       4.788   4.140   4.849  0.00  0.00    +0.043 A 
ATOM     30  C   UNL     1       4.014   3.044   5.232  0.00  0.00    +0.079 A 
ATOM     31  N   UNL     1       3.579   2.130   4.329  0.00  0.00    -0.233 NA
BRANCH  28  32
ATOM     32  C   UNL     1       6.036   6.210   5.416  0.00  0.00    +0.387 C 
ATOM     33  O   UNL     1       6.413   7.009   6.260  0.00  0.00    -0.241 OA
ATOM     34  O   UNL     1       6.338   6.372   4.242  0.00  0.00    -0.241 OA
ENDBRANCH  28  32
ENDBRANCH  19  20
ENDBRANCH  18  19
ENDBRANCH   5  18
TORSDOF 6
