REMARK  Name = ZINC04373241
REMARK  7 active torsions:
REMARK  status: ('A' for Active; 'I' for Inactive)
REMARK    1  A    between atoms: C_1  and  C_2
REMARK    2  A    between atoms: C_5  and  N_9
REMARK    3  A    between atoms: C_7  and  C_8
REMARK    4  A    between atoms: C_11  and  N_16
REMARK    5  A    between atoms: N_19  and  C_20
REMARK    6  A    between atoms: C_20  and  C_21
REMARK    7  A    between atoms: C_28  and  C_31
REMARK                            x       y       z     vdW  Elec       q    Type
REMARK                         _______ _______ _______ _____ _____    ______ ____
ROOT
ATOM      1  N   UNL     1      -5.034   0.716  -1.772  0.00  0.00    -0.295 N 
ATOM      2  C   UNL     1      -6.133   0.144  -2.302  0.00  0.00    +0.300 C 
ATOM      3  O   UNL     1      -6.891  -0.489  -1.592  0.00  0.00    -0.253 OA
ATOM      4  N   UNL     1      -6.393   0.273  -3.618  0.00  0.00    -0.295 N 
ATOM      5  H   UNL     1      -4.430   1.221  -2.338  0.00  0.00    +0.151 HD
ATOM      6  H   UNL     1      -5.788   0.777  -4.184  0.00  0.00    +0.151 HD
ENDROOT
BRANCH   1   9
ATOM      7  N   UNL     1      -2.427   1.041   0.019  0.00  0.00    -0.270 N 
ATOM      8  C   UNL     1      -3.755   1.655   0.140  0.00  0.00    +0.136 C 
ATOM      9  C   UNL     1      -4.752   0.576  -0.342  0.00  0.00    +0.101 C 
ATOM     10  C   UNL     1      -3.967  -0.725  -0.057  0.00  0.00    +0.120 C 
ATOM     11  C   UNL     1      -2.516  -0.297  -0.084  0.00  0.00    +0.222 C 
ATOM     12  O   UNL     1      -1.571  -1.050  -0.183  0.00  0.00    -0.275 OA
BRANCH   7  17
ATOM     13  C   UNL     1       2.452   3.934  -0.002  0.00  0.00    +0.044 C 
ATOM     14  C   UNL     1       1.156   3.166   0.007  0.00  0.00    -0.047 A 
ATOM     15  C   UNL     1      -0.049   3.845   0.007  0.00  0.00    +0.005 A 
ATOM     16  C   UNL     1      -1.238   3.143   0.014  0.00  0.00    +0.024 A 
ATOM     17  C   UNL     1      -1.224   1.754   0.017  0.00  0.00    +0.037 A 
ATOM     18  C   UNL     1      -0.013   1.076   0.023  0.00  0.00    +0.027 A 
ATOM     19  C   UNL     1       1.174   1.783   0.016  0.00  0.00    -0.046 A 
ATOM     20  C   UNL     1       2.489   1.048   0.017  0.00  0.00    +0.044 C 
ENDBRANCH   7  17
ENDBRANCH   1   9
BRANCH   4  21
ATOM     21  C   UNL     1      -7.588  -0.350  -4.194  0.00  0.00    +0.141 C 
BRANCH  21  22
ATOM     22  C   UNL     1      -7.644  -0.058  -5.671  0.00  0.00    -0.030 A 
ATOM     23  C   UNL     1      -8.305   1.076  -6.124  0.00  0.00    +0.007 A 
ATOM     24  C   UNL     1      -8.363   1.365  -7.470  0.00  0.00    +0.026 A 
ATOM     25  C   UNL     1      -7.765   0.507  -8.387  0.00  0.00    +0.047 A 
ATOM     26  C   UNL     1      -7.102  -0.644  -7.923  0.00  0.00    +0.000 A 
ATOM     27  C   UNL     1      -7.050  -0.914  -6.554  0.00  0.00    +0.015 A 
ATOM     28  C   UNL     1      -6.589  -1.324  -9.115  0.00  0.00    +0.030 A 
ATOM     29  C   UNL     1      -6.952  -0.584 -10.175  0.00  0.00    +0.014 A 
ATOM     30  N   UNL     1      -7.656   0.513  -9.759  0.00  0.00    -0.358 N 
ATOM     31  H   UNL     1      -8.023   1.194 -10.344  0.00  0.00    +0.166 HD
ATOM     32  C   UNL     1      -6.633  -0.914 -11.610  0.00  0.00    +0.063 C 
ENDBRANCH  21  22
ENDBRANCH   4  21
TORSDOF 4
