REMARK  Name = ZINC43553798
REMARK  12 active torsions:
REMARK  status: ('A' for Active; 'I' for Inactive)
REMARK    1  A    between atoms: C_1  and  C_2
REMARK    2  A    between atoms: C_5  and  O_31
REMARK    3  A    between atoms: C_7  and  C_28
REMARK    4  A    between atoms: C_7  and  C_29
REMARK    5  A    between atoms: C_12  and  O_27
REMARK    6  A    between atoms: C_14  and  C_16
REMARK    7  A    between atoms: C_16  and  C_17
REMARK    8  A    between atoms: C_23  and  C_25
REMARK    9  A    between atoms: C_25  and  O_26
REMARK   10  A    between atoms: C_29  and  O_30
REMARK   11  A    between atoms: O_31  and  C_32
REMARK   12  A    between atoms: N_34  and  C_35
REMARK                            x       y       z     vdW  Elec       q    Type
REMARK                         _______ _______ _______ _____ _____    ______ ____
ROOT
ATOM      1  C   UNL     1       0.179   1.516  -0.016  0.00  0.00    +0.012 C 
ATOM      2  C   UNL     1       0.170  -0.025  -0.010  0.00  0.00    -0.023 C 
ATOM      3  C   UNL     1      -1.277  -0.505   0.010  0.00  0.00    +0.011 C 
ATOM      4  C   UNL     1      -1.965  -0.027   1.291  0.00  0.00    +0.046 C 
ATOM      5  C   UNL     1      -1.260  -0.599   2.512  0.00  0.00    +0.186 C 
ATOM      6  C   UNL     1       0.230  -0.280   2.529  0.00  0.00    +0.031 C 
ATOM      7  C   UNL     1       0.919  -0.572   1.203  0.00  0.00    +0.007 C 
ATOM      8  C   UNL     1       1.122  -2.083   1.050  0.00  0.00    +0.007 C 
ATOM      9  C   UNL     1       1.890  -2.405  -0.234  0.00  0.00    +0.032 C 
ATOM     10  C   UNL     1       1.084  -1.923  -1.438  0.00  0.00    +0.119 C 
ATOM     11  C   UNL     1       0.868  -0.424  -1.312  0.00  0.00    +0.032 C 
ATOM     12  C   UNL     1       0.442   1.173   2.977  0.00  0.00    +0.017 C 
ENDROOT
BRANCH  10  13
ATOM     13  O   UNL     1      -0.152  -2.624  -1.527  0.00  0.00    -0.391 OA
ATOM     14  H   UNL     1      -0.055  -3.581  -1.627  0.00  0.00    +0.210 HD
ENDBRANCH  10  13
BRANCH  11  15
ATOM     15  C   UNL     1       0.091   0.101  -2.521  0.00  0.00    +0.102 C 
BRANCH  15  16
ATOM     16  C   UNL     1       0.862  -0.198  -3.781  0.00  0.00    +0.216 C 
ATOM     17  O   UNL     1       1.927  -0.774  -3.719  0.00  0.00    -0.276 OA
ATOM     18  N   UNL     1       0.366   0.175  -4.978  0.00  0.00    -0.296 N 
ATOM     19  C   UNL     1      -0.907   0.885  -5.197  0.00  0.00    +0.108 C 
ATOM     20  C   UNL     1      -1.311   0.534  -6.651  0.00  0.00    +0.021 C 
ATOM     21  C   UNL     1       0.068   0.517  -7.362  0.00  0.00    +0.026 C 
ATOM     22  C   UNL     1       1.010  -0.052  -6.280  0.00  0.00    +0.101 C 
BRANCH  22  23
ATOM     23  C   UNL     1       2.358   0.670  -6.328  0.00  0.00    +0.178 C 
BRANCH  23  24
ATOM     24  O   UNL     1       2.145   2.082  -6.258  0.00  0.00    -0.393 OA
ATOM     25  H   UNL     1       2.958   2.604  -6.283  0.00  0.00    +0.209 HD
ENDBRANCH  23  24
ENDBRANCH  22  23
ENDBRANCH  15  16
ENDBRANCH  11  15
BRANCH   6  26
ATOM     26  C   UNL     1       0.864  -1.144   3.645  0.00  0.00    +0.166 C 
BRANCH  26  27
ATOM     27  O   UNL     1       0.262  -0.817   4.899  0.00  0.00    -0.394 OA
ATOM     28  H   UNL     1       0.612  -1.322   5.646  0.00  0.00    +0.209 HD
ENDBRANCH  26  27
ENDBRANCH   6  26
BRANCH   5  29
ATOM     29  O   UNL     1      -1.457  -2.015   2.568  0.00  0.00    -0.446 OA
BRANCH  29  30
ATOM     30  C   UNL     1      -2.535  -2.456   3.243  0.00  0.00    +0.401 C 
ATOM     31  O   UNL     1      -3.288  -1.661   3.771  0.00  0.00    -0.226 OA
ATOM     32  N   UNL     1      -2.778  -3.778   3.334  0.00  0.00    -0.278 N 
ATOM     33  H   UNL     1      -2.177  -4.412   2.913  0.00  0.00    +0.152 HD
BRANCH  32  34
ATOM     34  C   UNL     1      -3.951  -4.258   4.069  0.00  0.00    +0.076 C 
ATOM     35  C   UNL     1      -3.611  -4.367   5.557  0.00  0.00    +0.022 C 
ATOM     36  C   UNL     1      -4.837  -4.868   6.324  0.00  0.00    +0.002 C 
ATOM     37  C   UNL     1      -5.244  -6.243   5.792  0.00  0.00    +0.000 C 
ATOM     38  C   UNL     1      -5.584  -6.134   4.305  0.00  0.00    +0.002 C 
ATOM     39  C   UNL     1      -4.359  -5.633   3.537  0.00  0.00    +0.022 C 
ENDBRANCH  32  34
ENDBRANCH  29  30
ENDBRANCH   5  29
TORSDOF 10
