REMARK  Name = ZINC14460866
REMARK  4 active torsions:
REMARK  status: ('A' for Active; 'I' for Inactive)
REMARK    1  A    between atoms: C_1  and  C_2
REMARK    2  A    between atoms: C_4  and  N_26
REMARK    3  A    between atoms: C_9  and  C_18
REMARK    4  A    between atoms: C_23  and  O_24
REMARK                            x       y       z     vdW  Elec       q    Type
REMARK                         _______ _______ _______ _____ _____    ______ ____
ROOT
ATOM      1  C   UNL     1       0.362   0.181   0.504  0.00  0.00    +0.046 C 
ATOM      2  C   UNL     1       0.243  -1.226  -0.021  0.00  0.00    -0.027 A 
ATOM      3  C   UNL     1       0.368  -2.293   0.844  0.00  0.00    +0.038 A 
ATOM      4  C   UNL     1       0.259  -3.584   0.362  0.00  0.00    +0.127 A 
ATOM      5  C   UNL     1       0.023  -3.803  -0.980  0.00  0.00    +0.038 A 
ATOM      6  C   UNL     1      -0.107  -2.736  -1.858  0.00  0.00    -0.017 A 
ATOM      7  C   UNL     1       0.000  -1.443  -1.376  0.00  0.00    +0.034 A 
ATOM      8  N   UNL     1      -0.119  -0.329  -2.206  0.00  0.00    -0.336 N 
ATOM      9  C   UNL     1      -0.935  -0.605  -3.389  0.00  0.00    +0.108 C 
ATOM     10  C   UNL     1      -0.321  -1.768  -4.171  0.00  0.00    +0.029 C 
ATOM     11  C   UNL     1      -0.370  -3.042  -3.303  0.00  0.00    +0.049 C 
ATOM     12  C   UNL     1      -1.791  -3.550  -3.486  0.00  0.00    -0.023 C 
ATOM     13  C   UNL     1      -2.313  -3.063  -4.584  0.00  0.00    -0.030 C 
ATOM     14  C   UNL     1      -1.319  -2.166  -5.294  0.00  0.00    +0.033 C 
ATOM     15  H   UNL     1      -0.477   0.465  -1.696  0.00  0.00    +0.147 HD
ENDROOT
BRANCH   9  16
ATOM     16  C   UNL     1      -2.333  -0.970  -2.961  0.00  0.00    +0.015 A 
ATOM     17  C   UNL     1      -2.538  -1.649  -1.775  0.00  0.00    +0.024 A 
ATOM     18  C   UNL     1      -3.821  -1.980  -1.380  0.00  0.00    +0.018 A 
ATOM     19  C   UNL     1      -4.902  -1.641  -2.175  0.00  0.00    +0.019 A 
ATOM     20  C   UNL     1      -4.701  -0.966  -3.364  0.00  0.00    +0.047 A 
ATOM     21  C   UNL     1      -3.414  -0.629  -3.760  0.00  0.00    +0.122 A 
ATOM     22 BR   UNL     1      -4.099  -2.904   0.246  0.00  0.00    -0.050 Br
BRANCH  21  23
ATOM     23  O   UNL     1      -3.215   0.034  -4.929  0.00  0.00    -0.506 OA
ATOM     24  H   UNL     1      -3.193  -0.539  -5.708  0.00  0.00    +0.292 HD
ENDBRANCH  21  23
ENDBRANCH   9  16
BRANCH   4  25
ATOM     25  N   UNL     1       0.394  -4.733   1.286  0.00  0.00    +0.056 N 
ATOM     26  O   UNL     1       0.602  -4.540   2.471  0.00  0.00    -0.126 OA
ATOM     27  O   UNL     1       0.298  -5.870   0.862  0.00  0.00    -0.126 OA
ENDBRANCH   4  25
TORSDOF 3
