REMARK  Name = ZINC14274883
REMARK  6 active torsions:
REMARK  status: ('A' for Active; 'I' for Inactive)
REMARK    1  A    between atoms: C_1  and  O_2
REMARK    2  A    between atoms: O_2  and  C_3
REMARK    3  A    between atoms: C_6  and  C_11
REMARK    4  A    between atoms: N_13  and  C_14
REMARK    5  A    between atoms: C_14  and  N_16
REMARK    6  A    between atoms: N_16  and  C_17
REMARK                            x       y       z     vdW  Elec       q    Type
REMARK                         _______ _______ _______ _____ _____    ______ ____
ROOT
ATOM      1  N   UNL     1       3.188  -5.781  -5.553  0.00  0.00    -0.296 N 
ATOM      2  H   UNL     1       3.684  -5.171  -4.986  0.00  0.00    +0.154 HD
ENDROOT
BRANCH   1   3
ATOM      3  C   UNL     1       3.840  -6.474  -6.570  0.00  0.00    +0.036 C 
ATOM      4  C   UNL     1       4.502  -5.773  -7.561  0.00  0.00    +0.074 C 
ATOM      5  C   UNL     1       5.158  -6.467  -8.583  0.00  0.00    +0.193 C 
ATOM      6  O   UNL     1       5.748  -5.856  -9.467  0.00  0.00    -0.287 OA
ATOM      7  C   UNL     1       5.133  -7.887  -8.586  0.00  0.00    +0.079 C 
ATOM      8  C   UNL     1       5.789  -8.607  -9.608  0.00  0.00    +0.202 C 
ATOM      9  N   UNL     1       6.475  -8.058 -10.630  0.00  0.00    -0.282 N 
ATOM     10  C   UNL     1       6.965  -9.099 -11.412  0.00  0.00    +0.076 A 
ATOM     11  C   UNL     1       7.727  -9.144 -12.570  0.00  0.00    +0.027 A 
ATOM     12  C   UNL     1       8.063 -10.363 -13.124  0.00  0.00    +0.002 A 
ATOM     13  C   UNL     1       7.641 -11.539 -12.527  0.00  0.00    +0.004 A 
ATOM     14  C   UNL     1       6.882 -11.504 -11.374  0.00  0.00    +0.048 A 
ATOM     15  C   UNL     1       6.540 -10.284 -10.809  0.00  0.00    +0.151 A 
ATOM     16  O   UNL     1       5.830  -9.942  -9.708  0.00  0.00    -0.439 OA
ATOM     17  C   UNL     1       4.451  -8.569  -7.564  0.00  0.00    +0.018 C 
ATOM     18  C   UNL     1       3.825  -7.872  -6.577  0.00  0.00    +0.024 C 
ATOM     19  H   UNL     1       6.604  -7.110 -10.791  0.00  0.00    +0.155 HD
ENDBRANCH   1   3
BRANCH   1  20
ATOM     20  C   UNL     1       1.866  -5.959  -5.356  0.00  0.00    +0.141 C 
ATOM     21  S   UNL     1       0.964  -6.933  -6.437  0.00  0.00    -0.018 S 
BRANCH  20  24
ATOM     22  C   UNL     1      -0.067  -5.547  -4.114  0.00  0.00    +0.255 C 
ATOM     23  O   UNL     1      -0.708  -6.239  -4.881  0.00  0.00    -0.270 OA
ATOM     24  N   UNL     1       1.255  -5.369  -4.310  0.00  0.00    -0.263 N 
ATOM     25  H   UNL     1       1.766  -4.817  -3.698  0.00  0.00    +0.157 HD
BRANCH  22  29
ATOM     26  C   UNL     1      -1.992  -3.688  -0.813  0.00  0.00    +0.196 A 
ATOM     27  C   UNL     1      -1.447  -4.960  -0.671  0.00  0.00    +0.204 A 
ATOM     28  C   UNL     1      -0.821  -5.569  -1.740  0.00  0.00    +0.177 A 
ATOM     29  C   UNL     1      -0.734  -4.903  -2.970  0.00  0.00    +0.113 A 
ATOM     30  C   UNL     1      -1.285  -3.622  -3.107  0.00  0.00    +0.177 A 
ATOM     31  C   UNL     1      -1.914  -3.025  -2.033  0.00  0.00    +0.204 A 
ATOM     32  F   UNL     1      -2.451  -1.792  -2.166  0.00  0.00    -0.198 F 
ATOM     33  F   UNL     1      -1.204  -2.974  -4.290  0.00  0.00    -0.201 F 
ATOM     34  F   UNL     1      -0.291  -6.804  -1.601  0.00  0.00    -0.201 F 
ATOM     35  F   UNL     1      -1.531  -5.600   0.515  0.00  0.00    -0.198 F 
BRANCH  26  37
ATOM     36  C   UNL     1      -4.009  -3.330   0.392  0.00  0.00    +0.277 C 
ATOM     37  O   UNL     1      -2.607  -3.094   0.242  0.00  0.00    -0.489 OA
ENDBRANCH  26  37
ENDBRANCH  22  29
ENDBRANCH  20  24
ENDBRANCH   1  20
TORSDOF 5
