REMARK  Name = ZINC15023967
REMARK  5 active torsions:
REMARK  status: ('A' for Active; 'I' for Inactive)
REMARK    1  A    between atoms: C_6  and  C_7
REMARK    2  A    between atoms: C_7  and  C_9
REMARK    3  A    between atoms: C_11  and  C_31
REMARK    4  A    between atoms: C_13  and  C_26
REMARK    5  A    between atoms: C_13  and  C_28
REMARK                            x       y       z     vdW  Elec       q    Type
REMARK                         _______ _______ _______ _____ _____    ______ ____
ROOT
ATOM      1  C   UNL     1       0.406   0.981   0.056  0.00  0.00    +0.155 C 
ATOM      2  C   UNL     1      -0.461   1.410  -1.159  0.00  0.00    +0.078 C 
ATOM      3  C   UNL     1       0.557   1.896  -2.224  0.00  0.00    +0.163 C 
ATOM      4  C   UNL     1       1.921   1.646  -1.576  0.00  0.00    +0.127 C 
ATOM      5  N   UNL     1       1.642   1.752  -0.119  0.00  0.00    -0.310 N 
ATOM      6  C   UNL     1       2.761   1.382   0.591  0.00  0.00    +0.038 A 
ATOM      7  C   UNL     1       2.724   0.569   1.707  0.00  0.00    +0.026 A 
ATOM      8  C   UNL     1       3.898   0.241   2.360  0.00  0.00    +0.040 A 
ATOM      9  C   UNL     1       5.116   0.722   1.904  0.00  0.00    +0.124 A 
ATOM     10  C   UNL     1       5.170   1.540   0.789  0.00  0.00    +0.048 A 
ATOM     11  C   UNL     1       3.998   1.878   0.126  0.00  0.00    -0.001 A 
ATOM     12  C   UNL     1       4.007   2.756  -1.068  0.00  0.00    +0.007 C 
ATOM     13  C   UNL     1       2.976   2.651  -1.926  0.00  0.00    -0.002 C 
ATOM     14  F   UNL     1       6.255   0.392   2.551  0.00  0.00    -0.205 F 
ENDROOT
BRANCH   2  15
ATOM     15  C   UNL     1      -1.246   0.235  -1.683  0.00  0.00    -0.037 A 
ATOM     16  C   UNL     1      -0.616  -0.962  -1.984  0.00  0.00    +0.024 A 
ATOM     17  C   UNL     1      -1.369  -2.020  -2.458  0.00  0.00    +0.111 A 
ATOM     18  N   UNL     1      -2.670  -1.895  -2.634  0.00  0.00    -0.263 NA
ATOM     19  C   UNL     1      -3.302  -0.770  -2.363  0.00  0.00    +0.111 A 
ATOM     20  C   UNL     1      -2.615   0.328  -1.881  0.00  0.00    +0.024 A 
ENDBRANCH   2  15
BRANCH   3  21
ATOM     21  C   UNL     1       0.419   1.093  -3.491  0.00  0.00    +0.233 C 
ATOM     22  O   UNL     1       1.282   0.300  -3.804  0.00  0.00    -0.274 OA
ATOM     23  N   UNL     1      -0.663   1.257  -4.278  0.00  0.00    -0.328 N 
ATOM     24  H   UNL     1      -1.353   1.891  -4.029  0.00  0.00    +0.145 HD
ATOM     25  H   UNL     1      -0.751   0.740  -5.095  0.00  0.00    +0.145 HD
ENDBRANCH   3  21
BRANCH   1  26
ATOM     26  C   UNL     1      -0.270   1.350   1.352  0.00  0.00    +0.184 C 
ATOM     27  O   UNL     1       0.042   2.368   1.931  0.00  0.00    -0.290 OA
BRANCH  26  33
ATOM     28  C   UNL     1      -1.677  -0.700   1.246  0.00  0.00    +0.013 A 
ATOM     29  C   UNL     1      -2.648  -1.518   1.781  0.00  0.00    +0.020 A 
ATOM     30  C   UNL     1      -3.267  -1.177   2.972  0.00  0.00    +0.041 A 
ATOM     31  C   UNL     1      -2.913  -0.013   3.636  0.00  0.00    +0.020 A 
ATOM     32  C   UNL     1      -1.940   0.812   3.116  0.00  0.00    +0.013 A 
ATOM     33  C   UNL     1      -1.310   0.473   1.914  0.00  0.00    +0.019 A 
ATOM     34 CL   UNL     1      -4.494  -2.211   3.635  0.00  0.00    -0.084 Cl
ENDBRANCH  26  33
ENDBRANCH   1  26
BRANCH   3  35
ATOM     35  C   UNL     1       0.371   3.331  -2.497  0.00  0.00    +0.082 C 
ATOM     36  N   UNL     1       0.228   4.438  -2.708  0.00  0.00    -0.195 NA
ENDBRANCH   3  35
TORSDOF 5
