REMARK  Name = ZINC32058227
REMARK  7 active torsions:
REMARK  status: ('A' for Active; 'I' for Inactive)
REMARK    1  A    between atoms: C_1  and  C_2
REMARK    2  A    between atoms: C_3  and  C_16
REMARK    3  A    between atoms: C_4  and  C_15
REMARK    4  A    between atoms: N_5  and  C_7
REMARK    5  A    between atoms: C_16  and  C_17
REMARK    6  A    between atoms: N_19  and  C_20
REMARK    7  A    between atoms: C_23  and  N_26
REMARK                            x       y       z     vdW  Elec       q    Type
REMARK                         _______ _______ _______ _____ _____    ______ ____
ROOT
ATOM      1  C   UNL     1      -4.976   5.111   0.058  0.00  0.00    +0.222 C 
ATOM      2  O   UNL     1      -3.940   5.736  -0.022  0.00  0.00    -0.275 OA
ATOM      3  N   UNL     1      -4.947   3.765   0.130  0.00  0.00    -0.285 N 
ATOM      4  H   UNL     1      -5.880   3.203   0.281  0.00  0.00    +0.155 HD
ENDROOT
BRANCH   3   5
ATOM      5  C   UNL     1      -3.729   3.084   0.014  0.00  0.00    +0.034 A 
ATOM      6  C   UNL     1      -3.681   1.851  -0.623  0.00  0.00    +0.025 A 
ATOM      7  C   UNL     1      -2.481   1.179  -0.737  0.00  0.00    +0.025 A 
ATOM      8  C   UNL     1      -1.321   1.735  -0.215  0.00  0.00    +0.035 A 
ATOM      9  C   UNL     1      -1.369   2.966   0.428  0.00  0.00    +0.025 A 
ATOM     10  C   UNL     1      -2.569   3.640   0.537  0.00  0.00    +0.025 A 
BRANCH   8  11
ATOM     11  N   UNL     1      -0.102   1.053  -0.331  0.00  0.00    -0.270 N 
ATOM     12  C   UNL     1       0.160   0.324  -1.433  0.00  0.00    +0.301 C 
ATOM     13  O   UNL     1      -0.692   0.193  -2.292  0.00  0.00    -0.253 OA
ATOM     14  N   UNL     1       1.365  -0.259  -1.585  0.00  0.00    -0.313 N 
ATOM     15  H   UNL     1       0.640   1.113   0.479  0.00  0.00    +0.156 HD
ATOM     16  H   UNL     1       1.579  -0.854  -2.486  0.00  0.00    +0.146 HD
ATOM     17  H   UNL     1       2.135  -0.140  -0.809  0.00  0.00    +0.146 HD
ENDBRANCH   8  11
ENDBRANCH   3   5
BRANCH   1  18
ATOM     18  C   UNL     1      -6.295   5.838   0.076  0.00  0.00    +0.134 C 
BRANCH  18  21
ATOM     19  C   UNL     1      -5.895   7.815   2.521  0.00  0.00    +0.068 C 
ATOM     20  C   UNL     1      -5.875   8.196   1.063  0.00  0.00    +0.064 A 
ATOM     21  C   UNL     1      -6.052   7.323  -0.016  0.00  0.00    +0.005 A 
ATOM     22  C   UNL     1      -5.972   8.047  -1.156  0.00  0.00    +0.046 A 
ATOM     23  N   UNL     1      -5.746   9.335  -0.811  0.00  0.00    -0.236 N 
ATOM     24  N   UNL     1      -5.686   9.401   0.587  0.00  0.00    -0.171 NA
ATOM     25  C   UNL     1      -6.109   7.514  -2.559  0.00  0.00    +0.066 C 
BRANCH  23  26
ATOM     26  C   UNL     1      -5.597  10.412  -1.695  0.00  0.00    +0.067 A 
ATOM     27  C   UNL     1      -6.437  10.531  -2.794  0.00  0.00    +0.029 A 
ATOM     28  C   UNL     1      -6.290  11.593  -3.664  0.00  0.00    +0.023 A 
ATOM     29  C   UNL     1      -5.305  12.540  -3.442  0.00  0.00    +0.059 A 
ATOM     30  C   UNL     1      -4.465  12.424  -2.347  0.00  0.00    +0.061 A 
ATOM     31  C   UNL     1      -4.614  11.366  -1.470  0.00  0.00    +0.049 A 
ATOM     32 CL   UNL     1      -3.231  13.613  -2.071  0.00  0.00    -0.082 Cl
ATOM     33 CL   UNL     1      -5.122  13.873  -4.538  0.00  0.00    -0.082 Cl
ENDBRANCH  23  26
ENDBRANCH  18  21
ENDBRANCH   1  18
TORSDOF 5
