REMARK  Name = ZINC64374469
REMARK  5 active torsions:
REMARK  status: ('A' for Active; 'I' for Inactive)
REMARK    1  A    between atoms: C_1  and  C_2
REMARK    2  A    between atoms: C_8  and  C_10
REMARK    3  A    between atoms: C_13  and  N_16
REMARK    4  A    between atoms: C_17  and  C_19
REMARK    5  A    between atoms: C_20  and  C_21
REMARK                            x       y       z     vdW  Elec       q    Type
REMARK                         _______ _______ _______ _____ _____    ______ ____
ROOT
ATOM      1  C   UNL     1       2.525  -2.650  -0.009  0.00  0.00    +0.017 A 
ATOM      2  C   UNL     1       2.605  -4.036   0.159  0.00  0.00    +0.013 A 
ATOM      3  C   UNL     1       3.832  -4.659   0.144  0.00  0.00    +0.024 A 
ATOM      4  C   UNL     1       4.992  -3.912  -0.037  0.00  0.00    +0.034 A 
ATOM      5  C   UNL     1       4.916  -2.533  -0.203  0.00  0.00    +0.024 A 
ATOM      6  C   UNL     1       3.692  -1.903  -0.196  0.00  0.00    +0.013 A 
ENDROOT
BRANCH   1  14
ATOM      7  C   UNL     1      -0.045   1.468  -0.341  0.00  0.00    +0.066 C 
ATOM      8  C   UNL     1      -0.013  -0.026  -0.150  0.00  0.00    +0.046 A 
ATOM      9  C   UNL     1      -1.178  -0.714   0.030  0.00  0.00    +0.093 A 
ATOM     10  C   UNL     1      -1.123  -2.111   0.206  0.00  0.00    +0.252 A 
ATOM     11  O   UNL     1      -2.145  -2.757   0.369  0.00  0.00    -0.268 OA
ATOM     12  N   UNL     1       0.082  -2.719   0.191  0.00  0.00    -0.307 N 
ATOM     13  H   UNL     1       0.144  -3.680   0.310  0.00  0.00    +0.170 HD
ATOM     14  C   UNL     1       1.212  -1.978   0.007  0.00  0.00    +0.141 A 
ATOM     15  N   UNL     1       1.150  -0.673  -0.163  0.00  0.00    -0.234 NA
ENDBRANCH   1  14
BRANCH   4  16
ATOM     16  N   UNL     1       6.233  -4.547  -0.051  0.00  0.00    -0.282 N 
ATOM     17  C   UNL     1       6.348  -5.791  -0.557  0.00  0.00    +0.241 C 
ATOM     18  O   UNL     1       5.390  -6.323  -1.088  0.00  0.00    -0.270 OA
ATOM     19  H   UNL     1       7.014  -4.093   0.303  0.00  0.00    +0.155 HD
BRANCH  17  20
ATOM     20  C   UNL     1       7.622  -6.501  -0.468  0.00  0.00    +0.068 C 
ATOM     21  C   UNL     1       7.737  -7.748  -0.974  0.00  0.00    +0.013 C 
BRANCH  21  22
ATOM     22  C   UNL     1       9.019  -8.462  -0.884  0.00  0.00    -0.021 A 
ATOM     23  C   UNL     1      10.119  -7.855  -0.269  0.00  0.00    +0.012 A 
ATOM     24  C   UNL     1      11.319  -8.527  -0.186  0.00  0.00    +0.050 A 
ATOM     25  C   UNL     1      11.441  -9.807  -0.711  0.00  0.00    +0.166 A 
ATOM     26  C   UNL     1      10.348 -10.419  -1.326  0.00  0.00    +0.167 A 
ATOM     27  C   UNL     1       9.140  -9.754  -1.409  0.00  0.00    +0.057 A 
ATOM     28  O   UNL     1      10.727 -11.659  -1.753  0.00  0.00    -0.453 OA
ATOM     29  C   UNL     1      12.166 -11.640  -1.759  0.00  0.00    +0.466 C 
ATOM     30  O   UNL     1      12.500 -10.665  -0.754  0.00  0.00    -0.453 OA
ENDBRANCH  21  22
ENDBRANCH  17  20
ENDBRANCH   4  16
TORSDOF 4
