REMARK  Name = ZINC36586081
REMARK  16 active torsions:
REMARK  status: ('A' for Active; 'I' for Inactive)
REMARK    1  A    between atoms: C_1  and  C_2
REMARK    2  A    between atoms: C_2  and  C_3
REMARK    3  A    between atoms: C_2  and  C_4
REMARK    4  A    between atoms: C_2  and  N_5
REMARK    5  A    between atoms: C_6  and  C_8
REMARK    6  A    between atoms: C_8  and  C_10
REMARK    7  A    between atoms: C_8  and  N_19
REMARK    8  A    between atoms: C_11  and  O_18
REMARK    9  A    between atoms: C_13  and  O_17
REMARK   10  A    between atoms: C_15  and  O_16
REMARK   11  A    between atoms: N_19  and  C_30
REMARK   12  A    between atoms: C_20  and  C_22
REMARK   13  A    between atoms: C_23  and  C_24
REMARK   14  A    between atoms: C_30  and  C_31
REMARK   15  A    between atoms: C_30  and  C_32
REMARK   16  A    between atoms: C_30  and  C_33
REMARK                            x       y       z     vdW  Elec       q    Type
REMARK                         _______ _______ _______ _____ _____    ______ ____
ROOT
ATOM      1  C   UNL     1       2.653  -0.485  -2.830  0.00  0.00    +0.201 C 
ENDROOT
BRANCH   1   2
ATOM      2  C   UNL     1       2.605  -1.972  -2.586  0.00  0.00    +0.065 A 
ATOM      3  C   UNL     1       3.438  -2.546  -1.638  0.00  0.00    +0.129 A 
ATOM      4  C   UNL     1       3.394  -3.914  -1.414  0.00  0.00    +0.091 A 
ATOM      5  C   UNL     1       2.518  -4.707  -2.139  0.00  0.00    +0.124 A 
ATOM      6  C   UNL     1       1.685  -4.133  -3.087  0.00  0.00    +0.091 A 
ATOM      7  C   UNL     1       1.725  -2.764  -3.307  0.00  0.00    +0.129 A 
BRANCH   7   8
ATOM      8  O   UNL     1       0.905  -2.201  -4.233  0.00  0.00    -0.506 OA
ATOM      9  H   UNL     1       1.285  -2.159  -5.121  0.00  0.00    +0.292 HD
ENDBRANCH   7   8
BRANCH   5  10
ATOM     10  O   UNL     1       2.476  -6.048  -1.920  0.00  0.00    -0.507 OA
ATOM     11  H   UNL     1       1.844  -6.316  -1.239  0.00  0.00    +0.292 HD
ENDBRANCH   5  10
BRANCH   3  12
ATOM     12  O   UNL     1       4.297  -1.768  -0.928  0.00  0.00    -0.506 OA
ATOM     13  H   UNL     1       3.915  -1.395  -0.122  0.00  0.00    +0.292 HD
ENDBRANCH   3  12
ENDBRANCH   1   2
BRANCH   1  15
ATOM     14  N   UNL     1       0.931   0.624  -1.442  0.00  0.00    -0.309 N 
ATOM     15  C   UNL     1       2.216   0.242  -1.584  0.00  0.00    +0.239 C 
ATOM     16  O   UNL     1       3.020   0.482  -0.709  0.00  0.00    -0.273 OA
ATOM     17  H   UNL     1       0.288   0.432  -2.142  0.00  0.00    +0.149 HD
BRANCH  14  19
ATOM     18  C   UNL     1       1.298   2.634  -0.098  0.00  0.00    +0.031 C 
ATOM     19  C   UNL     1       0.507   1.331  -0.231  0.00  0.00    +0.026 C 
ATOM     20  C   UNL     1       0.766   0.449   0.991  0.00  0.00    +0.031 C 
ATOM     21  C   UNL     1      -0.987   1.648  -0.323  0.00  0.00    +0.031 C 
ENDBRANCH  14  19
ENDBRANCH   1  15
BRANCH   1  22
ATOM     22  N   UNL     1       4.021  -0.090  -3.171  0.00  0.00    -0.270 N 
ATOM     23  C   UNL     1       4.954  -1.031  -3.415  0.00  0.00    +0.293 C 
ATOM     24  O   UNL     1       4.635  -2.204  -3.470  0.00  0.00    -0.260 OA
BRANCH  22  25
ATOM     25  C   UNL     1       4.376   1.330  -3.248  0.00  0.00    +0.031 C 
ATOM     26  C   UNL     1       3.126   2.181  -3.016  0.00  0.00    +0.031 C 
ATOM     27  C   UNL     1       5.420   1.654  -2.177  0.00  0.00    +0.031 C 
ATOM     28  C   UNL     1       4.953   1.637  -4.632  0.00  0.00    +0.031 C 
ENDBRANCH  22  25
BRANCH  23  29
ATOM     29  C   UNL     1       6.321  -0.652  -3.608  0.00  0.00    -0.003 C 
ATOM     30  C   UNL     1       7.442  -0.341  -3.766  0.00  0.00    -0.057 C 
BRANCH  30  31
ATOM     31  C   UNL     1       8.810   0.039  -3.959  0.00  0.00    +0.025 A 
ATOM     32  C   UNL     1       9.182   1.385  -3.890  0.00  0.00    +0.017 A 
ATOM     33  C   UNL     1      10.500   1.742  -4.077  0.00  0.00    +0.001 A 
ATOM     34  C   UNL     1      11.454   0.773  -4.332  0.00  0.00    +0.000 A 
ATOM     35  C   UNL     1      11.094  -0.562  -4.402  0.00  0.00    +0.001 A 
ATOM     36  C   UNL     1       9.780  -0.936  -4.212  0.00  0.00    +0.017 A 
ENDBRANCH  30  31
ENDBRANCH  23  29
ENDBRANCH   1  22
TORSDOF 10
