REMARK  Name = ZINC61462905
REMARK  6 active torsions:
REMARK  status: ('A' for Active; 'I' for Inactive)
REMARK    1  A    between atoms: C_3  and  C_9
REMARK    2  A    between atoms: C_6  and  C_7
REMARK    3  A    between atoms: N_11  and  N_12
REMARK    4  A    between atoms: C_13  and  C_15
REMARK    5  A    between atoms: C_19  and  N_22
REMARK    6  A    between atoms: C_20  and  N_21
REMARK                            x       y       z     vdW  Elec       q    Type
REMARK                         _______ _______ _______ _____ _____    ______ ____
ROOT
ATOM      1  N   UNL     1       6.163   2.303  -1.083  0.00  0.00    -0.230 N 
ATOM      2  C   UNL     1       7.326   1.639  -0.931  0.00  0.00    +0.262 C 
ATOM      3  O   UNL     1       7.379   0.446  -1.158  0.00  0.00    -0.269 OA
ATOM      4  H   UNL     1       6.120   3.255  -0.902  0.00  0.00    +0.173 HD
ENDROOT
BRANCH   2   5
ATOM      5  C   UNL     1       8.534   2.360  -0.490  0.00  0.00    +0.064 A 
ATOM      6  C   UNL     1       8.508   3.750  -0.344  0.00  0.00    +0.053 A 
ATOM      7  C   UNL     1       9.642   4.418   0.070  0.00  0.00    +0.126 A 
ATOM      8  C   UNL     1      10.809   3.717   0.341  0.00  0.00    +0.073 A 
ATOM      9  C   UNL     1      10.848   2.346   0.199  0.00  0.00    +0.150 A 
ATOM     10  C   UNL     1       9.714   1.655  -0.210  0.00  0.00    +0.068 A 
ATOM     11  F   UNL     1       9.616   5.762   0.212  0.00  0.00    -0.205 F 
BRANCH  10  12
ATOM     12  N   UNL     1       9.750   0.272  -0.347  0.00  0.00    -0.356 N 
ATOM     13  H   UNL     1      10.563  -0.164  -0.646  0.00  0.00    +0.142 HD
ATOM     14  H   UNL     1       8.962  -0.256  -0.144  0.00  0.00    +0.142 HD
ENDBRANCH  10  12
BRANCH   9  15
ATOM     15  N   UNL     1      12.098   1.608   0.490  0.00  0.00    +0.058 N 
ATOM     16  O   UNL     1      13.112   2.214   0.745  0.00  0.00    -0.126 OA
ATOM     17  O   UNL     1      12.104   0.399   0.473  0.00  0.00    -0.126 OA
ENDBRANCH   9  15
ENDBRANCH   2   5
BRANCH   1  20
ATOM     18  C   UNL     1       3.852   2.281  -1.654  0.00  0.00    +0.260 C 
ATOM     19  O   UNL     1       3.799   3.474  -1.428  0.00  0.00    -0.269 OA
ATOM     20  N   UNL     1       5.015   1.617  -1.502  0.00  0.00    -0.230 N 
ATOM     21  H   UNL     1       5.057   0.665  -1.683  0.00  0.00    +0.173 HD
BRANCH  18  24
ATOM     22  C   UNL     1       0.306   1.572  -2.666  0.00  0.00    +0.019 A 
ATOM     23  C   UNL     1       1.435   2.245  -2.254  0.00  0.00    +0.014 A 
ATOM     24  C   UNL     1       2.640   1.558  -2.097  0.00  0.00    +0.038 A 
ATOM     25  C   UNL     1       2.701   0.187  -2.357  0.00  0.00    +0.014 A 
ATOM     26  C   UNL     1       1.573  -0.487  -2.769  0.00  0.00    +0.019 A 
ATOM     27  C   UNL     1       0.367   0.201  -2.926  0.00  0.00    +0.052 A 
BRANCH  27  28
ATOM     28  C   UNL     1      -0.806  -0.500  -3.354  0.00  0.00    +0.099 C 
ATOM     29  N   UNL     1      -1.737  -1.056  -3.694  0.00  0.00    -0.191 NA
ENDBRANCH  27  28
ENDBRANCH  18  24
ENDBRANCH   1  20
TORSDOF 6
