REMARK  Name = ZINC39427473
REMARK  4 active torsions:
REMARK  status: ('A' for Active; 'I' for Inactive)
REMARK    1  A    between atoms: C_16  and  C_18
REMARK    2  A    between atoms: C_18  and  C_19
REMARK    3  A    between atoms: C_19  and  S_20
REMARK    4  A    between atoms: S_20  and  C_21
REMARK                            x       y       z     vdW  Elec       q    Type
REMARK                         _______ _______ _______ _____ _____    ______ ____
ROOT
ATOM      1  C   UNL     1      -0.017   1.371   0.010  0.00  0.00    +0.000 A 
ATOM      2  C   UNL     1       1.168   2.085   0.002  0.00  0.00    +0.002 A 
ATOM      3  C   UNL     1       2.365   1.400  -0.028  0.00  0.00    +0.024 A 
ATOM      4  C   UNL     1       2.383   0.009  -0.042  0.00  0.00    +0.044 A 
ATOM      5  C   UNL     1       1.204  -0.717  -0.008  0.00  0.00    -0.025 A 
ATOM      6  C   UNL     1       0.002  -0.004   0.002  0.00  0.00    +0.005 A 
ATOM      7  C   UNL     1       1.047  -2.219   0.059  0.00  0.00    +0.042 C 
ATOM      8  C   UNL     1       2.374  -2.955   0.112  0.00  0.00    +0.042 C 
ATOM      9  C   UNL     1       3.191  -2.701  -1.128  0.00  0.00    -0.025 A 
ATOM     10  C   UNL     1       3.277  -3.606  -2.162  0.00  0.00    +0.005 A 
ATOM     11  C   UNL     1       4.077  -3.297  -3.253  0.00  0.00    +0.000 A 
ATOM     12  C   UNL     1       4.775  -2.103  -3.295  0.00  0.00    +0.002 A 
ATOM     13  C   UNL     1       4.674  -1.195  -2.254  0.00  0.00    +0.024 A 
ATOM     14  C   UNL     1       3.862  -1.508  -1.178  0.00  0.00    +0.044 A 
ATOM     15  N   UNL     1       3.632  -0.626  -0.112  0.00  0.00    -0.240 N 
ATOM     16  C   UNL     1       4.582  -0.395   0.816  0.00  0.00    +0.225 C 
ATOM     17  O   UNL     1       4.364   0.372   1.730  0.00  0.00    -0.275 OA
ENDROOT
BRANCH  16  18
ATOM     18  C   UNL     1       5.916  -1.090   0.718  0.00  0.00    +0.108 C 
BRANCH  18  19
ATOM     19  C   UNL     1       6.804  -0.656   1.885  0.00  0.00    +0.086 C 
BRANCH  19  20
ATOM     20  S   UNL     1       8.409  -1.492   1.767  0.00  0.00    -0.096 S 
BRANCH  20  21
ATOM     21  C   UNL     1       9.305  -0.895   3.163  0.00  0.00    +0.160 A 
ATOM     22  N   UNL     1       8.925  -0.046   4.098  0.00  0.00    -0.133 NA
ATOM     23  N   UNL     1       9.793   0.287   5.112  0.00  0.00    -0.125 NA
ATOM     24  C   UNL     1      11.000  -0.244   5.145  0.00  0.00    +0.180 A 
ATOM     25  S   UNL     1      10.965  -1.285   3.694  0.00  0.00    -0.025 S 
ATOM     26  N   UNL     1      12.023  -0.050   6.066  0.00  0.00    -0.336 N 
ATOM     27  H   UNL     1      11.893   0.551   6.816  0.00  0.00    +0.144 HD
ATOM     28  H   UNL     1      12.867  -0.516   5.958  0.00  0.00    +0.144 HD
ENDBRANCH  20  21
ENDBRANCH  19  20
ENDBRANCH  18  19
ENDBRANCH  16  18
TORSDOF 4
