REMARK  Name = ZINC31161085
REMARK  8 active torsions:
REMARK  status: ('A' for Active; 'I' for Inactive)
REMARK    1  A    between atoms: C_1  and  C_2
REMARK    2  A    between atoms: C_2  and  C_35
REMARK    3  A    between atoms: C_14  and  C_30
REMARK    4  A    between atoms: C_15  and  C_16
REMARK    5  A    between atoms: C_16  and  C_17
REMARK    6  A    between atoms: C_30  and  C_31
REMARK    7  A    between atoms: C_30  and  C_32
REMARK    8  A    between atoms: C_30  and  C_33
REMARK                            x       y       z     vdW  Elec       q    Type
REMARK                         _______ _______ _______ _____ _____    ______ ____
ROOT
ATOM      1  C   UNK A   2      -8.601   7.275  -6.616  0.00  0.00    +0.060 C 
ATOM      2  C   UNK A   2      -7.551   6.981  -5.543  0.00  0.00    +0.124 C 
ATOM      3  C   UNK A   2      -7.124   5.541  -5.647  0.00  0.00    +0.020 C 
ATOM      4  C   UNK A   2      -6.694   4.894  -4.567  0.00  0.00    +0.011 C 
ATOM      5  C   UNK A   2      -6.663   5.626  -3.282  0.00  0.00    +0.017 A 
ATOM      6  C   UNK A   2      -5.932   5.155  -2.204  0.00  0.00    +0.021 A 
ATOM      7  C   UNK A   2      -5.932   5.879  -1.010  0.00  0.00    +0.004 A 
ATOM      8  C   UNK A   2      -6.668   7.074  -0.906  0.00  0.00    +0.050 A 
ATOM      9  C   UNK A   2      -7.399   7.536  -1.998  0.00  0.00    +0.072 A 
ATOM     10  C   UNK A   2      -7.400   6.821  -3.176  0.00  0.00    +0.131 A 
ATOM     11  O   UNK A   2      -8.106   7.250  -4.255  0.00  0.00    -0.482 OA
ATOM     12  N   UNK A   2      -6.478   7.557   0.369  0.00  0.00    -0.357 N 
ATOM     13  H   UNK A   2      -6.961   8.496   0.679  0.00  0.00    +0.166 HD
ATOM     14  C   UNK A   2      -5.659   6.712   1.070  0.00  0.00    +0.030 A 
ATOM     15  C   UNK A   2      -5.291   5.683   0.293  0.00  0.00    -0.016 A 
ATOM     16  C   UNK A   2      -6.337   7.885  -5.767  0.00  0.00    +0.060 C 
ENDROOT
BRANCH  14  17
ATOM     17  C   UNK A   2      -5.233   6.912   2.502  0.00  0.00    +0.023 C 
ATOM     18  C   UNK A   2      -3.716   7.101   2.561  0.00  0.00    +0.022 C 
ATOM     19  C   UNK A   2      -5.924   8.152   3.072  0.00  0.00    +0.022 C 
BRANCH  17  20
ATOM     20  C   UNK A   2      -5.620   5.703   3.314  0.00  0.00    -0.022 C 
ATOM     21  C   UNK A   2      -4.720   5.083   4.036  0.00  0.00    +0.005 C 
ENDBRANCH  17  20
ENDBRANCH  14  17
BRANCH  15  22
ATOM     22  C   UNK A   2      -4.393   4.538   0.688  0.00  0.00    +0.069 C 
BRANCH  22  23
ATOM     23  C   UNK A   2      -2.964   4.827   0.222  0.00  0.00    +0.163 C 
ATOM     24  C   UNK A   2      -2.037   3.758   0.754  0.00  0.00    +0.237 C 
ATOM     25  O   UNK A   2      -1.457   3.904   1.809  0.00  0.00    -0.274 OA
ATOM     26  N   PRO A   1      -1.873   2.641   0.022  0.00  0.00    -0.288 N 
ATOM     27  CD  PRO A   1      -1.030   1.477   0.311  0.00  0.00    +0.109 C 
ATOM     28  CG  PRO A   1      -0.577   0.932  -1.057  0.00  0.00    +0.021 C 
ATOM     29  CB  PRO A   1      -1.554   1.532  -2.086  0.00  0.00    +0.033 C 
ATOM     30  CA  PRO A   1      -2.539   2.387  -1.270  0.00  0.00    +0.162 C 
ATOM     31  C   PRO A   1      -2.742   3.715  -1.957  0.00  0.00    +0.234 C 
ATOM     32  O   PRO A   1      -2.742   3.770  -3.169  0.00  0.00    -0.274 OA
ATOM     33  N   UNK A   2      -2.922   4.837  -1.239  0.00  0.00    -0.302 N 
ATOM     34  H   UNK A   2      -3.041   5.784  -1.786  0.00  0.00    +0.150 HD
ENDBRANCH  22  23
ENDBRANCH  15  22
TORSDOF 4
