REMARK  Name = ZINC09970493
REMARK  12 active torsions:
REMARK  status: ('A' for Active; 'I' for Inactive)
REMARK    1  A    between atoms: C_1  and  C_2
REMARK    2  A    between atoms: C_2  and  C_17
REMARK    3  A    between atoms: C_3  and  C_15
REMARK    4  A    between atoms: C_3  and  O_16
REMARK    5  A    between atoms: C_4  and  C_13
REMARK    6  A    between atoms: C_4  and  O_14
REMARK    7  A    between atoms: C_5  and  C_11
REMARK    8  A    between atoms: C_5  and  O_12
REMARK    9  A    between atoms: C_6  and  C_8
REMARK   10  A    between atoms: C_6  and  S_9
REMARK   11  A    between atoms: S_9  and  C_10
REMARK   12  A    between atoms: C_17  and  O_18
REMARK                            x       y       z     vdW  Elec       q    Type
REMARK                         _______ _______ _______ _____ _____    ______ ____
ROOT
ATOM      1  C   UNL     1       2.556  -0.372   0.885  0.00  0.00    +0.047 C 
ATOM      2  C   UNL     1       2.056   1.054   1.220  0.00  0.00    +0.122 C 
ATOM      3  C   UNL     1       1.300   1.568  -0.002  0.00  0.00    +0.125 C 
ATOM      4  C   UNL     1       1.122   3.076  -0.000  0.00  0.00    +0.126 C 
ATOM      5  C   UNL     1       2.350   3.866   0.415  0.00  0.00    +0.132 C 
ATOM      6  C   UNL     1       3.130   3.251   1.571  0.00  0.00    +0.144 C 
ATOM      7  O   UNL     1       3.181   1.844   1.523  0.00  0.00    -0.349 OA
ATOM      8  C   UNL     1       2.539   3.742   2.900  0.00  0.00    +0.057 C 
ATOM      9  C   UNL     1       3.289   4.077  -0.780  0.00  0.00    +0.048 C 
ATOM     10  C   UNL     1       0.728   3.515  -1.427  0.00  0.00    +0.047 C 
ATOM     11  C   UNL     1       2.009   1.102  -1.278  0.00  0.00    +0.047 C 
ENDROOT
BRANCH   6  12
ATOM     12  S   UNL     1       4.845   3.880   1.478  0.00  0.00    -0.127 S 
ATOM     13  C   UNL     1       5.696   3.038   2.841  0.00  0.00    +0.087 C 
ENDBRANCH   6  12
BRANCH   5  14
ATOM     14  O   UNL     1       1.909   5.176   0.840  0.00  0.00    -0.382 OA
ATOM     15  H   UNL     1       2.629   5.777   1.074  0.00  0.00    +0.210 HD
ENDBRANCH   5  14
BRANCH   4  16
ATOM     16  O   UNL     1       0.024   3.423   0.863  0.00  0.00    -0.383 OA
ATOM     17  H   UNL     1      -0.150   4.373   0.915  0.00  0.00    +0.210 HD
ENDBRANCH   4  16
BRANCH   3  18
ATOM     18  O   UNL     1      -0.011   0.963   0.007  0.00  0.00    -0.383 OA
ATOM     19  H   UNL     1       0.002  -0.004   0.002  0.00  0.00    +0.210 HD
ENDBRANCH   3  18
BRANCH   2  20
ATOM     20  C   UNL     1       1.101   0.925   2.409  0.00  0.00    +0.193 C 
BRANCH  20  21
ATOM     21  O   UNL     1       1.820   0.444   3.547  0.00  0.00    -0.392 OA
ATOM     22  H   UNL     1       1.276   0.337   4.339  0.00  0.00    +0.210 HD
ENDBRANCH  20  21
ENDBRANCH   2  20
TORSDOF 6
