REMARK  Name = ZINC09318341
REMARK  3 active torsions:
REMARK  status: ('A' for Active; 'I' for Inactive)
REMARK    1  A    between atoms: C_1  and  O_2
REMARK    2  A    between atoms: O_2  and  C_3
REMARK    3  A    between atoms: C_8  and  N_9
REMARK                            x       y       z     vdW  Elec       q    Type
REMARK                         _______ _______ _______ _____ _____    ______ ____
ROOT
ATOM      1  N   UNL     1      -2.125   2.388   2.878  0.00  0.00    -0.206 N 
ATOM      2  C   UNL     1      -2.888   2.616   1.834  0.00  0.00    +0.229 C 
ATOM      3  O   UNL     1      -3.862   3.331   1.737  0.00  0.00    -0.275 OA
ATOM      4  C   UNL     1      -2.217   1.734   0.768  0.00  0.00    +0.074 C 
ATOM      5  C   UNL     1      -2.167   2.280  -0.656  0.00  0.00    -0.054 C 
ATOM      6  C   UNL     1      -2.340   3.860  -0.682  0.00  0.00    -0.016 C 
ATOM      7  C   UNL     1      -1.256   4.264  -1.780  0.00  0.00    -0.020 C 
ATOM      8  C   UNL     1      -0.116   3.323  -1.570  0.00  0.00    -0.076 C 
ATOM      9  C   UNL     1      -0.018   1.451   0.010  0.00  0.00    +0.053 C 
ATOM     10  C   UNL     1      -0.770   2.085   1.174  0.00  0.00    +0.089 C 
ATOM     11  C   UNL     1      -0.864   1.843   2.576  0.00  0.00    +0.230 C 
ATOM     12  O   UNL     1      -0.065   1.307   3.314  0.00  0.00    -0.275 OA
ATOM     13  C   UNL     1       0.002  -0.004   0.002  0.00  0.00    -0.024 A 
ATOM     14  C   UNL     1      -0.883  -1.025  -0.026  0.00  0.00    +0.043 A 
ATOM     15  C   UNL     1      -0.531  -2.292  -0.070  0.00  0.00    +0.124 A 
ATOM     16  C   UNL     1       0.777  -2.674  -0.202  0.00  0.00    +0.040 A 
ATOM     17  C   UNL     1       1.756  -1.757  -0.220  0.00  0.00    +0.026 A 
ATOM     18  C   UNL     1       1.413  -0.325  -0.143  0.00  0.00    +0.036 A 
ATOM     19  N   UNL     1       2.130   0.858  -0.128  0.00  0.00    -0.286 N 
ATOM     20  C   UNL     1       1.416   1.915  -0.001  0.00  0.00    +0.212 C 
ATOM     21  O   UNL     1       1.813   3.057   0.091  0.00  0.00    -0.277 OA
ATOM     22  F   UNL     1      -1.487  -3.242   0.017  0.00  0.00    -0.205 F 
ATOM     23  H   UNL     1       3.096   0.886  -0.208  0.00  0.00    +0.155 HD
ATOM     24  N   UNL     1      -0.760   2.016  -1.123  0.00  0.00    +0.395 N 
ATOM     25  H   UNL     1      -0.768   1.351  -1.905  0.00  0.00    -0.079 HD
ENDROOT
BRANCH   1  31
ATOM     26  C   UNL     1      -2.275   3.913   4.755  0.00  0.00    +0.142 A 
ATOM     27  C   UNL     1      -2.687   4.184   6.050  0.00  0.00    +0.049 A 
ATOM     28  C   UNL     1      -3.342   3.214   6.785  0.00  0.00    +0.024 A 
ATOM     29  C   UNL     1      -3.596   1.973   6.228  0.00  0.00    +0.043 A 
ATOM     30  C   UNL     1      -3.193   1.697   4.934  0.00  0.00    +0.047 A 
ATOM     31  C   UNL     1      -2.534   2.665   4.192  0.00  0.00    +0.087 A 
ATOM     32 CL   UNL     1      -4.421   0.759   7.156  0.00  0.00    -0.083 Cl
BRANCH  26  34
ATOM     33  C   UNL     1      -1.394   6.120   4.674  0.00  0.00    +0.277 C 
ATOM     34  O   UNL     1      -1.625   4.864   4.033  0.00  0.00    -0.493 OA
ENDBRANCH  26  34
ENDBRANCH   1  31
TORSDOF 2
