REMARK  Name = ZINC04246357
REMARK  6 active torsions:
REMARK  status: ('A' for Active; 'I' for Inactive)
REMARK    1  A    between atoms: C_10  and  N_11
REMARK    2  A    between atoms: C_12  and  C_14
REMARK    3  A    between atoms: C_14  and  O_15
REMARK    4  A    between atoms: O_15  and  C_16
REMARK    5  A    between atoms: C_16  and  C_18
REMARK    6  A    between atoms: C_23  and  N_24
REMARK                            x       y       z     vdW  Elec       q    Type
REMARK                         _______ _______ _______ _____ _____    ______ ____
ROOT
ATOM      1  N   UNL     1       4.579   8.178   0.231  0.00  0.00    -0.282 N 
ATOM      2  C   UNL     1       3.512   7.354   0.224  0.00  0.00    +0.255 C 
ATOM      3  O   UNL     1       2.392   7.812   0.313  0.00  0.00    -0.272 OA
ATOM      4  H   UNL     1       5.468   7.821   0.079  0.00  0.00    +0.155 HD
ENDROOT
BRANCH   1  14
ATOM      5  C   UNL     1       7.181  12.335  -0.959  0.00  0.00    +0.001 A 
ATOM      6  C   UNL     1       7.375  10.976  -1.195  0.00  0.00    +0.001 A 
ATOM      7  C   UNL     1       6.483  10.052  -0.742  0.00  0.00    +0.010 A 
ATOM      8  C   UNL     1       5.353  10.472  -0.023  0.00  0.00    +0.003 A 
ATOM      9  C   UNL     1       5.153  11.854   0.214  0.00  0.00    -0.016 A 
ATOM     10  C   UNL     1       6.096  12.779  -0.269  0.00  0.00    +0.008 A 
ATOM     11  C   UNL     1       4.021  12.277   0.931  0.00  0.00    +0.008 A 
ATOM     12  C   UNL     1       3.124  11.359   1.387  0.00  0.00    +0.002 A 
ATOM     13  C   UNL     1       3.307   9.999   1.156  0.00  0.00    +0.024 A 
ATOM     14  C   UNL     1       4.405   9.544   0.457  0.00  0.00    +0.041 A 
ENDBRANCH   1  14
BRANCH   2  15
ATOM     15  C   UNL     1       3.711   5.865   0.106  0.00  0.00    +0.328 C 
BRANCH  15  16
ATOM     16  O   UNL     1       2.419   5.202   0.122  0.00  0.00    -0.452 OA
BRANCH  16  17
ATOM     17  C   UNL     1       2.420   3.858   0.025  0.00  0.00    +0.341 C 
ATOM     18  O   UNL     1       3.472   3.256  -0.071  0.00  0.00    -0.245 OA
BRANCH  17  19
ATOM     19  C   UNL     1       1.147   3.118   0.034  0.00  0.00    +0.081 A 
ATOM     20  C   UNL     1      -0.069   3.809   0.033  0.00  0.00    +0.032 A 
ATOM     21  C   UNL     1      -1.256   3.110   0.041  0.00  0.00    +0.019 A 
ATOM     22  C   UNL     1      -1.253   1.723   0.046  0.00  0.00    +0.017 A 
ATOM     23  C   UNL     1      -0.062   1.027   0.053  0.00  0.00    +0.024 A 
ATOM     24  C   UNL     1       1.146   1.714   0.044  0.00  0.00    +0.039 A 
ATOM     25 BR   UNL     1      -2.899   4.047   0.039  0.00  0.00    -0.050 Br
BRANCH  24  26
ATOM     26  N   UNL     1       2.346   1.015   0.045  0.00  0.00    -0.357 N 
ATOM     27  H   UNL     1       2.381   0.110  -0.303  0.00  0.00    +0.142 HD
ATOM     28  H   UNL     1       3.149   1.431   0.394  0.00  0.00    +0.142 HD
ENDBRANCH  24  26
ENDBRANCH  17  19
ENDBRANCH  16  17
ENDBRANCH  15  16
ENDBRANCH   2  15
TORSDOF 6
