REMARK  Name = ZINC36588410
REMARK  13 active torsions:
REMARK  status: ('A' for Active; 'I' for Inactive)
REMARK    1  A    between atoms: C_1  and  C_2
REMARK    2  A    between atoms: C_2  and  C_3
REMARK    3  A    between atoms: C_2  and  C_4
REMARK    4  A    between atoms: C_2  and  N_5
REMARK    5  A    between atoms: N_5  and  C_6
REMARK    6  A    between atoms: C_6  and  C_8
REMARK    7  A    between atoms: C_6  and  C_17
REMARK    8  A    between atoms: C_9  and  O_16
REMARK    9  A    between atoms: C_11  and  O_15
REMARK   10  A    between atoms: C_13  and  O_14
REMARK   11  A    between atoms: N_19  and  C_20
REMARK   12  A    between atoms: C_26  and  C_28
REMARK   13  A    between atoms: C_28  and  C_29
REMARK                            x       y       z     vdW  Elec       q    Type
REMARK                         _______ _______ _______ _____ _____    ______ ____
ROOT
ATOM      1  C   UNL     1       1.284   0.994  -3.224  0.00  0.00    +0.200 C 
ENDROOT
BRANCH   1   2
ATOM      2  C   UNL     1       2.745   1.205  -2.922  0.00  0.00    +0.065 A 
ATOM      3  C   UNL     1       3.152   1.480  -1.625  0.00  0.00    +0.129 A 
ATOM      4  C   UNL     1       4.497   1.675  -1.347  0.00  0.00    +0.091 A 
ATOM      5  C   UNL     1       5.434   1.595  -2.365  0.00  0.00    +0.124 A 
ATOM      6  C   UNL     1       5.027   1.320  -3.662  0.00  0.00    +0.091 A 
ATOM      7  C   UNL     1       3.683   1.121  -3.939  0.00  0.00    +0.129 A 
BRANCH   7   8
ATOM      8  O   UNL     1       3.285   0.847  -5.210  0.00  0.00    -0.506 OA
ATOM      9  H   UNL     1       3.077   1.631  -5.735  0.00  0.00    +0.292 HD
ENDBRANCH   7   8
BRANCH   5  10
ATOM     10  O   UNL     1       6.752   1.787  -2.093  0.00  0.00    -0.507 OA
ATOM     11  H   UNL     1       7.227   0.978  -1.860  0.00  0.00    +0.292 HD
ENDBRANCH   5  10
BRANCH   3  12
ATOM     12  O   UNL     1       2.233   1.558  -0.626  0.00  0.00    -0.506 OA
ATOM     13  H   UNL     1       2.119   0.735  -0.132  0.00  0.00    +0.292 HD
ENDBRANCH   3  12
ENDBRANCH   1   2
BRANCH   1  14
ATOM     14  C   UNL     1       0.602   2.329  -3.368  0.00  0.00    +0.239 C 
ATOM     15  O   UNL     1      -0.236   2.672  -2.561  0.00  0.00    -0.273 OA
ATOM     16  N   UNL     1       0.923   3.143  -4.393  0.00  0.00    -0.311 N 
ATOM     17  H   UNL     1       1.593   2.869  -5.038  0.00  0.00    +0.149 HD
BRANCH  16  18
ATOM     18  C   UNL     1       0.260   4.442  -4.532  0.00  0.00    +0.073 C 
ATOM     19  C   UNL     1      -1.062   4.262  -5.282  0.00  0.00    +0.022 C 
ATOM     20  C   UNL     1      -1.754   5.619  -5.428  0.00  0.00    +0.002 C 
ATOM     21  C   UNL     1      -0.850   6.572  -6.211  0.00  0.00    +0.000 C 
ATOM     22  C   UNL     1       0.472   6.752  -5.462  0.00  0.00    +0.002 C 
ATOM     23  C   UNL     1       1.165   5.395  -5.316  0.00  0.00    +0.022 C 
ENDBRANCH  16  18
ENDBRANCH   1  14
BRANCH   1  24
ATOM     24  N   UNL     1       0.663   0.243  -2.130  0.00  0.00    -0.280 N 
ATOM     25  C   UNL     1       1.179  -0.942  -1.747  0.00  0.00    +0.221 C 
ATOM     26  O   UNL     1       2.371  -1.144  -1.846  0.00  0.00    -0.275 OA
BRANCH  24  28
ATOM     27  C   UNL     1      -1.555   1.207  -2.495  0.00  0.00    +0.031 C 
ATOM     28  C   UNL     1      -0.520   0.780  -1.452  0.00  0.00    +0.030 C 
ATOM     29  C   UNL     1      -0.118   1.991  -0.608  0.00  0.00    +0.031 C 
ATOM     30  C   UNL     1      -1.121  -0.296  -0.546  0.00  0.00    +0.031 C 
ENDBRANCH  24  28
BRANCH  25  31
ATOM     31  C   UNL     1       0.276  -2.014  -1.195  0.00  0.00    +0.131 C 
BRANCH  31  32
ATOM     32  C   UNL     1       0.999  -3.336  -1.210  0.00  0.00    -0.035 A 
ATOM     33  C   UNL     1       0.918  -4.155  -2.321  0.00  0.00    +0.008 A 
ATOM     34  C   UNL     1       1.581  -5.368  -2.338  0.00  0.00    +0.050 A 
ATOM     35  C   UNL     1       2.327  -5.767  -1.242  0.00  0.00    +0.166 A 
ATOM     36  C   UNL     1       2.408  -4.942  -0.122  0.00  0.00    +0.166 A 
ATOM     37  C   UNL     1       1.746  -3.725  -0.114  0.00  0.00    +0.053 A 
ATOM     38  O   UNL     1       3.193  -5.552   0.813  0.00  0.00    -0.453 OA
ATOM     39  C   UNL     1       3.257  -6.936   0.418  0.00  0.00    +0.466 C 
ATOM     40  O   UNL     1       3.061  -6.894  -1.008  0.00  0.00    -0.453 OA
ENDBRANCH  31  32
ENDBRANCH  25  31
ENDBRANCH   1  24
TORSDOF 10
