REMARK  Name = ZINC43883995
REMARK  9 active torsions:
REMARK  status: ('A' for Active; 'I' for Inactive)
REMARK    1  A    between atoms: C_1  and  C_2
REMARK    2  A    between atoms: C_2  and  C_3
REMARK    3  A    between atoms: C_2  and  C_4
REMARK    4  A    between atoms: C_4  and  C_6
REMARK    5  A    between atoms: C_4  and  N_16
REMARK    6  A    between atoms: N_19  and  N_20
REMARK    7  A    between atoms: N_20  and  C_21
REMARK    8  A    between atoms: C_21  and  N_23
REMARK    9  A    between atoms: N_23  and  C_24
REMARK                            x       y       z     vdW  Elec       q    Type
REMARK                         _______ _______ _______ _____ _____    ______ ____
ROOT
ATOM      1  N   UNL     1       2.116  -0.004   1.231  0.00  0.00    -0.291 N 
ATOM      2  C   UNL     1       2.387   1.219   1.728  0.00  0.00    +0.316 C 
ATOM      3  O   UNL     1       1.491   1.902   2.186  0.00  0.00    -0.251 OA
ATOM      4  N   UNL     1       3.652   1.686   1.719  0.00  0.00    -0.219 N 
ATOM      5  H   UNL     1       2.832  -0.548   0.866  0.00  0.00    +0.151 HD
ATOM      6  H   UNL     1       3.847   2.566   2.077  0.00  0.00    +0.174 HD
ENDROOT
BRANCH   4   7
ATOM      7  N   UNL     1       4.685   0.899   1.192  0.00  0.00    -0.245 N 
ATOM      8  H   UNL     1       4.490   0.019   0.834  0.00  0.00    +0.172 HD
BRANCH   7   9
ATOM      9  C   UNL     1       5.949   1.366   1.182  0.00  0.00    +0.147 C 
ATOM     10  S   UNL     1       7.211   0.405   0.539  0.00  0.00    -0.017 S 
BRANCH   9  11
ATOM     11  N   UNL     1       6.220   2.589   1.680  0.00  0.00    -0.323 N 
ATOM     12  H   UNL     1       5.505   3.133   2.045  0.00  0.00    +0.148 HD
BRANCH  11  13
ATOM     13  C   UNL     1       7.594   3.096   1.669  0.00  0.00    +0.072 C 
ATOM     14  C   UNL     1       8.331   2.651   2.949  0.00  0.00    +0.022 C 
ATOM     15  C   UNL     1       9.225   3.863   3.313  0.00  0.00    +0.002 C 
ATOM     16  C   UNL     1       8.322   5.071   2.962  0.00  0.00    +0.002 C 
ATOM     17  C   UNL     1       7.588   4.635   1.678  0.00  0.00    +0.022 C 
ENDBRANCH  11  13
ENDBRANCH   9  11
ENDBRANCH   7   9
ENDBRANCH   4   7
BRANCH   1  18
ATOM     18  C   UNL     1       0.742  -0.511   1.242  0.00  0.00    +0.107 C 
BRANCH  18  19
ATOM     19  C   UNL     1       0.762  -2.018   1.233  0.00  0.00    -0.023 A 
ATOM     20  C   UNL     1       1.686  -2.691   0.455  0.00  0.00    +0.009 A 
ATOM     21  C   UNL     1       1.707  -4.073   0.444  0.00  0.00    +0.050 A 
ATOM     22  C   UNL     1       0.801  -4.788   1.214  0.00  0.00    +0.162 A 
ATOM     23  C   UNL     1      -0.125  -4.111   1.998  0.00  0.00    +0.162 A 
ATOM     24  C   UNL     1      -0.138  -2.724   2.008  0.00  0.00    +0.055 A 
ATOM     25  O   UNL     1      -1.017  -4.793   2.767  0.00  0.00    -0.485 OA
ATOM     26  C   UNL     1      -1.215  -6.175   2.450  0.00  0.00    +0.270 C 
ATOM     27  C   UNL     1       0.161  -6.826   2.257  0.00  0.00    +0.270 C 
ATOM     28  O   UNL     1       0.832  -6.148   1.189  0.00  0.00    -0.485 OA
ENDBRANCH  18  19
BRANCH  18  30
ATOM     29  C   UNL     1      -0.019   1.526   0.010  0.00  0.00    +0.009 C 
ATOM     30  C   UNL     1       0.002  -0.004   0.002  0.00  0.00    +0.008 C 
ATOM     31  C   UNL     1       0.718  -0.497  -1.257  0.00  0.00    +0.009 C 
ENDBRANCH  18  30
ENDBRANCH   1  18
TORSDOF 7
