REMARK  Name = ZINC63006630
REMARK  4 active torsions:
REMARK  status: ('A' for Active; 'I' for Inactive)
REMARK    1  A    between atoms: C_2  and  C_19
REMARK    2  A    between atoms: C_5  and  S_8
REMARK    3  A    between atoms: S_8  and  C_9
REMARK    4  A    between atoms: C_15  and  N_17
REMARK                            x       y       z     vdW  Elec       q    Type
REMARK                         _______ _______ _______ _____ _____    ______ ____
ROOT
ATOM      1  S   UNL     1       1.237  -2.448  -0.023  0.00  0.00    -0.046 S 
ENDROOT
BRANCH   1   6
ATOM      2  C   UNL     1      -0.017   1.373   0.010  0.00  0.00    +0.054 A 
ATOM      3  C   UNL     1       1.187   2.088   0.002  0.00  0.00    +0.069 A 
ATOM      4  C   UNL     1       2.406   1.400  -0.013  0.00  0.00    +0.054 A 
ATOM      5  C   UNL     1       2.417   0.023  -0.021  0.00  0.00    +0.141 A 
ATOM      6  C   UNL     1       1.217  -0.686  -0.013  0.00  0.00    +0.086 A 
ATOM      7  C   UNL     1       0.002  -0.004   0.002  0.00  0.00    +0.141 A 
ATOM      8  F   UNL     1      -1.159  -0.695   0.010  0.00  0.00    -0.204 F 
ATOM      9  F   UNL     1       3.594  -0.642  -0.036  0.00  0.00    -0.204 F 
BRANCH   3  10
ATOM     10  C   UNL     1       1.170   3.560   0.009  0.00  0.00    +0.387 C 
ATOM     11  O   UNL     1       0.104   4.160   0.022  0.00  0.00    -0.241 OA
ATOM     12  O   UNL     1       2.223   4.183   0.003  0.00  0.00    -0.241 OA
ENDBRANCH   3  10
ENDBRANCH   1   6
BRANCH   1  13
ATOM     13  C   UNL     1       1.258  -2.883   1.684  0.00  0.00    +0.176 A 
ATOM     14  N   UNL     1       1.282  -4.199   2.037  0.00  0.00    -0.302 N 
ATOM     15  H   UNL     1       1.287  -4.884   1.351  0.00  0.00    +0.171 HD
ATOM     16  C   UNL     1       1.298  -4.551   3.340  0.00  0.00    +0.254 A 
ATOM     17  O   UNL     1       1.319  -5.727   3.665  0.00  0.00    -0.268 OA
ATOM     18  C   UNL     1       1.290  -3.544   4.311  0.00  0.00    +0.113 A 
ATOM     19  C   UNL     1       1.266  -2.219   3.899  0.00  0.00    +0.124 A 
ATOM     20  N   UNL     1       1.256  -1.930   2.593  0.00  0.00    -0.208 NA
BRANCH  19  21
ATOM     21  N   UNL     1       1.258  -1.203   4.834  0.00  0.00    -0.343 N 
ATOM     22  H   UNL     1       1.269  -1.415   5.780  0.00  0.00    +0.144 HD
ATOM     23  H   UNL     1       1.241  -0.278   4.544  0.00  0.00    +0.144 HD
ENDBRANCH  19  21
ENDBRANCH   1  13
TORSDOF 4
