REMARK  Name = ZINC16060733
REMARK  11 active torsions:
REMARK  status: ('A' for Active; 'I' for Inactive)
REMARK    1  A    between atoms: C_1  and  C_2
REMARK    2  A    between atoms: C_7  and  C_8
REMARK    3  A    between atoms: N_10  and  C_11
REMARK    4  A    between atoms: C_11  and  C_12
REMARK    5  A    between atoms: C_12  and  C_13
REMARK    6  A    between atoms: N_15  and  N_16
REMARK    7  A    between atoms: N_16  and  C_17
REMARK    8  A    between atoms: C_17  and  N_19
REMARK    9  A    between atoms: N_19  and  C_20
REMARK   10  A    between atoms: C_25  and  C_30
REMARK   11  A    between atoms: C_27  and  C_29
REMARK                            x       y       z     vdW  Elec       q    Type
REMARK                         _______ _______ _______ _____ _____    ______ ____
ROOT
ATOM      1  C   UNL     1       0.943  -0.189   7.334  0.00  0.00    +0.231 C 
ATOM      2  O   UNL     1       0.836   1.019   7.356  0.00  0.00    -0.274 OA
ATOM      3  N   UNL     1       1.166  -0.866   8.477  0.00  0.00    -0.235 N 
ATOM      4  H   UNL     1       1.252  -1.832   8.460  0.00  0.00    +0.173 HD
ENDROOT
BRANCH   3   5
ATOM      5  N   UNL     1       1.274  -0.175   9.691  0.00  0.00    -0.246 N 
ATOM      6  H   UNL     1       1.188   0.791   9.709  0.00  0.00    +0.172 HD
BRANCH   5   7
ATOM      7  C   UNL     1       1.496  -0.853  10.835  0.00  0.00    +0.147 C 
ATOM      8  S   UNL     1       1.628  -0.009  12.319  0.00  0.00    -0.017 S 
BRANCH   7   9
ATOM      9  N   UNL     1       1.616  -2.195  10.810  0.00  0.00    -0.322 N 
ATOM     10  H   UNL     1       1.541  -2.674   9.970  0.00  0.00    +0.148 HD
BRANCH   9  11
ATOM     11  C   UNL     1       1.858  -2.932  12.053  0.00  0.00    +0.075 C 
ATOM     12  C   UNL     1       3.358  -2.951  12.351  0.00  0.00    +0.022 C 
ATOM     13  C   UNL     1       3.611  -3.720  13.649  0.00  0.00    +0.002 C 
ATOM     14  C   UNL     1       3.103  -5.156  13.498  0.00  0.00    +0.003 C 
ATOM     15  C   UNL     1       1.603  -5.137  13.201  0.00  0.00    -0.009 C 
ATOM     16  C   UNL     1       1.350  -4.367  11.903  0.00  0.00    +0.009 C 
ATOM     17  C   UNL     1      -0.151  -4.348  11.605  0.00  0.00    +0.009 C 
ATOM     18  C   UNL     1       0.863  -4.452  14.352  0.00  0.00    +0.008 C 
ENDBRANCH   9  11
ENDBRANCH   7   9
ENDBRANCH   5   7
ENDBRANCH   3   5
BRANCH   1  19
ATOM     19  C   UNL     1       0.828  -0.931   6.028  0.00  0.00    +0.116 C 
BRANCH  19  20
ATOM     20  C   UNL     1       0.577   0.065   4.894  0.00  0.00    +0.114 C 
BRANCH  20  23
ATOM     21  C   UNL     1       0.242   0.021   2.481  0.00  0.00    +0.244 C 
ATOM     22  O   UNL     1       0.134   1.231   2.503  0.00  0.00    -0.270 OA
ATOM     23  N   UNL     1       0.465  -0.657   3.625  0.00  0.00    -0.311 N 
ATOM     24  H   UNL     1       0.550  -1.623   3.607  0.00  0.00    +0.149 HD
BRANCH  21  31
ATOM     25  C   UNL     1      -0.502   1.454   0.081  0.00  0.00    +0.044 C 
ATOM     26  C   UNL     1      -0.230  -0.027   0.036  0.00  0.00    -0.038 A 
ATOM     27  C   UNL     1      -0.340  -0.715  -1.155  0.00  0.00    +0.004 A 
ATOM     28  C   UNL     1      -0.085  -2.074  -1.199  0.00  0.00    +0.000 A 
ATOM     29  C   UNL     1       0.270  -2.755  -0.049  0.00  0.00    +0.001 A 
ATOM     30  C   UNL     1       0.378  -2.081   1.150  0.00  0.00    +0.013 A 
ATOM     31  C   UNL     1       0.128  -0.708   1.200  0.00  0.00    +0.040 A 
ENDBRANCH  21  31
ENDBRANCH  20  23
ENDBRANCH  19  20
ENDBRANCH   1  19
TORSDOF 8
