REMARK  Name = ZINC63280651
REMARK  5 active torsions:
REMARK  status: ('A' for Active; 'I' for Inactive)
REMARK    1  A    between atoms: C_1  and  C_2
REMARK    2  A    between atoms: C_2  and  C_3
REMARK    3  A    between atoms: C_2  and  C_4
REMARK    4  A    between atoms: C_7  and  C_10
REMARK    5  A    between atoms: C_16  and  C_18
REMARK                            x       y       z     vdW  Elec       q    Type
REMARK                         _______ _______ _______ _____ _____    ______ ____
ROOT
ATOM      1  C   UNL     1       2.652  -1.939  -4.796  0.00  0.00    +0.050 C 
ATOM      2  N   UNL     1       2.282  -1.772  -6.044  0.00  0.00    -0.264 NA
ATOM      3  C   UNL     1       3.299  -2.277  -6.917  0.00  0.00    +0.205 C 
ATOM      4  C   UNL     1       4.002  -3.393  -6.089  0.00  0.00    +0.128 C 
ATOM      5  C   UNL     1       4.013  -2.640  -4.746  0.00  0.00    +0.072 C 
ATOM      6  C   UNL     1       5.319  -3.605  -6.768  0.00  0.00    +0.228 C 
ATOM      7  O   UNL     1       6.353  -3.740  -6.148  0.00  0.00    -0.275 OA
ATOM      8  N   UNL     1       5.278  -3.637  -8.129  0.00  0.00    -0.240 N 
ATOM      9  C   UNL     1       4.139  -3.417  -8.815  0.00  0.00    +0.307 C 
ATOM     10  O   UNL     1       4.050  -3.806  -9.963  0.00  0.00    -0.252 OA
ATOM     11  N   UNL     1       3.092  -2.779  -8.241  0.00  0.00    -0.277 N 
ATOM     12  H   UNL     1       6.093  -3.824  -8.619  0.00  0.00    +0.159 HD
ATOM     13  H   UNL     1       2.248  -2.672  -8.707  0.00  0.00    +0.152 HD
ENDROOT
BRANCH   5  14
ATOM     14  C   UNL     1       4.088  -3.615  -3.569  0.00  0.00    +0.146 C 
ATOM     15  C   UNL     1       5.533  -4.041  -3.400  0.00  0.00    +0.099 C 
ATOM     16  N   UNL     1       5.807  -5.322  -3.476  0.00  0.00    -0.152 NA
ATOM     17  C   UNL     1       4.869  -6.247  -3.693  0.00  0.00    +0.331 C 
ATOM     18  O   UNL     1       5.225  -7.409  -3.746  0.00  0.00    -0.250 OA
ATOM     19  N   UNL     1       3.565  -5.990  -3.857  0.00  0.00    -0.238 N 
ATOM     20  C   UNL     1       3.088  -4.730  -3.814  0.00  0.00    +0.231 C 
ATOM     21  O   UNL     1       1.907  -4.499  -3.965  0.00  0.00    -0.275 OA
ATOM     22  N   UNL     1       6.507  -3.132  -3.180  0.00  0.00    -0.348 N 
ATOM     23  H   UNL     1       2.952  -6.726  -4.011  0.00  0.00    +0.159 HD
ATOM     24  H   UNL     1       6.279  -2.198  -3.054  0.00  0.00    +0.143 HD
ATOM     25  H   UNL     1       7.435  -3.414  -3.147  0.00  0.00    +0.143 HD
ENDBRANCH   5  14
BRANCH   1  29
ATOM     26  C   UNL     1       0.419  -0.705  -1.403  0.00  0.00    -0.045 A 
ATOM     27  C   UNL     1      -0.236  -1.031  -2.577  0.00  0.00    +0.004 A 
ATOM     28  C   UNL     1       0.483  -1.433  -3.684  0.00  0.00    +0.010 A 
ATOM     29  C   UNL     1       1.876  -1.510  -3.617  0.00  0.00    -0.004 A 
ATOM     30  C   UNL     1       2.531  -1.179  -2.428  0.00  0.00    +0.010 A 
ATOM     31  C   UNL     1       1.799  -0.774  -1.331  0.00  0.00    +0.004 A 
BRANCH  26  33
ATOM     32  C   UNL     1      -1.175   0.989  -0.545  0.00  0.00    +0.012 C 
ATOM     33  C   UNL     1      -0.374  -0.267  -0.199  0.00  0.00    +0.013 C 
ATOM     34  C   UNL     1      -1.333  -1.386   0.215  0.00  0.00    +0.012 C 
ENDBRANCH  26  33
ENDBRANCH   1  29
TORSDOF 3
