REMARK  Name = ZINC09290324
REMARK  7 active torsions:
REMARK  status: ('A' for Active; 'I' for Inactive)
REMARK    1  A    between atoms: C_1  and  C_2
REMARK    2  A    between atoms: C_2  and  O_3
REMARK    3  A    between atoms: O_3  and  C_4
REMARK    4  A    between atoms: C_7  and  C_10
REMARK    5  A    between atoms: C_16  and  C_19
REMARK    6  A    between atoms: C_22  and  O_26
REMARK    7  A    between atoms: C_24  and  O_25
REMARK                            x       y       z     vdW  Elec       q    Type
REMARK                         _______ _______ _______ _____ _____    ______ ____
ROOT
ATOM      1  C   UNL     1       2.054   0.601  -0.006  0.00  0.00    +0.186 A 
ATOM      2  N   UNL     1       1.223  -0.423  -0.006  0.00  0.00    -0.126 NA
ATOM      3  N   UNL     1       0.002  -0.004   0.002  0.00  0.00    -0.120 NA
ATOM      4  C   UNL     1      -0.015   1.295   0.009  0.00  0.00    +0.213 A 
ATOM      5  N   UNL     1       1.291   1.732  -0.001  0.00  0.00    -0.186 N 
ATOM      6  N   UNL     1       1.640   3.080  -0.010  0.00  0.00    -0.166 NA
ATOM      7  C   UNL     1       0.827   4.008   0.362  0.00  0.00    +0.083 C 
ATOM      8  C   UNL     1      -0.561   3.798   0.885  0.00  0.00    +0.135 C 
ATOM      9  S   UNL     1      -1.373   2.419   0.035  0.00  0.00    -0.078 S 
ENDROOT
BRANCH   1  13
ATOM     10  C   UNL     1       6.299   0.414  -0.018  0.00  0.00    +0.121 A 
ATOM     11  C   UNL     1       5.555  -0.717  -0.330  0.00  0.00    +0.046 A 
ATOM     12  C   UNL     1       4.178  -0.660  -0.327  0.00  0.00    +0.015 A 
ATOM     13  C   UNL     1       3.531   0.536  -0.011  0.00  0.00    +0.021 A 
ATOM     14  C   UNL     1       4.282   1.672   0.296  0.00  0.00    +0.015 A 
ATOM     15  C   UNL     1       5.659   1.605   0.297  0.00  0.00    +0.046 A 
BRANCH  10  16
ATOM     16  O   UNL     1       7.656   0.354  -0.022  0.00  0.00    -0.492 OA
BRANCH  16  18
ATOM     17  C   UNL     1       9.866   1.293   0.252  0.00  0.00    +0.048 C 
ATOM     18  C   UNL     1       8.360   1.553   0.308  0.00  0.00    +0.225 C 
ENDBRANCH  16  18
ENDBRANCH  10  16
ENDBRANCH   1  13
BRANCH   7  19
ATOM     19  C   UNL     1       1.305   5.397   0.263  0.00  0.00    +0.040 A 
ATOM     20  C   UNL     1       0.473   6.454   0.643  0.00  0.00    +0.017 A 
ATOM     21  C   UNL     1       0.925   7.751   0.554  0.00  0.00    +0.046 A 
ATOM     22  C   UNL     1       2.203   8.016   0.075  0.00  0.00    +0.120 A 
ATOM     23  C   UNL     1       3.035   6.975  -0.310  0.00  0.00    +0.091 A 
ATOM     24  C   UNL     1       2.594   5.666  -0.220  0.00  0.00    +0.129 A 
BRANCH  24  25
ATOM     25  O   UNL     1       3.407   4.646  -0.597  0.00  0.00    -0.506 OA
ATOM     26  H   UNL     1       3.324   4.401  -1.529  0.00  0.00    +0.292 HD
ENDBRANCH  24  25
BRANCH  22  27
ATOM     27  O   UNL     1       2.639   9.299  -0.015  0.00  0.00    -0.507 OA
ATOM     28  H   UNL     1       2.447   9.721  -0.864  0.00  0.00    +0.292 HD
ENDBRANCH  22  27
ENDBRANCH   7  19
TORSDOF 6
