REMARK  Name = ZINC08415865
REMARK  15 active torsions:
REMARK  status: ('A' for Active; 'I' for Inactive)
REMARK    1  A    between atoms: C_1  and  C_2
REMARK    2  A    between atoms: C_2  and  O_3
REMARK    3  A    between atoms: O_3  and  C_4
REMARK    4  A    between atoms: C_4  and  C_6
REMARK    5  A    between atoms: C_8  and  C_34
REMARK    6  A    between atoms: C_15  and  C_26
REMARK    7  A    between atoms: C_17  and  C_21
REMARK    8  A    between atoms: C_18  and  C_20
REMARK    9  A    between atoms: C_21  and  O_23
REMARK   10  A    between atoms: O_23  and  C_24
REMARK   11  A    between atoms: C_24  and  C_25
REMARK   12  A    between atoms: C_31  and  O_32
REMARK   13  A    between atoms: O_32  and  C_33
REMARK   14  A    between atoms: C_38  and  O_40
REMARK   15  A    between atoms: O_40  and  C_41
REMARK                            x       y       z     vdW  Elec       q    Type
REMARK                         _______ _______ _______ _____ _____    ______ ____
ROOT
ATOM      1  C   UNL     1       1.467  -2.712   2.384  0.00  0.00    +0.176 C 
ATOM      2  C   UNL     1       1.673  -4.202   2.092  0.00  0.00    +0.046 C 
ATOM      3  C   UNL     1       2.477  -4.815   3.241  0.00  0.00    +0.060 C 
ATOM      4  C   UNL     1       3.796  -4.095   3.376  0.00  0.00    +0.016 C 
ATOM      5  C   UNL     1       3.912  -2.790   3.050  0.00  0.00    +0.025 C 
ATOM      6  C   UNL     1       2.809  -2.058   2.573  0.00  0.00    +0.176 C 
ATOM      7  O   UNL     1       2.942  -0.880   2.308  0.00  0.00    -0.291 OA
ATOM      8  C   UNL     1       5.235  -2.078   3.185  0.00  0.00    +0.096 C 
ATOM      9  C   UNL     1       6.169  -2.841   4.077  0.00  0.00    +0.065 C 
ATOM     10  C   UNL     1       5.959  -4.139   4.360  0.00  0.00    +0.016 C 
ATOM     11  N   UNL     1       4.876  -4.794   3.843  0.00  0.00    -0.321 N 
ATOM     12  C   UNL     1       6.924  -4.876   5.252  0.00  0.00    +0.061 C 
ATOM     13  H   UNL     1       4.874  -5.763   3.806  0.00  0.00    +0.152 HD
ENDROOT
BRANCH   8  14
ATOM     14  C   UNL     1       5.861  -1.933   1.822  0.00  0.00    +0.006 A 
ATOM     15  C   UNL     1       6.152  -3.056   1.072  0.00  0.00    +0.008 A 
ATOM     16  C   UNL     1       6.727  -2.924  -0.178  0.00  0.00    +0.001 A 
ATOM     17  C   UNL     1       7.011  -1.668  -0.682  0.00  0.00    +0.004 A 
ATOM     18  C   UNL     1       6.721  -0.542   0.064  0.00  0.00    +0.046 A 
ATOM     19  C   UNL     1       6.140  -0.672   1.317  0.00  0.00    +0.124 A 
BRANCH  19  20
ATOM     20  O   UNL     1       5.849   0.435   2.050  0.00  0.00    -0.495 OA
ATOM     21  C   UNL     1       6.163   1.701   1.466  0.00  0.00    +0.277 C 
ENDBRANCH  19  20
ENDBRANCH   8  14
BRANCH   2  22
ATOM     22  C   UNL     1       0.334  -4.886   1.984  0.00  0.00    -0.039 A 
ATOM     23  C   UNL     1      -0.538  -4.870   3.056  0.00  0.00    +0.004 A 
ATOM     24  C   UNL     1      -1.767  -5.497   2.960  0.00  0.00    +0.004 A 
ATOM     25  C   UNL     1      -2.126  -6.141   1.791  0.00  0.00    +0.045 A 
ATOM     26  C   UNL     1      -1.252  -6.158   0.714  0.00  0.00    +0.120 A 
ATOM     27  C   UNL     1      -0.022  -5.523   0.811  0.00  0.00    +0.049 A 
BRANCH  26  28
ATOM     28  O   UNL     1      -1.603  -6.791  -0.436  0.00  0.00    -0.495 OA
ATOM     29  C   UNL     1      -2.886  -7.418  -0.467  0.00  0.00    +0.277 C 
ENDBRANCH  26  28
ENDBRANCH   2  22
BRANCH   1  30
ATOM     30  C   UNL     1       0.750  -2.065   1.226  0.00  0.00    +0.318 C 
ATOM     31  O   UNL     1       0.432  -2.727   0.267  0.00  0.00    -0.250 OA
BRANCH  30  32
ATOM     32  O   UNL     1       0.466  -0.754   1.261  0.00  0.00    -0.464 OA
BRANCH  32  34
ATOM     33  C   UNL     1      -0.452   1.288   0.350  0.00  0.00    +0.048 C 
ATOM     34  C   UNL     1      -0.215  -0.207   0.130  0.00  0.00    +0.229 C 
ENDBRANCH  32  34
ENDBRANCH  30  32
ENDBRANCH   1  30
BRANCH   9  35
ATOM     35  C   UNL     1       7.293  -2.184   4.630  0.00  0.00    +0.338 C 
ATOM     36  O   UNL     1       7.989  -2.754   5.449  0.00  0.00    -0.245 OA
BRANCH  35  37
ATOM     37  O   UNL     1       7.593  -0.925   4.249  0.00  0.00    -0.462 OA
BRANCH  37  38
ATOM     38  C   UNL     1       8.741  -0.322   4.849  0.00  0.00    +0.229 C 
ATOM     39  C   UNL     1       8.920   1.094   4.298  0.00  0.00    +0.048 C 
ENDBRANCH  37  38
ENDBRANCH  35  37
ENDBRANCH   9  35
TORSDOF 10
