REMARK  Name = ZINC56559547
REMARK  7 active torsions:
REMARK  status: ('A' for Active; 'I' for Inactive)
REMARK    1  A    between atoms: C_1  and  C_2
REMARK    2  A    between atoms: C_2  and  C_4
REMARK    3  A    between atoms: C_2  and  N_11
REMARK    4  A    between atoms: C_4  and  C_5
REMARK    5  A    between atoms: C_5  and  C_6
REMARK    6  A    between atoms: N_14  and  N_15
REMARK    7  A    between atoms: N_18  and  C_19
REMARK                            x       y       z     vdW  Elec       q    Type
REMARK                         _______ _______ _______ _____ _____    ______ ____
ROOT
ATOM      1  N   UNL     1      -1.365  -0.530   0.015  0.00  0.00    -0.296 N 
ATOM      2  C   UNL     1      -2.021  -0.676   1.183  0.00  0.00    +0.316 C 
ATOM      3  O   UNL     1      -1.470  -0.393   2.229  0.00  0.00    -0.251 OA
ATOM      4  N   UNL     1      -3.288  -1.135   1.192  0.00  0.00    -0.217 N 
ATOM      5  H   UNL     1      -1.805  -0.756  -0.820  0.00  0.00    +0.151 HD
ATOM      6  H   UNL     1      -3.760  -1.240   2.033  0.00  0.00    +0.174 HD
ENDROOT
BRANCH   4   7
ATOM      7  N   UNL     1      -3.923  -1.462  -0.014  0.00  0.00    -0.217 N 
ATOM      8  C   UNL     1      -5.190  -1.922  -0.005  0.00  0.00    +0.320 C 
ATOM      9  O   UNL     1      -5.741  -2.205  -1.051  0.00  0.00    -0.251 OA
ATOM     10  N   UNL     1      -5.846  -2.067   1.164  0.00  0.00    -0.268 N 
ATOM     11  H   UNL     1      -3.451  -1.357  -0.855  0.00  0.00    +0.174 HD
ATOM     12  H   UNL     1      -5.385  -1.906   2.002  0.00  0.00    +0.156 HD
BRANCH  10  13
ATOM     13  C   UNL     1      -7.192  -2.452   1.167  0.00  0.00    +0.035 A 
ATOM     14  C   UNL     1      -8.058  -1.941   2.125  0.00  0.00    +0.024 A 
ATOM     15  C   UNL     1      -9.386  -2.321   2.127  0.00  0.00    +0.017 A 
ATOM     16  C   UNL     1      -9.853  -3.210   1.175  0.00  0.00    +0.018 A 
ATOM     17  C   UNL     1      -8.992  -3.721   0.220  0.00  0.00    +0.017 A 
ATOM     18  C   UNL     1      -7.665  -3.339   0.210  0.00  0.00    +0.024 A 
ATOM     19 BR   UNL     1     -11.672  -3.729   1.179  0.00  0.00    -0.050 Br
ENDBRANCH  10  13
ENDBRANCH   4   7
BRANCH   1  21
ATOM     20  C   UNL     1      -0.001   1.500   0.020  0.00  0.00    +0.028 C 
ATOM     21  C   UNL     1       0.012  -0.030   0.005  0.00  0.00    +0.072 C 
BRANCH  21  22
ATOM     22  C   UNL     1       0.724  -0.522  -1.257  0.00  0.00    +0.030 C 
BRANCH  22  23
ATOM     23  C   UNL     1       0.847  -2.046  -1.212  0.00  0.00    +0.076 C 
BRANCH  23  24
ATOM     24  C   UNL     1       1.548  -2.530  -2.455  0.00  0.00    +0.105 A 
ATOM     25  C   UNL     1       2.876  -2.696  -2.595  0.00  0.00    +0.044 A 
ATOM     26  C   UNL     1       3.094  -3.162  -3.912  0.00  0.00    +0.041 A 
ATOM     27  C   UNL     1       1.886  -3.254  -4.498  0.00  0.00    +0.195 A 
ATOM     28  O   UNL     1       0.953  -2.875  -3.609  0.00  0.00    -0.468 OA
ENDBRANCH  23  24
ENDBRANCH  22  23
ENDBRANCH  21  22
ENDBRANCH   1  21
TORSDOF 6
