REMARK  Name = ZINC61564866
REMARK  3 active torsions:
REMARK  status: ('A' for Active; 'I' for Inactive)
REMARK    1  A    between atoms: C_2  and  C_19
REMARK    2  A    between atoms: C_3  and  N_9
REMARK    3  A    between atoms: C_15  and  N_18
REMARK                            x       y       z     vdW  Elec       q    Type
REMARK                         _______ _______ _______ _____ _____    ______ ____
ROOT
ATOM      1  N   UNL     1       3.583   2.059  -0.011  0.00  0.00    -0.268 N 
ATOM      2  C   UNL     1       4.739   1.374  -0.114  0.00  0.00    +0.306 C 
ATOM      3  O   UNL     1       4.719   0.172  -0.294  0.00  0.00    -0.252 OA
ATOM      4  N   UNL     1       5.917   2.021  -0.017  0.00  0.00    -0.285 N 
ATOM      5  C   UNL     1       5.959   3.486   0.097  0.00  0.00    +0.108 C 
ATOM      6  C   UNL     1       6.786   3.861   1.331  0.00  0.00    +0.003 C 
ATOM      7  C   UNL     1       8.162   3.198   1.239  0.00  0.00    -0.072 C 
ATOM      8  C   UNL     1       7.997   1.677   1.212  0.00  0.00    +0.003 C 
ATOM      9  C   UNL     1       7.183   1.276  -0.017  0.00  0.00    +0.108 C 
ATOM     10  H   UNL     1       3.597   3.026   0.055  0.00  0.00    +0.156 HD
ENDROOT
BRANCH   1  13
ATOM     11  C   UNL     1       0.020   1.251  -0.587  0.00  0.00    +0.058 A 
ATOM     12  C   UNL     1       1.235   1.945  -0.604  0.00  0.00    +0.087 A 
ATOM     13  C   UNL     1       2.369   1.377   0.001  0.00  0.00    +0.052 A 
ATOM     14  C   UNL     1       2.273   0.135   0.610  0.00  0.00    +0.065 A 
ATOM     15  C   UNL     1       1.067  -0.541   0.621  0.00  0.00    +0.160 A 
ATOM     16  C   UNL     1      -0.058   0.018   0.023  0.00  0.00    +0.159 A 
ATOM     17  F   UNL     1      -1.231  -0.651   0.040  0.00  0.00    -0.202 F 
ATOM     18  F   UNL     1       0.980  -1.751   1.215  0.00  0.00    -0.202 F 
BRANCH  12  19
ATOM     19  C   UNL     1       1.325   3.261  -1.253  0.00  0.00    +0.388 C 
ATOM     20  O   UNL     1       0.362   3.712  -1.858  0.00  0.00    -0.241 OA
ATOM     21  O   UNL     1       2.363   3.905  -1.189  0.00  0.00    -0.241 OA
ENDBRANCH  12  19
ENDBRANCH   1  13
BRANCH   7  22
ATOM     22  N   UNL     1       8.970   3.582   2.404  0.00  0.00    +0.380 N 
ATOM     23  H   UNL     1       8.507   3.280   3.248  0.00  0.00    -0.090 HD
ATOM     24  H   UNL     1       9.877   3.145   2.343  0.00  0.00    -0.090 HD
ATOM     25  H   UNL     1       9.080   4.585   2.421  0.00  0.00    -0.090 HD
ENDBRANCH   7  22
TORSDOF 3
