REMARK  Name = ZINC49060554
REMARK  7 active torsions:
REMARK  status: ('A' for Active; 'I' for Inactive)
REMARK    1  A    between atoms: C_1  and  C_2
REMARK    2  A    between atoms: C_2  and  C_3
REMARK    3  A    between atoms: C_6  and  C_9
REMARK    4  A    between atoms: C_11  and  C_14
REMARK    5  A    between atoms: N_19  and  C_21
REMARK    6  A    between atoms: C_24  and  C_28
REMARK    7  A    between atoms: C_25  and  C_27
REMARK                            x       y       z     vdW  Elec       q    Type
REMARK                         _______ _______ _______ _____ _____    ______ ____
ROOT
ATOM      1  C   UNL     1       5.638  -2.911  -6.580  0.00  0.00    +0.087 C 
ATOM      2  C   UNL     1       5.616  -4.337  -7.177  0.00  0.00    +0.109 C 
ATOM      3  C   UNL     1       6.547  -4.255  -8.367  0.00  0.00    +0.221 C 
ATOM      4  O   UNL     1       7.026  -5.210  -8.941  0.00  0.00    -0.275 OA
ATOM      5  N   UNL     1       6.765  -2.970  -8.695  0.00  0.00    -0.271 N 
ATOM      6  C   UNL     1       6.030  -2.060  -7.808  0.00  0.00    +0.125 C 
ENDROOT
BRANCH   5   7
ATOM      7  C   UNL     1       7.588  -2.552  -9.747  0.00  0.00    +0.037 A 
ATOM      8  C   UNL     1       8.332  -3.483 -10.460  0.00  0.00    +0.024 A 
ATOM      9  C   UNL     1       9.143  -3.068 -11.498  0.00  0.00    +0.005 A 
ATOM     10  C   UNL     1       9.215  -1.727 -11.827  0.00  0.00    -0.047 A 
ATOM     11  C   UNL     1       8.476  -0.798 -11.119  0.00  0.00    -0.046 A 
ATOM     12  C   UNL     1       7.657  -1.207 -10.085  0.00  0.00    +0.027 A 
ATOM     13  C   UNL     1       8.557   0.663 -11.482  0.00  0.00    +0.044 C 
ATOM     14  C   UNL     1      10.102  -1.278 -12.960  0.00  0.00    +0.044 C 
ENDBRANCH   5   7
BRANCH   1  17
ATOM     15  C   UNL     1       2.722  -1.852  -4.707  0.00  0.00    +0.258 A 
ATOM     16  N   UNL     1       4.005  -2.113  -4.824  0.00  0.00    -0.191 NA
ATOM     17  C   UNL     1       4.276  -2.521  -6.066  0.00  0.00    +0.177 A 
ATOM     18  N   UNL     1       3.175  -2.527  -6.763  0.00  0.00    -0.061 NA
ATOM     19  O   UNL     1       2.138  -2.098  -5.893  0.00  0.00    -0.333 OA
BRANCH  15  23
ATOM     20  C   UNL     1       0.762  -0.488  -1.195  0.00  0.00    -0.048 A 
ATOM     21  C   UNL     1       0.033  -0.700  -2.352  0.00  0.00    +0.004 A 
ATOM     22  C   UNL     1       0.664  -1.143  -3.496  0.00  0.00    +0.013 A 
ATOM     23  C   UNL     1       2.040  -1.377  -3.485  0.00  0.00    +0.039 A 
ATOM     24  C   UNL     1       2.769  -1.161  -2.314  0.00  0.00    +0.013 A 
ATOM     25  C   UNL     1       2.127  -0.713  -1.178  0.00  0.00    +0.004 A 
BRANCH  20  27
ATOM     26  C   UNL     1       0.060   1.525   0.072  0.00  0.00    +0.009 C 
ATOM     27  C   UNL     1       0.066  -0.005   0.052  0.00  0.00    +0.032 C 
ENDBRANCH  20  27
ENDBRANCH  15  23
ENDBRANCH   1  17
TORSDOF 4
