REMARK  Name = ZINC13636745
REMARK  4 active torsions:
REMARK  status: ('A' for Active; 'I' for Inactive)
REMARK    1  A    between atoms: C_3  and  O_27
REMARK    2  A    between atoms: C_6  and  C_7
REMARK    3  A    between atoms: C_18  and  S_23
REMARK    4  A    between atoms: S_23  and  N_26
REMARK                            x       y       z     vdW  Elec       q    Type
REMARK                         _______ _______ _______ _____ _____    ______ ____
ROOT
ATOM      1  C   UNL     1      -0.354   3.062   1.480  0.00  0.00    +0.105 C 
ATOM      2  C   UNL     1      -0.433   1.557   1.210  0.00  0.00    +0.029 C 
ATOM      3  C   UNL     1       0.604   1.231   0.095  0.00  0.00    +0.033 C 
ATOM      4  C   UNL     1      -0.127   1.587  -1.185  0.00  0.00    -0.030 C 
ATOM      5  C   UNL     1      -1.423   1.582  -0.990  0.00  0.00    -0.023 C 
ATOM      6  C   UNL     1      -1.735   1.227   0.444  0.00  0.00    +0.049 C 
ATOM      7  C   UNL     1      -2.907   2.001   0.958  0.00  0.00    -0.018 A 
ATOM      8  C   UNL     1      -4.180   1.637   0.540  0.00  0.00    +0.034 A 
ATOM      9  C   UNL     1      -5.289   2.323   0.991  0.00  0.00    +0.105 A 
ATOM     10  C   UNL     1      -5.145   3.385   1.865  0.00  0.00    +0.030 A 
ATOM     11  C   UNL     1      -3.915   3.736   2.286  0.00  0.00    +0.025 A 
ATOM     12  C   UNL     1      -2.789   3.058   1.834  0.00  0.00    +0.031 A 
ATOM     13  N   UNL     1      -1.523   3.465   2.268  0.00  0.00    -0.336 N 
ATOM     14  H   UNL     1      -1.421   4.001   3.071  0.00  0.00    +0.147 HD
ENDROOT
BRANCH   1  20
ATOM     15  C   UNL     1       0.856   4.102  -0.449  0.00  0.00    +0.009 A 
ATOM     16  C   UNL     1       0.866   4.782  -1.651  0.00  0.00    +0.046 A 
ATOM     17  C   UNL     1      -0.329   5.183  -2.230  0.00  0.00    +0.117 A 
ATOM     18  C   UNL     1      -1.532   4.894  -1.603  0.00  0.00    +0.046 A 
ATOM     19  C   UNL     1      -1.538   4.209  -0.403  0.00  0.00    +0.009 A 
ATOM     20  C   UNL     1      -0.345   3.810   0.172  0.00  0.00    -0.027 A 
BRANCH  17  21
ATOM     21  O   UNL     1      -0.321   5.857  -3.410  0.00  0.00    -0.507 OA
ATOM     22  H   UNL     1      -0.274   6.819  -3.313  0.00  0.00    +0.292 HD
ENDBRANCH  17  21
ENDBRANCH   1  20
BRANCH   9  23
ATOM     23  S   UNL     1      -6.896   1.845   0.449  0.00  0.00    +0.056 S 
ATOM     24  O   UNL     1      -7.728   2.989   0.586  0.00  0.00    -0.153 OA
ATOM     25  O   UNL     1      -6.724   1.173  -0.791  0.00  0.00    -0.153 OA
BRANCH  23  26
ATOM     26  N   UNL     1      -7.460   0.719   1.523  0.00  0.00    -0.204 NA
ATOM     27  H   UNL     1      -8.413   0.642   1.690  0.00  0.00    +0.144 HD
ATOM     28  H   UNL     1      -6.838   0.136   1.986  0.00  0.00    +0.144 HD
ENDBRANCH  23  26
ENDBRANCH   9  23
TORSDOF 4
