REMARK  Name = ZINC17098076
REMARK  5 active torsions:
REMARK  status: ('A' for Active; 'I' for Inactive)
REMARK    1  A    between atoms: C_1  and  C_2
REMARK    2  A    between atoms: C_2  and  C_32
REMARK    3  A    between atoms: C_6  and  C_21
REMARK    4  A    between atoms: C_24  and  S_27
REMARK    5  A    between atoms: S_27  and  C_28
REMARK                            x       y       z     vdW  Elec       q    Type
REMARK                         _______ _______ _______ _____ _____    ______ ____
ROOT
ATOM      1  C   UNL     1      -9.573  -1.261  -0.969  0.00  0.00    +0.011 C 
ATOM      2  C   UNL     1      -9.605  -1.021   0.542  0.00  0.00    -0.023 C 
ATOM      3  C   UNL     1      -8.858   0.274   0.873  0.00  0.00    +0.058 C 
ATOM      4  C   UNL     1      -7.416   0.145   0.457  0.00  0.00    +0.020 C 
ATOM      5  C   UNL     1      -6.790  -1.051   0.460  0.00  0.00    +0.041 C 
ATOM      6  C   UNL     1      -5.347  -1.155   0.038  0.00  0.00    +0.173 C 
ATOM      7  N   UNL     1      -4.694   0.146   0.042  0.00  0.00    -0.243 NA
ATOM      8  C   UNL     1      -5.355   1.259   0.058  0.00  0.00    +0.188 C 
ATOM      9  N   UNL     1      -6.732   1.268   0.071  0.00  0.00    -0.290 N 
ATOM     10  N   UNL     1      -4.669   2.455   0.058  0.00  0.00    -0.241 N 
ATOM     11  C   UNL     1      -3.288   2.459   0.045  0.00  0.00    +0.295 A 
ATOM     12  N   UNL     1      -2.542   3.533   0.044  0.00  0.00    -0.195 NA
ATOM     13  C   UNL     1      -1.235   3.156   0.030  0.00  0.00    +0.111 A 
ATOM     14  C   UNL     1      -0.029   3.859   0.022  0.00  0.00    +0.031 A 
ATOM     15  C   UNL     1       1.164   3.170   0.007  0.00  0.00    +0.002 A 
ATOM     16  C   UNL     1       1.173   1.783   0.000  0.00  0.00    +0.004 A 
ATOM     17  C   UNL     1      -0.013   1.076   0.008  0.00  0.00    +0.048 A 
ATOM     18  C   UNL     1      -1.221   1.753   0.017  0.00  0.00    +0.157 A 
ATOM     19  O   UNL     1      -2.515   1.359   0.033  0.00  0.00    -0.424 OA
ATOM     20  C   UNL     1      -7.464  -2.220   0.850  0.00  0.00    +0.164 C 
ATOM     21  O   UNL     1      -6.869  -3.280   0.856  0.00  0.00    -0.292 OA
ATOM     22  C   UNL     1      -8.911  -2.182   1.262  0.00  0.00    +0.086 C 
ATOM     23  C   UNL     1     -11.056  -0.918   1.015  0.00  0.00    +0.011 C 
ATOM     24  H   UNL     1      -7.282   2.172  -0.228  0.00  0.00    +0.154 HD
ATOM     25  H   UNL     1      -5.222   3.406   0.067  0.00  0.00    +0.159 HD
ENDROOT
BRANCH   6  26
ATOM     26  C   UNL     1      -5.281  -1.730  -1.354  0.00  0.00    -0.018 A 
ATOM     27  C   UNL     1      -5.518  -0.917  -2.448  0.00  0.00    +0.007 A 
ATOM     28  C   UNL     1      -5.454  -1.439  -3.724  0.00  0.00    +0.015 A 
ATOM     29  C   UNL     1      -5.161  -2.785  -3.909  0.00  0.00    +0.008 A 
ATOM     30  C   UNL     1      -4.928  -3.600  -2.808  0.00  0.00    +0.015 A 
ATOM     31  C   UNL     1      -4.989  -3.070  -1.534  0.00  0.00    +0.007 A 
BRANCH  29  32
ATOM     32  S   UNL     1      -5.085  -3.457  -5.537  0.00  0.00    -0.129 S 
ATOM     33  C   UNL     1      -5.450  -2.043  -6.613  0.00  0.00    +0.090 C 
ENDBRANCH  29  32
ENDBRANCH   6  26
TORSDOF 2
