REMARK  Name = ZINC40550005
REMARK  3 active torsions:
REMARK  status: ('A' for Active; 'I' for Inactive)
REMARK    1  A    between atoms: C_4  and  C_7
REMARK    2  A    between atoms: C_4  and  N_10
REMARK    3  A    between atoms: C_16  and  O_19
REMARK                            x       y       z     vdW  Elec       q    Type
REMARK                         _______ _______ _______ _____ _____    ______ ____
ROOT
ATOM      1  N   UNL     1       2.863  -0.453  -0.081  0.00  0.00    -0.283 N 
ATOM      2  C   UNL     1       3.005  -1.778   0.124  0.00  0.00    +0.303 C 
ATOM      3  O   UNL     1       2.469  -2.570  -0.626  0.00  0.00    -0.253 OA
ATOM      4  N   UNL     1       3.743  -2.223   1.161  0.00  0.00    -0.285 N 
ATOM      5  C   UNL     1       4.003  -3.659   1.331  0.00  0.00    +0.112 C 
ATOM      6  C   UNL     1       5.515  -3.875   1.452  0.00  0.00    +0.050 C 
ATOM      7  C   UNL     1       6.062  -2.998   2.581  0.00  0.00    +0.118 C 
ATOM      8  C   UNL     1       5.809  -1.525   2.254  0.00  0.00    +0.050 C 
ATOM      9  C   UNL     1       4.306  -1.282   2.138  0.00  0.00    +0.112 C 
ATOM     10  H   UNL     1       3.229   0.179   0.557  0.00  0.00    +0.151 HD
ENDROOT
BRANCH   1  14
ATOM     11  C   UNL     1      -0.017   1.527   0.009  0.00  0.00    +0.000 C 
ATOM     12  C   UNL     1       1.418   2.056  -0.002  0.00  0.00    +0.003 C 
ATOM     13  C   UNL     1       2.135   1.562  -1.260  0.00  0.00    +0.037 C 
ATOM     14  C   UNL     1       2.155   0.032  -1.268  0.00  0.00    +0.137 C 
ATOM     15  C   UNL     1       0.719  -0.497  -1.258  0.00  0.00    +0.037 C 
ATOM     16  C   UNL     1       0.003  -0.003   0.001  0.00  0.00    +0.003 C 
BRANCH  14  17
ATOM     17  C   UNL     1       2.860  -0.455  -2.508  0.00  0.00    +0.379 C 
ATOM     18  O   UNL     1       3.862  -1.143  -2.409  0.00  0.00    -0.244 OA
ATOM     19  O   UNL     1       2.430  -0.160  -3.610  0.00  0.00    -0.244 OA
ENDBRANCH  14  17
ENDBRANCH   1  14
BRANCH   7  20
ATOM     20  O   UNL     1       7.467  -3.221   2.719  0.00  0.00    -0.392 OA
ATOM     21  H   UNL     1       7.882  -2.697   3.418  0.00  0.00    +0.210 HD
ENDBRANCH   7  20
TORSDOF 3
