REMARK  Name = ZINC13063944
REMARK  12 active torsions:
REMARK  status: ('A' for Active; 'I' for Inactive)
REMARK    1  A    between atoms: C_1  and  C_2
REMARK    2  A    between atoms: C_2  and  C_3
REMARK    3  A    between atoms: C_3  and  C_5
REMARK    4  A    between atoms: C_3  and  N_69
REMARK    5  A    between atoms: N_9  and  C_10
REMARK    6  A    between atoms: C_10  and  C_11
REMARK    7  A    between atoms: C_18  and  C_19
REMARK    8  A    between atoms: C_18  and  N_69
REMARK    9  A    between atoms: C_19  and  C_20
REMARK   10  A    between atoms: C_26  and  C_27
REMARK   11  A    between atoms: C_26  and  N_69
REMARK   12  A    between atoms: C_32  and  C_39
REMARK                            x       y       z     vdW  Elec       q    Type
REMARK                         _______ _______ _______ _____ _____    ______ ____
ROOT
ATOM      1  N   UNL     1      -1.425  -0.324  -0.191  0.00  0.00    +0.389 N 
ATOM      2  H   UNL     1      -1.978   0.093  -0.949  0.00  0.00    -0.080 HD
ENDROOT
BRANCH   1   3
ATOM      3  C   UNL     1      -1.320  -1.780  -0.417  0.00  0.00    +0.003 C 
BRANCH   3   4
ATOM      4  C   UNL     1      -0.493  -2.029  -1.652  0.00  0.00    +0.138 A 
ATOM      5  N   UNL     1      -0.586  -1.396  -2.796  0.00  0.00    -0.115 NA
ATOM      6  N   UNL     1       0.290  -1.895  -3.599  0.00  0.00    -0.023 NA
ATOM      7  N   UNL     1       0.933  -2.835  -2.999  0.00  0.00    -0.044 NA
ATOM      8  N   UNL     1       0.479  -2.948  -1.797  0.00  0.00    -0.226 N 
BRANCH   8   9
ATOM      9  C   UNL     1       0.935  -3.899  -0.780  0.00  0.00    +0.182 C 
BRANCH   9  10
ATOM     10  C   UNL     1       0.132  -5.170  -0.884  0.00  0.00    -0.026 A 
ATOM     11  C   UNL     1      -1.034  -5.312  -0.154  0.00  0.00    +0.008 A 
ATOM     12  C   UNL     1      -1.774  -6.474  -0.252  0.00  0.00    +0.038 A 
ATOM     13  C   UNL     1      -1.343  -7.502  -1.074  0.00  0.00    +0.123 A 
ATOM     14  C   UNL     1      -0.173  -7.361  -1.800  0.00  0.00    +0.038 A 
ATOM     15  C   UNL     1       0.563  -6.195  -1.705  0.00  0.00    +0.008 A 
ATOM     16  F   UNL     1      -2.063  -8.641  -1.167  0.00  0.00    -0.205 F 
ENDBRANCH   9  10
ENDBRANCH   8   9
ENDBRANCH   3   4
BRANCH   3  18
ATOM     17  C   UNL     1      -3.401  -1.635  -1.793  0.00  0.00    +0.002 C 
ATOM     18  C   UNL     1      -2.725  -2.350  -0.621  0.00  0.00    -0.011 C 
ENDBRANCH   3  18
ENDBRANCH   1   3
BRANCH   1  19
ATOM     19  C   UNL     1      -0.078   0.285  -0.190  0.00  0.00    -0.073 C 
BRANCH  19  20
ATOM     20  C   UNL     1      -0.225   1.808  -0.221  0.00  0.00    +0.016 C 
BRANCH  20  21
ATOM     21  C   UNL     1       1.141   2.445  -0.224  0.00  0.00    -0.049 A 
ATOM     22  C   UNL     1       1.796   2.682   0.971  0.00  0.00    +0.003 A 
ATOM     23  C   UNL     1       3.051   3.261   0.968  0.00  0.00    +0.000 A 
ATOM     24  C   UNL     1       3.646   3.613  -0.229  0.00  0.00    +0.000 A 
ATOM     25  C   UNL     1       2.989   3.381  -1.423  0.00  0.00    +0.000 A 
ATOM     26  C   UNL     1       1.737   2.797  -1.420  0.00  0.00    +0.003 A 
ENDBRANCH  20  21
ENDBRANCH  19  20
ENDBRANCH   1  19
BRANCH   1  27
ATOM     27  C   UNL     1      -2.100  -0.059   1.097  0.00  0.00    -0.037 C 
BRANCH  27  28
ATOM     28  C   UNL     1      -1.240  -0.515   2.248  0.00  0.00    +0.001 A 
ATOM     29  C   UNL     1      -0.407   0.363   2.858  0.00  0.00    +0.017 A 
ATOM     30  C   UNL     1       0.415  -0.112   3.973  0.00  0.00    -0.001 A 
ATOM     31  C   UNL     1       1.292   0.748   4.642  0.00  0.00    +0.010 A 
ATOM     32  C   UNL     1       2.045   0.274   5.679  0.00  0.00    +0.004 A 
ATOM     33  C   UNL     1       1.948  -1.053   6.074  0.00  0.00    -0.048 A 
ATOM     34  C   UNL     1       1.089  -1.918   5.430  0.00  0.00    +0.029 A 
ATOM     35  C   UNL     1       0.313  -1.458   4.371  0.00  0.00    +0.049 A 
ATOM     36  N   UNL     1      -0.554  -2.301   3.708  0.00  0.00    -0.322 N 
ATOM     37  H   UNL     1      -0.623  -3.228   3.984  0.00  0.00    +0.169 HD
ATOM     38  C   UNL     1      -1.309  -1.854   2.689  0.00  0.00    +0.251 A 
ATOM     39  O   UNL     1      -2.068  -2.626   2.130  0.00  0.00    -0.268 OA
ATOM     40  C   UNL     1       2.788  -1.554   7.220  0.00  0.00    +0.044 C 
ENDBRANCH  27  28
ENDBRANCH   1  27
TORSDOF 10
