REMARK  Name = ZINC42471616
REMARK  7 active torsions:
REMARK  status: ('A' for Active; 'I' for Inactive)
REMARK    1  A    between atoms: C_1  and  C_2
REMARK    2  A    between atoms: C_2  and  C_3
REMARK    3  A    between atoms: C_2  and  C_4
REMARK    4  A    between atoms: C_2  and  CA_5
REMARK    5  A    between atoms: CA_5  and  C_7
REMARK    6  A    between atoms: CA_5  and  N_10
REMARK    7  A    between atoms: C_17  and  O_20
REMARK                            x       y       z     vdW  Elec       q    Type
REMARK                         _______ _______ _______ _____ _____    ______ ____
ROOT
ATOM      1  N   UNL     1       0.739  -1.962  -1.265  0.00  0.00    -0.285 N 
ATOM      2  C   UNL     1       0.838  -2.628  -2.432  0.00  0.00    +0.303 C 
ATOM      3  O   UNL     1       0.819  -2.018  -3.484  0.00  0.00    -0.253 OA
ATOM      4  N   UNL     1       0.958  -3.971  -2.434  0.00  0.00    -0.283 N 
ATOM      5  C   UNL     1       0.865  -4.732  -1.181  0.00  0.00    +0.109 C 
ATOM      6  C   UNL     1       2.109  -5.617  -1.049  0.00  0.00    +0.022 C 
ATOM      7  C   UNL     1       2.248  -6.485  -2.302  0.00  0.00    +0.034 C 
ATOM      8  C   UNL     1       2.422  -5.586  -3.529  0.00  0.00    +0.132 C 
ATOM      9  C   UNL     1       1.177  -4.701  -3.690  0.00  0.00    +0.140 C 
ATOM     10  H   UNL     1       0.680  -2.453  -0.430  0.00  0.00    +0.151 HD
ENDROOT
BRANCH   8  11
ATOM     11  O   UNL     1       2.583  -6.397  -4.695  0.00  0.00    -0.390 OA
ATOM     12  H   UNL     1       2.699  -5.893  -5.512  0.00  0.00    +0.210 HD
ENDBRANCH   8  11
BRANCH   1  13
ATOM     13  CA  UNL     1       0.721  -0.497  -1.257  0.00  0.00    +0.193 C 
BRANCH  13  15
ATOM     14  C   UNL     1      -0.014   1.527   0.011  0.00  0.00    +0.013 C 
ATOM     15  C   UNL     1       0.005  -0.003   0.002  0.00  0.00    -0.009 C 
ATOM     16  C   UNL     1       0.745  -0.511   1.242  0.00  0.00    +0.013 C 
ATOM     17  C   UNL     1      -1.431  -0.531   0.013  0.00  0.00    +0.013 C 
ENDBRANCH  13  15
BRANCH  13  18
ATOM     18  C   UNL     1       2.135   0.023  -1.268  0.00  0.00    +0.376 C 
ATOM     19  O   UNL     1       3.028  -0.628  -0.752  0.00  0.00    -0.244 OA
ATOM     20  OXT UNL     1       2.387   1.094  -1.792  0.00  0.00    -0.244 OA
ENDBRANCH  13  18
ENDBRANCH   1  13
TORSDOF 4
