REMARK  Name = ZINC00902619
REMARK  10 active torsions:
REMARK  status: ('A' for Active; 'I' for Inactive)
REMARK    1  A    between atoms: N_9  and  C_10
REMARK    2  A    between atoms: C_10  and  C_11
REMARK    3  A    between atoms: N_13  and  C_14
REMARK    4  A    between atoms: N_13  and  C_21
REMARK    5  A    between atoms: C_18  and  O_20
REMARK    6  A    between atoms: C_21  and  C_23
REMARK    7  A    between atoms: C_21  and  C_31
REMARK    8  A    between atoms: C_26  and  O_30
REMARK    9  A    between atoms: C_27  and  O_29
REMARK   10  A    between atoms: N_33  and  C_34
REMARK                            x       y       z     vdW  Elec       q    Type
REMARK                         _______ _______ _______ _____ _____    ______ ____
ROOT
ATOM      1  C   UNL     1       5.394  -0.905   1.901  0.00  0.00    +0.242 C 
ATOM      2  O   UNL     1       5.396  -1.847   2.665  0.00  0.00    -0.273 OA
ATOM      3  N   UNL     1       6.445  -0.061   1.870  0.00  0.00    -0.254 N 
ENDROOT
BRANCH   3   4
ATOM      4  C   UNL     1       6.385   1.102   1.095  0.00  0.00    +0.041 A 
ATOM      5  C   UNL     1       6.445   1.019  -0.291  0.00  0.00    +0.024 A 
ATOM      6  C   UNL     1       6.386   2.167  -1.056  0.00  0.00    +0.005 A 
ATOM      7  C   UNL     1       6.267   3.402  -0.446  0.00  0.00    +0.045 A 
ATOM      8  C   UNL     1       6.207   3.491   0.938  0.00  0.00    +0.119 A 
ATOM      9  C   UNL     1       6.259   2.340   1.709  0.00  0.00    +0.069 A 
BRANCH   8  10
ATOM     10  O   UNL     1       6.090   4.706   1.536  0.00  0.00    -0.507 OA
ATOM     11  H   UNL     1       5.177   4.989   1.675  0.00  0.00    +0.292 HD
ENDBRANCH   8  10
ENDBRANCH   3   4
BRANCH   1  12
ATOM     12  C   UNL     1       4.218  -0.679   0.986  0.00  0.00    +0.242 C 
BRANCH  12  21
ATOM     13  C   UNL     1      -0.029  -2.382   3.592  0.00  0.00    +0.002 A 
ATOM     14  C   UNL     1       0.625  -1.170   3.768  0.00  0.00    +0.002 A 
ATOM     15  C   UNL     1       1.723  -0.857   3.017  0.00  0.00    +0.029 A 
ATOM     16  C   UNL     1       2.192  -1.759   2.068  0.00  0.00    +0.090 A 
ATOM     17  C   UNL     1       1.534  -2.988   1.885  0.00  0.00    +0.113 A 
ATOM     18  C   UNL     1       0.410  -3.284   2.668  0.00  0.00    +0.032 A 
ATOM     19  N   UNL     1       2.187  -3.661   0.917  0.00  0.00    -0.129 NA
ATOM     20  N   UNL     1       3.182  -2.969   0.484  0.00  0.00    -0.064 NA
ATOM     21  N   UNL     1       3.238  -1.750   1.177  0.00  0.00    -0.235 N 
ENDBRANCH  12  21
ENDBRANCH   1  12
BRANCH   3  22
ATOM     22  C   UNL     1       7.649  -0.362   2.648  0.00  0.00    +0.197 C 
BRANCH  22  23
ATOM     23  C   UNL     1       8.606   0.799   2.561  0.00  0.00    -0.014 A 
ATOM     24  C   UNL     1       9.026   1.256   1.326  0.00  0.00    +0.010 A 
ATOM     25  C   UNL     1       9.903   2.321   1.242  0.00  0.00    +0.049 A 
ATOM     26  C   UNL     1      10.363   2.934   2.397  0.00  0.00    +0.158 A 
ATOM     27  C   UNL     1       9.939   2.474   3.640  0.00  0.00    +0.159 A 
ATOM     28  C   UNL     1       9.056   1.409   3.717  0.00  0.00    +0.055 A 
BRANCH  27  29
ATOM     29  O   UNL     1      10.388   3.072   4.776  0.00  0.00    -0.503 OA
ATOM     30  H   UNL     1       9.835   3.805   5.080  0.00  0.00    +0.292 HD
ENDBRANCH  27  29
BRANCH  26  31
ATOM     31  O   UNL     1      11.227   3.981   2.316  0.00  0.00    -0.503 OA
ATOM     32  H   UNL     1      10.794   4.845   2.266  0.00  0.00    +0.292 HD
ENDBRANCH  26  31
ENDBRANCH  22  23
BRANCH  22  33
ATOM     33  C   UNL     1       8.309  -1.598   2.094  0.00  0.00    +0.239 C 
ATOM     34  O   UNL     1       7.821  -2.172   1.143  0.00  0.00    -0.273 OA
ATOM     35  N   UNL     1       9.441  -2.067   2.655  0.00  0.00    -0.311 N 
ATOM     36  H   UNL     1       9.831  -1.608   3.416  0.00  0.00    +0.149 HD
BRANCH  35  37
ATOM     37  C   UNL     1      10.083  -3.269   2.117  0.00  0.00    +0.073 C 
ATOM     38  C   UNL     1       9.437  -4.511   2.734  0.00  0.00    +0.022 C 
ATOM     39  C   UNL     1      10.107  -5.767   2.172  0.00  0.00    +0.002 C 
ATOM     40  C   UNL     1      11.598  -5.745   2.512  0.00  0.00    +0.000 C 
ATOM     41  C   UNL     1      12.244  -4.502   1.896  0.00  0.00    +0.002 C 
ATOM     42  C   UNL     1      11.574  -3.247   2.458  0.00  0.00    +0.022 C 
ENDBRANCH  35  37
ENDBRANCH  22  33
ENDBRANCH   3  22
TORSDOF 10
