REMARK  Name = ZINC04270187
REMARK  7 active torsions:
REMARK  status: ('A' for Active; 'I' for Inactive)
REMARK    1  A    between atoms: C_1  and  C_2
REMARK    2  A    between atoms: C_3  and  S_12
REMARK    3  A    between atoms: N_6  and  C_11
REMARK    4  A    between atoms: N_9  and  C_10
REMARK    5  A    between atoms: S_12  and  N_15
REMARK    6  A    between atoms: N_15  and  C_16
REMARK    7  A    between atoms: C_21  and  C_22
REMARK                            x       y       z     vdW  Elec       q    Type
REMARK                         _______ _______ _______ _____ _____    ______ ____
ROOT
ATOM      1  S   UNL     1       3.475   2.400   0.673  0.00  0.00    +0.079 S 
ATOM      2  O   UNL     1       4.829   2.133   0.335  0.00  0.00    -0.150 OA
ATOM      3  O   UNL     1       2.824   3.611   0.312  0.00  0.00    -0.150 OA
ENDROOT
BRANCH   1   6
ATOM      4  C   UNL     1       5.538   1.090   2.426  0.00  0.00    +0.066 C 
ATOM      5  C   UNL     1       4.335   1.661   3.133  0.00  0.00    +0.052 A 
ATOM      6  C   UNL     1       3.358   2.268   2.426  0.00  0.00    +0.192 A 
ATOM      7  C   UNL     1       2.241   2.801   3.112  0.00  0.00    +0.283 A 
ATOM      8  O   UNL     1       1.349   3.357   2.497  0.00  0.00    -0.265 OA
ATOM      9  N   UNL     1       2.170   2.682   4.454  0.00  0.00    -0.262 N 
ATOM     10  C   UNL     1       3.159   2.073   5.134  0.00  0.00    +0.332 A 
ATOM     11  O   UNL     1       3.084   1.978   6.344  0.00  0.00    -0.246 OA
ATOM     12  N   UNL     1       4.229   1.567   4.494  0.00  0.00    -0.299 N 
ATOM     13  C   UNL     1       5.289   0.909   5.261  0.00  0.00    +0.154 C 
ATOM     14  C   UNL     1       1.016   3.225   5.174  0.00  0.00    +0.157 C 
ENDBRANCH   1   6
BRANCH   1  15
ATOM     15  N   UNL     1       2.575   1.169   0.028  0.00  0.00    -0.215 N 
ATOM     16  H   UNL     1       3.007   0.470  -0.487  0.00  0.00    +0.174 HD
BRANCH  15  17
ATOM     17  C   UNL     1       1.200   1.138   0.223  0.00  0.00    +0.060 A 
ATOM     18  C   UNL     1       0.390   2.106  -0.357  0.00  0.00    +0.025 A 
ATOM     19  C   UNL     1      -0.976   2.073  -0.162  0.00  0.00    +0.002 A 
ATOM     20  C   UNL     1      -1.550   1.076   0.612  0.00  0.00    +0.001 A 
ATOM     21  C   UNL     1      -0.763   0.105   1.191  0.00  0.00    +0.015 A 
ATOM     22  C   UNL     1       0.622   0.128   1.007  0.00  0.00    +0.059 A 
BRANCH  22  23
ATOM     23  C   UNL     1       1.470  -0.906   1.628  0.00  0.00    +0.243 C 
ATOM     24  O   UNL     1       2.674  -0.885   1.462  0.00  0.00    -0.270 OA
ATOM     25  N   UNL     1       0.910  -1.874   2.381  0.00  0.00    -0.325 N 
ATOM     26  H   UNL     1      -0.051  -1.891   2.514  0.00  0.00    +0.145 HD
ATOM     27  H   UNL     1       1.468  -2.554   2.789  0.00  0.00    +0.145 HD
ENDBRANCH  22  23
ENDBRANCH  15  17
ENDBRANCH   1  15
TORSDOF 4
