REMARK  Name = ZINC63279468
REMARK  6 active torsions:
REMARK  status: ('A' for Active; 'I' for Inactive)
REMARK    1  A    between atoms: C_1  and  C_2
REMARK    2  A    between atoms: C_5  and  C_8
REMARK    3  A    between atoms: C_19  and  C_21
REMARK    4  A    between atoms: N_22  and  C_23
REMARK    5  A    between atoms: C_23  and  C_24
REMARK    6  A    between atoms: C_24  and  C_25
REMARK                            x       y       z     vdW  Elec       q    Type
REMARK                         _______ _______ _______ _____ _____    ______ ____
ROOT
ATOM      1  C   UNL     1       0.059  -4.275  -0.021  0.00  0.00    +0.231 C 
ATOM      2  N   UNL     1      -0.732  -4.767  -1.148  0.00  0.00    -0.228 NA
ATOM      3  C   UNL     1      -1.586  -5.732  -1.053  0.00  0.00    +0.180 C 
ATOM      4  N   UNL     1      -1.861  -6.374   0.132  0.00  0.00    -0.284 N 
ATOM      5  C   UNL     1      -0.942  -6.183   1.266  0.00  0.00    +0.257 C 
ATOM      6  N   UNL     1      -0.514  -4.781   1.236  0.00  0.00    -0.237 N 
ATOM      7  C   UNL     1      -0.633  -3.971   2.296  0.00  0.00    +0.245 C 
ATOM      8  O   UNL     1      -0.201  -2.834   2.234  0.00  0.00    -0.270 OA
ATOM      9  C   UNL     1      -1.252  -4.416   3.485  0.00  0.00    +0.085 C 
ATOM     10  C   UNL     1      -1.725  -5.675   3.558  0.00  0.00    +0.008 C 
ATOM     11  N   UNL     1      -1.608  -6.518   2.511  0.00  0.00    -0.314 N 
ATOM     12  C   UNL     1      -2.401  -6.142   4.822  0.00  0.00    +0.060 C 
ATOM     13  N   UNL     1      -2.251  -6.134  -2.187  0.00  0.00    -0.317 N 
ATOM     14  H   UNL     1      -1.990  -7.405   2.603  0.00  0.00    +0.149 HD
ATOM     15  H   UNL     1      -2.897  -6.856  -2.140  0.00  0.00    +0.149 HD
ATOM     16  H   UNL     1      -2.643  -6.941   0.218  0.00  0.00    +0.152 HD
ENDROOT
BRANCH   1  21
ATOM     17  C   UNL     1      -0.015   1.503   0.014  0.00  0.00    +0.044 C 
ATOM     18  C   UNL     1       0.004  -0.004   0.004  0.00  0.00    -0.050 A 
ATOM     19  C   UNL     1      -1.183  -0.710  -0.042  0.00  0.00    +0.004 A 
ATOM     20  C   UNL     1      -1.165  -2.093  -0.051  0.00  0.00    +0.007 A 
ATOM     21  C   UNL     1       0.040  -2.768  -0.013  0.00  0.00    -0.005 A 
ATOM     22  C   UNL     1       1.227  -2.062   0.032  0.00  0.00    +0.007 A 
ATOM     23  C   UNL     1       1.210  -0.680   0.036  0.00  0.00    +0.004 A 
ENDBRANCH   1  21
BRANCH  13  24
ATOM     24  C   UNL     1      -1.984  -5.472  -3.466  0.00  0.00    +0.108 C 
BRANCH  24  25
ATOM     25  C   UNL     1      -2.849  -6.105  -4.559  0.00  0.00    +0.052 C 
BRANCH  25  26
ATOM     26  C   UNL     1      -2.574  -5.424  -5.874  0.00  0.00    -0.040 C 
ATOM     27  C   UNL     1      -1.711  -5.828  -6.835  0.00  0.00    -0.001 A 
ATOM     28  C   UNL     1      -0.804  -6.977  -6.937  0.00  0.00    +0.010 A 
ATOM     29  C   UNL     1      -0.045  -7.118  -8.047  0.00  0.00    +0.001 A 
ATOM     30  C   UNL     1      -0.103  -6.195  -9.101  0.00  0.00    +0.002 A 
ATOM     31  C   UNL     1      -0.911  -5.114  -9.080  0.00  0.00    +0.026 A 
ATOM     32  C   UNL     1      -1.754  -4.868  -7.961  0.00  0.00    +0.043 A 
ATOM     33  N   UNL     1      -2.610  -3.908  -7.707  0.00  0.00    -0.380 N 
ATOM     34  C   UNL     1      -3.212  -4.154  -6.392  0.00  0.00    +0.144 C 
ATOM     35  H   UNL     1      -2.814  -3.162  -8.292  0.00  0.00    +0.160 HD
ENDBRANCH  25  26
ENDBRANCH  24  25
ENDBRANCH  13  24
TORSDOF 4
