REMARK  Name = ZINC52012036
REMARK  5 active torsions:
REMARK  status: ('A' for Active; 'I' for Inactive)
REMARK    1  A    between atoms: C_3  and  N_11
REMARK    2  A    between atoms: C_4  and  O_10
REMARK    3  A    between atoms: C_6  and  C_7
REMARK    4  A    between atoms: N_14  and  C_15
REMARK    5  A    between atoms: C_21  and  O_23
REMARK                            x       y       z     vdW  Elec       q    Type
REMARK                         _______ _______ _______ _____ _____    ______ ____
ROOT
ATOM      1  N   UNL     1       3.577   2.143  -0.021  0.00  0.00    -0.266 N 
ATOM      2  C   UNL     1       3.554   3.487  -0.116  0.00  0.00    +0.304 C 
ATOM      3  O   UNL     1       2.493   4.080  -0.103  0.00  0.00    -0.252 OA
ATOM      4  N   UNL     1       4.709   4.174  -0.225  0.00  0.00    -0.294 N 
ATOM      5  H   UNL     1       4.424   1.675   0.051  0.00  0.00    +0.156 HD
ATOM      6  H   UNL     1       5.556   3.701  -0.236  0.00  0.00    +0.151 HD
ENDROOT
BRANCH   1   9
ATOM      7  C   UNL     1       0.067   1.257  -0.633  0.00  0.00    +0.017 A 
ATOM      8  C   UNL     1       1.249   1.963  -0.625  0.00  0.00    +0.028 A 
ATOM      9  C   UNL     1       2.381   1.423  -0.026  0.00  0.00    +0.077 A 
ATOM     10  C   UNL     1       2.325   0.161   0.570  0.00  0.00    +0.139 A 
ATOM     11  C   UNL     1       1.144  -0.552   0.565  0.00  0.00    +0.062 A 
ATOM     12  C   UNL     1       0.004  -0.007  -0.038  0.00  0.00    +0.067 A 
BRANCH  12  13
ATOM     13  C   UNL     1      -1.259  -0.764  -0.045  0.00  0.00    +0.387 C 
ATOM     14  O   UNL     1      -2.255  -0.286  -0.572  0.00  0.00    -0.241 OA
ATOM     15  O   UNL     1      -1.313  -1.869   0.475  0.00  0.00    -0.241 OA
ENDBRANCH  12  13
BRANCH  10  16
ATOM     16  O   UNL     1       3.435  -0.365   1.154  0.00  0.00    -0.505 OA
ATOM     17  H   UNL     1       3.528  -0.144   2.091  0.00  0.00    +0.292 HD
ENDBRANCH  10  16
ENDBRANCH   1   9
BRANCH   4  18
ATOM     18  C   UNL     1       4.684   5.635  -0.328  0.00  0.00    +0.103 C 
ATOM     19  C   UNL     1       4.476   6.040  -1.789  0.00  0.00    +0.025 C 
ATOM     20  C   UNL     1       5.621   5.488  -2.640  0.00  0.00    +0.002 C 
ATOM     21  C   UNL     1       6.950   6.056  -2.138  0.00  0.00    +0.003 C 
ATOM     22  C   UNL     1       7.158   5.652  -0.677  0.00  0.00    +0.033 C 
ATOM     23  C   UNL     1       6.013   6.204   0.174  0.00  0.00    +0.135 C 
BRANCH  23  24
ATOM     24  O   UNL     1       6.208   5.826   1.538  0.00  0.00    -0.390 OA
ATOM     25  H   UNL     1       7.033   6.153   1.923  0.00  0.00    +0.210 HD
ENDBRANCH  23  24
ENDBRANCH   4  18
TORSDOF 5
