REMARK  Name = ZINC08890307
REMARK  8 active torsions:
REMARK  status: ('A' for Active; 'I' for Inactive)
REMARK    1  A    between atoms: C_1  and  C_2
REMARK    2  A    between atoms: C_8  and  N_10
REMARK    3  A    between atoms: C_14  and  C_16
REMARK    4  A    between atoms: C_16  and  O_17
REMARK    5  A    between atoms: O_17  and  C_18
REMARK    6  A    between atoms: C_18  and  C_20
REMARK    7  A    between atoms: C_20  and  C_21
REMARK    8  A    between atoms: C_21  and  C_22
REMARK                            x       y       z     vdW  Elec       q    Type
REMARK                         _______ _______ _______ _____ _____    ______ ____
ROOT
ATOM      1  C   UNL     1       1.121  -7.954  -5.165  0.00  0.00    +0.308 C 
ATOM      2  O   UNL     1       1.056  -8.696  -4.214  0.00  0.00    -0.251 OA
ENDROOT
BRANCH   1   3
ATOM      3  O   UNL     1       1.089  -6.624  -4.983  0.00  0.00    -0.455 OA
BRANCH   3   4
ATOM      4  C   UNL     1       0.976  -6.149  -3.615  0.00  0.00    +0.328 C 
BRANCH   4   9
ATOM      5  N   UNL     1       0.738  -1.962  -1.265  0.00  0.00    -0.296 N 
ATOM      6  C   UNL     1       0.838  -2.628  -2.432  0.00  0.00    +0.306 C 
ATOM      7  O   UNL     1       0.911  -2.014  -3.478  0.00  0.00    -0.252 OA
ATOM      8  N   UNL     1       0.856  -3.976  -2.440  0.00  0.00    -0.237 N 
ATOM      9  C   UNL     1       0.956  -4.642  -3.607  0.00  0.00    +0.258 C 
ATOM     10  O   UNL     1       1.029  -4.029  -4.650  0.00  0.00    -0.272 OA
ATOM     11  H   UNL     1       0.679  -2.453  -0.430  0.00  0.00    +0.151 HD
ATOM     12  H   UNL     1       0.797  -4.467  -1.605  0.00  0.00    +0.159 HD
BRANCH   5  19
ATOM     13  C   UNL     1      -1.433  -0.534   0.013  0.00  0.00    +0.009 C 
ATOM     14  C   UNL     1       0.002  -0.004   0.002  0.00  0.00    +0.006 C 
ATOM     15  C   UNL     1      -0.019   1.526   0.010  0.00  0.00    +0.005 C 
ATOM     16  C   UNL     1       1.417   2.055  -0.000  0.00  0.00    +0.000 C 
ATOM     17  C   UNL     1       2.133   1.562  -1.259  0.00  0.00    +0.002 C 
ATOM     18  C   UNL     1       2.154   0.032  -1.268  0.00  0.00    +0.022 C 
ATOM     19  C   UNL     1       0.718  -0.497  -1.257  0.00  0.00    +0.077 C 
ENDBRANCH   5  19
ENDBRANCH   4   9
ENDBRANCH   3   4
ENDBRANCH   1   3
BRANCH   1  20
ATOM     20  C   UNL     1       1.237  -8.520  -6.557  0.00  0.00    +0.128 C 
BRANCH  20  21
ATOM     21  C   UNL     1       1.251 -10.049  -6.486  0.00  0.00    +0.085 C 
BRANCH  21  22
ATOM     22  C   UNL     1       1.367 -10.616  -7.877  0.00  0.00    +0.111 A 
ATOM     23  N   UNL     1       1.404 -11.962  -8.047  0.00  0.00    -0.310 N 
ATOM     24  H   UNL     1       1.355 -12.541  -7.271  0.00  0.00    +0.170 HD
ATOM     25  C   UNL     1       1.502 -12.510  -9.273  0.00  0.00    +0.260 A 
ATOM     26  O   UNL     1       1.528 -13.721  -9.410  0.00  0.00    -0.267 OA
ATOM     27  C   UNL     1       1.578 -11.646 -10.414  0.00  0.00    +0.075 A 
ATOM     28  C   UNL     1       1.692 -12.013 -11.825  0.00  0.00    -0.023 A 
ATOM     29  C   UNL     1       1.747 -11.002 -12.718  0.00  0.00    -0.004 A 
ATOM     30  S   UNL     1       1.653  -9.524 -11.744  0.00  0.00    -0.073 S 
ATOM     31  C   UNL     1       1.539 -10.270 -10.138  0.00  0.00    +0.116 A 
ATOM     32  N   UNL     1       1.436  -9.803  -8.897  0.00  0.00    -0.227 NA
ATOM     33  C   UNL     1       1.863 -11.113 -14.207  0.00  0.00    +0.043 C 
ATOM     34  C   UNL     1       2.284 -12.548 -14.556  0.00  0.00    +0.005 C 
ATOM     35  C   UNL     1       1.397 -13.523 -13.776  0.00  0.00    +0.005 C 
ATOM     36  C   UNL     1       1.746 -13.466 -12.288  0.00  0.00    +0.037 C 
ENDBRANCH  21  22
ENDBRANCH  20  21
ENDBRANCH   1  20
TORSDOF 7
