REMARK  Name = ZINC60411434
REMARK  4 active torsions:
REMARK  status: ('A' for Active; 'I' for Inactive)
REMARK    1  A    between atoms: C_9  and  C_11
REMARK    2  A    between atoms: N_13  and  N_14
REMARK    3  A    between atoms: N_17  and  C_18
REMARK    4  A    between atoms: C_18  and  C_19
REMARK                            x       y       z     vdW  Elec       q    Type
REMARK                         _______ _______ _______ _____ _____    ______ ____
ROOT
ATOM      1  C   UNL     1       5.974   0.910  -0.051  0.00  0.00    +0.295 C 
ATOM      2  O   UNL     1       6.652  -0.100  -0.062  0.00  0.00    -0.265 OA
ATOM      3  N   UNL     1       6.567   2.120  -0.050  0.00  0.00    -0.227 N 
ATOM      4  H   UNL     1       6.027   2.925  -0.041  0.00  0.00    +0.173 HD
ENDROOT
BRANCH   1  13
ATOM      5  C   UNL     1      -0.017   1.385   0.010  0.00  0.00    +0.019 A 
ATOM      6  C   UNL     1       1.158   2.105   0.002  0.00  0.00    +0.048 A 
ATOM      7  C   UNL     1       2.378   1.439  -0.013  0.00  0.00    +0.136 A 
ATOM      8  C   UNL     1       2.392   0.032  -0.021  0.00  0.00    +0.022 A 
ATOM      9  C   UNL     1       1.190  -0.680  -0.013  0.00  0.00    +0.027 A 
ATOM     10  C   UNL     1       0.002  -0.004   0.002  0.00  0.00    +0.019 A 
ATOM     11 BR   UNL     1      -1.626  -0.966   0.012  0.00  0.00    -0.050 Br
ATOM     12  C   UNL     1       3.803  -0.351  -0.036  0.00  0.00    +0.063 A 
ATOM     13  C   UNL     1       4.508   0.810  -0.037  0.00  0.00    +0.192 A 
ATOM     14  O   UNL     1       3.659   1.859  -0.023  0.00  0.00    -0.450 OA
ENDBRANCH   1  13
BRANCH   3  15
ATOM     15  N   UNL     1       7.965   2.215  -0.063  0.00  0.00    -0.218 N 
ATOM     16  C   UNL     1       8.559   3.425  -0.062  0.00  0.00    +0.316 C 
ATOM     17  O   UNL     1       9.772   3.507  -0.074  0.00  0.00    -0.251 OA
ATOM     18  N   UNL     1       7.807   4.544  -0.050  0.00  0.00    -0.290 N 
ATOM     19  H   UNL     1       8.506   1.409  -0.072  0.00  0.00    +0.174 HD
ATOM     20  H   UNL     1       6.840   4.478  -0.041  0.00  0.00    +0.151 HD
BRANCH  18  21
ATOM     21  C   UNL     1       8.452   5.859  -0.049  0.00  0.00    +0.219 C 
BRANCH  21  22
ATOM     22  C   UNL     1       7.382   6.952  -0.033  0.00  0.00    +0.405 C 
ATOM     23  F   UNL     1       6.595   6.818   1.116  0.00  0.00    -0.169 F 
ATOM     24  F   UNL     1       7.998   8.208  -0.033  0.00  0.00    -0.169 F 
ATOM     25  F   UNL     1       6.573   6.830  -1.168  0.00  0.00    -0.169 F 
ENDBRANCH  21  22
ENDBRANCH  18  21
ENDBRANCH   3  15
TORSDOF 4
