REMARK  Name = ZINC09224113
REMARK  5 active torsions:
REMARK  status: ('A' for Active; 'I' for Inactive)
REMARK    1  A    between atoms: C_6  and  C_7
REMARK    2  A    between atoms: C_10  and  S_13
REMARK    3  A    between atoms: S_13  and  C_14
REMARK    4  A    between atoms: C_14  and  C_15
REMARK    5  A    between atoms: N_17  and  C_18
REMARK                            x       y       z     vdW  Elec       q    Type
REMARK                         _______ _______ _______ _____ _____    ______ ____
ROOT
ATOM      1  C   UNL     1      -1.150  -0.694   0.111  0.00  0.00    +0.227 C 
ATOM      2  O   UNL     1      -2.211  -0.106   0.124  0.00  0.00    -0.275 OA
ATOM      3  N   UNL     1       0.002  -0.004   0.002  0.00  0.00    -0.285 N 
ATOM      4  H   UNL     1       0.844  -0.477  -0.086  0.00  0.00    +0.155 HD
ENDROOT
BRANCH   3   5
ATOM      5  C   UNL     1      -0.016   1.397   0.015  0.00  0.00    +0.035 A 
ATOM      6  C   UNL     1       0.914   2.110  -0.732  0.00  0.00    +0.025 A 
ATOM      7  C   UNL     1       0.897   3.490  -0.728  0.00  0.00    +0.029 A 
ATOM      8  C   UNL     1      -0.043   4.168   0.034  0.00  0.00    +0.067 A 
ATOM      9  C   UNL     1      -0.974   3.455   0.791  0.00  0.00    +0.069 A 
ATOM     10  C   UNL     1      -0.959   2.069   0.779  0.00  0.00    +0.051 A 
ATOM     11  N   UNL     1      -1.773   4.395   1.437  0.00  0.00    -0.306 N 
ATOM     12  H   UNL     1      -2.510   4.198   2.036  0.00  0.00    +0.170 HD
ATOM     13  C   UNL     1      -1.348   5.625   1.090  0.00  0.00    +0.325 A 
ATOM     14  O   UNL     1      -1.832   6.670   1.481  0.00  0.00    -0.247 OA
ATOM     15  N   UNL     1      -0.305   5.522   0.245  0.00  0.00    -0.306 N 
ATOM     16  H   UNL     1       0.181   6.263  -0.150  0.00  0.00    +0.170 HD
ENDBRANCH   3   5
BRANCH   1  17
ATOM     17  C   UNL     1      -1.121  -2.197   0.216  0.00  0.00    +0.173 C 
BRANCH  17  18
ATOM     18  S   UNL     1      -2.814  -2.825   0.349  0.00  0.00    -0.079 S 
BRANCH  18  22
ATOM     19  C   UNL     1      -2.754  -6.738   0.623  0.00  0.00    +0.067 A 
ATOM     20  C   UNL     1      -1.430  -6.444   0.532  0.00  0.00    +0.139 A 
ATOM     21  N   UNL     1      -1.303  -5.115   0.427  0.00  0.00    -0.230 NA
ATOM     22  C   UNL     1      -2.491  -4.554   0.455  0.00  0.00    +0.167 A 
ATOM     23  N   UNL     1      -3.432  -5.532   0.573  0.00  0.00    -0.333 N 
ATOM     24  H   UNL     1      -4.422  -5.403   0.616  0.00  0.00    +0.168 HD
BRANCH  19  30
ATOM     25  C   UNL     1      -4.739  -8.227   0.839  0.00  0.00    +0.011 A 
ATOM     26  C   UNL     1      -5.292  -9.486   0.952  0.00  0.00    +0.016 A 
ATOM     27  C   UNL     1      -4.476 -10.603   0.988  0.00  0.00    +0.018 A 
ATOM     28  C   UNL     1      -3.100 -10.466   0.905  0.00  0.00    +0.016 A 
ATOM     29  C   UNL     1      -2.535  -9.214   0.786  0.00  0.00    +0.011 A 
ATOM     30  C   UNL     1      -3.353  -8.083   0.750  0.00  0.00    -0.000 A 
ATOM     31 BR   UNL     1      -5.242 -12.324   1.150  0.00  0.00    -0.050 Br
ENDBRANCH  19  30
ENDBRANCH  18  22
ENDBRANCH  17  18
ENDBRANCH   1  17
TORSDOF 5
