REMARK  Name = ZINC12503885
REMARK  5 active torsions:
REMARK  status: ('A' for Active; 'I' for Inactive)
REMARK    1  A    between atoms: C_2  and  O_15
REMARK    2  A    between atoms: C_4  and  O_14
REMARK    3  A    between atoms: N_7  and  O_8
REMARK    4  A    between atoms: C_10  and  C_11
REMARK    5  A    between atoms: C_10  and  O_13
REMARK                            x       y       z     vdW  Elec       q    Type
REMARK                         _______ _______ _______ _____ _____    ______ ____
ROOT
ATOM      1  C   UNL     1       1.643   5.485   1.000  0.00  0.00    +0.081 C 
ATOM      2  C   UNL     1       2.812   4.507   1.135  0.00  0.00    +0.152 C 
ATOM      3  C   UNL     1       2.755   3.485   0.001  0.00  0.00    +0.190 C 
ATOM      4  C   UNL     1       1.391   2.830   0.004  0.00  0.00    +0.091 C 
ATOM      5  N   UNL     1       1.275   1.556  -0.002  0.00  0.00    -0.094 NA
ATOM      6  C   UNL     1       0.168   3.721   0.020  0.00  0.00    +0.103 C 
ATOM      7  C   UNL     1       0.320   4.735   1.159  0.00  0.00    +0.174 C 
ENDROOT
BRANCH   7   8
ATOM      8  C   UNL     1      -0.823   5.717   1.113  0.00  0.00    +0.387 C 
ATOM      9  O   UNL     1      -0.689   6.773   0.542  0.00  0.00    -0.243 OA
ATOM     10  O   UNL     1      -1.989   5.418   1.707  0.00  0.00    -0.243 OA
ENDBRANCH   7   8
BRANCH   5  11
ATOM     11  O   UNL     1      -0.011   0.963   0.007  0.00  0.00    -0.409 OA
ATOM     12  H   UNL     1       0.002  -0.004   0.002  0.00  0.00    +0.328 HD
ENDBRANCH   5  11
BRANCH   7  13
ATOM     13  O   UNL     1       0.308   4.049   2.413  0.00  0.00    -0.377 OA
ATOM     14  H   UNL     1      -0.503   3.550   2.581  0.00  0.00    +0.211 HD
ENDBRANCH   7  13
BRANCH   3  15
ATOM     15  O   UNL     1       2.967   4.146  -1.248  0.00  0.00    -0.383 OA
ATOM     16  H   UNL     1       2.932   3.559  -2.015  0.00  0.00    +0.210 HD
ENDBRANCH   3  15
BRANCH   2  17
ATOM     17  O   UNL     1       4.045   5.227   1.069  0.00  0.00    -0.389 OA
ATOM     18  H   UNL     1       4.831   4.669   1.147  0.00  0.00    +0.210 HD
ENDBRANCH   2  17
TORSDOF 5
