REMARK  Name = ZINC25147167
REMARK  5 active torsions:
REMARK  status: ('A' for Active; 'I' for Inactive)
REMARK    1  A    between atoms: C_4  and  N_7
REMARK    2  A    between atoms: N_10  and  C_11
REMARK    3  A    between atoms: C_15  and  N_17
REMARK    4  A    between atoms: N_17  and  S_18
REMARK    5  A    between atoms: S_18  and  C_21
REMARK                            x       y       z     vdW  Elec       q    Type
REMARK                         _______ _______ _______ _____ _____    ______ ____
ROOT
ATOM      1  C   UNL     1      -0.051   3.847   0.025  0.00  0.00    +0.037 A 
ATOM      2  C   UNL     1       1.155   3.158  -0.001  0.00  0.00    +0.023 A 
ATOM      3  C   UNL     1       1.164   1.777  -0.001  0.00  0.00    +0.004 A 
ATOM      4  C   UNL     1      -0.026   1.075   0.025  0.00  0.00    +0.024 A 
ATOM      5  C   UNL     1      -1.236   1.758   0.045  0.00  0.00    +0.050 A 
ATOM      6  C   UNL     1      -1.248   3.146   0.051  0.00  0.00    +0.047 A 
ENDROOT
BRANCH   1  10
ATOM      7  N   UNL     1      -0.989   7.260  -0.703  0.00  0.00    -0.269 N 
ATOM      8  C   UNL     1      -1.032   5.915  -0.625  0.00  0.00    +0.308 C 
ATOM      9  O   UNL     1      -1.949   5.305  -1.141  0.00  0.00    -0.252 OA
ATOM     10  N   UNL     1      -0.059   5.246   0.026  0.00  0.00    -0.269 N 
ATOM     11  H   UNL     1      -0.122   7.806  -0.303  0.00  0.00    +0.156 HD
ATOM     12  H   UNL     1       0.729   5.800   0.557  0.00  0.00    +0.156 HD
BRANCH   7  16
ATOM     13  C   UNL     1      -4.138   9.346  -2.459  0.00  0.00    +0.000 A 
ATOM     14  C   UNL     1      -3.463   9.893  -1.383  0.00  0.00    +0.002 A 
ATOM     15  C   UNL     1      -2.419   9.204  -0.799  0.00  0.00    +0.023 A 
ATOM     16  C   UNL     1      -2.047   7.960  -1.293  0.00  0.00    +0.035 A 
ATOM     17  C   UNL     1      -2.723   7.417  -2.377  0.00  0.00    +0.023 A 
ATOM     18  C   UNL     1      -3.770   8.108  -2.954  0.00  0.00    +0.002 A 
ENDBRANCH   7  16
ENDBRANCH   1  10
BRANCH   5  19
ATOM     19  N   UNL     1      -2.439   1.048   0.066  0.00  0.00    -0.216 N 
ATOM     20  H   UNL     1      -3.266   1.349  -0.594  0.00  0.00    +0.174 HD
BRANCH  19  21
ATOM     21  S   UNL     1      -2.620  -0.245   1.084  0.00  0.00    +0.072 S 
ATOM     22  O   UNL     1      -3.942  -0.731   0.893  0.00  0.00    -0.150 OA
ATOM     23  O   UNL     1      -1.474  -1.066   0.905  0.00  0.00    -0.150 OA
BRANCH  21  24
ATOM     24  C   UNL     1      -2.544   0.373   2.732  0.00  0.00    +0.109 A 
ATOM     25  C   UNL     1      -3.702   0.777   3.371  0.00  0.00    +0.030 A 
ATOM     26  C   UNL     1      -3.646   1.263   4.663  0.00  0.00    +0.025 A 
ATOM     27  C   UNL     1      -2.425   1.345   5.319  0.00  0.00    +0.037 A 
ATOM     28  C   UNL     1      -1.265   0.939   4.674  0.00  0.00    -0.024 A 
ATOM     29  C   UNL     1      -1.327   0.449   3.385  0.00  0.00    +0.034 A 
ATOM     30  C   UNL     1       0.059   1.029   5.387  0.00  0.00    +0.046 C 
ATOM     31  C   UNL     1       0.062   2.248   6.309  0.00  0.00    +0.101 C 
ATOM     32  C   UNL     1      -1.194   2.267   7.138  0.00  0.00    +0.218 C 
ATOM     33  O   UNL     1      -1.153   2.676   8.279  0.00  0.00    -0.275 OA
ATOM     34  N   UNL     1      -2.362   1.836   6.627  0.00  0.00    -0.285 N 
ATOM     35  H   UNL     1      -3.271   1.870   7.246  0.00  0.00    +0.155 HD
ENDBRANCH  21  24
ENDBRANCH  19  21
ENDBRANCH   5  19
TORSDOF 5
