REMARK  Name = ZINC20115257
REMARK  10 active torsions:
REMARK  status: ('A' for Active; 'I' for Inactive)
REMARK    1  A    between atoms: C_1  and  C_2
REMARK    2  A    between atoms: C_2  and  C_19
REMARK    3  A    between atoms: N_3  and  N_4
REMARK    4  A    between atoms: C_5  and  C_7
REMARK    5  A    between atoms: C_7  and  C_8
REMARK    6  A    between atoms: C_8  and  C_9
REMARK    7  A    between atoms: C_9  and  O_10
REMARK    8  A    between atoms: O_10  and  C_11
REMARK    9  A    between atoms: C_21  and  O_26
REMARK   10  A    between atoms: C_24  and  O_25
REMARK                            x       y       z     vdW  Elec       q    Type
REMARK                         _______ _______ _______ _____ _____    ______ ____
ROOT
ATOM      1  N   UNL     1      -0.223  -2.030   1.139  0.00  0.00    -0.207 N 
ATOM      2  C   UNL     1      -0.383  -2.687   2.305  0.00  0.00    +0.232 C 
ATOM      3  O   UNL     1      -0.379  -2.074   3.352  0.00  0.00    -0.274 OA
ATOM      4  H   UNL     1      -0.227  -2.520   0.302  0.00  0.00    +0.177 HD
ENDROOT
BRANCH   1   7
ATOM      5  C   UNL     1       0.090   1.510   0.009  0.00  0.00    +0.068 C 
ATOM      6  C   UNL     1      -0.005   0.006   0.011  0.00  0.00    +0.067 C 
ATOM      7  N   UNL     1      -0.052  -0.639   1.136  0.00  0.00    -0.184 NA
BRANCH   6   8
ATOM      8  C   UNL     1      -0.045  -0.731  -1.264  0.00  0.00    +0.042 A 
ATOM      9  C   UNL     1      -1.191  -1.442  -1.628  0.00  0.00    +0.058 A 
ATOM     10  C   UNL     1      -1.222  -2.132  -2.827  0.00  0.00    +0.118 A 
ATOM     11  C   UNL     1      -0.116  -2.119  -3.667  0.00  0.00    +0.049 A 
ATOM     12  C   UNL     1       1.022  -1.419  -3.314  0.00  0.00    +0.049 A 
ATOM     13  C   UNL     1       1.065  -0.719  -2.120  0.00  0.00    +0.126 A 
BRANCH  13  14
ATOM     14  O   UNL     1       2.182  -0.026  -1.776  0.00  0.00    -0.506 OA
ATOM     15  H   UNL     1       2.791  -0.518  -1.209  0.00  0.00    +0.292 HD
ENDBRANCH  13  14
BRANCH  10  16
ATOM     16  O   UNL     1      -2.337  -2.824  -3.183  0.00  0.00    -0.507 OA
ATOM     17  H   UNL     1      -2.976  -2.306  -3.691  0.00  0.00    +0.292 HD
ENDBRANCH  10  16
ENDBRANCH   6   8
ENDBRANCH   1   7
BRANCH   2  18
ATOM     18  C   UNL     1      -0.567  -4.182   2.309  0.00  0.00    +0.101 C 
BRANCH  18  19
ATOM     19  C   UNL     1      -0.726  -4.673   3.749  0.00  0.00    +0.050 C 
BRANCH  19  20
ATOM     20  C   UNL     1      -0.913  -6.192   3.752  0.00  0.00    +0.229 C 
BRANCH  20  21
ATOM     21  O   UNL     1      -1.060  -6.651   5.098  0.00  0.00    -0.490 OA
BRANCH  21  22
ATOM     22  C   UNL     1      -1.237  -7.986   5.278  0.00  0.00    +0.139 A 
ATOM     23  C   UNL     1      -1.262  -8.838   4.184  0.00  0.00    +0.048 A 
ATOM     24  C   UNL     1      -1.441 -10.195   4.369  0.00  0.00    +0.023 A 
ATOM     25  C   UNL     1      -1.597 -10.706   5.646  0.00  0.00    +0.043 A 
ATOM     26  C   UNL     1      -1.573  -9.859   6.739  0.00  0.00    +0.043 A 
ATOM     27  C   UNL     1      -1.387  -8.501   6.559  0.00  0.00    +0.084 A 
ATOM     28 CL   UNL     1      -1.350  -7.439   7.931  0.00  0.00    -0.080 Cl
ATOM     29 CL   UNL     1      -1.823 -12.412   5.876  0.00  0.00    -0.083 Cl
ENDBRANCH  21  22
ENDBRANCH  20  21
ENDBRANCH  19  20
ENDBRANCH  18  19
ENDBRANCH   2  18
TORSDOF 9
