REMARK  Name = ZINC12750670
REMARK  6 active torsions:
REMARK  status: ('A' for Active; 'I' for Inactive)
REMARK    1  A    between atoms: C_1  and  C_2
REMARK    2  A    between atoms: C_15  and  S_17
REMARK    3  A    between atoms: S_17  and  C_18
REMARK    4  A    between atoms: C_18  and  C_19
REMARK    5  A    between atoms: N_21  and  C_22
REMARK    6  A    between atoms: C_23  and  C_30
REMARK                            x       y       z     vdW  Elec       q    Type
REMARK                         _______ _______ _______ _____ _____    ______ ____
ROOT
ATOM      1  C   UNL     1       0.002  -0.004   0.002  0.00  0.00    +0.173 C 
ENDROOT
BRANCH   1   2
ATOM      2  C   UNL     1      -0.018   1.503   0.010  0.00  0.00    +0.228 C 
ATOM      3  O   UNL     1      -1.077   2.095   0.018  0.00  0.00    -0.275 OA
ATOM      4  N   UNL     1       1.139   2.192   0.003  0.00  0.00    -0.279 N 
ATOM      5  H   UNL     1       1.986   1.719  -0.008  0.00  0.00    +0.155 HD
BRANCH   4   6
ATOM      6  C   UNL     1       1.121   3.579   0.011  0.00  0.00    +0.084 A 
ATOM      7  C   UNL     1       2.193   4.454   0.011  0.00  0.00    +0.068 A 
ATOM      8  C   UNL     1       1.899   5.886   0.016  0.00  0.00    -0.023 A 
ATOM      9  C   UNL     1       0.591   6.200   0.030  0.00  0.00    -0.004 A 
ATOM     10  S   UNL     1      -0.250   4.636   0.030  0.00  0.00    -0.077 S 
ATOM     11  C   UNL     1       0.368   7.689   0.037  0.00  0.00    +0.043 C 
ATOM     12  C   UNL     1       1.720   8.287  -0.411  0.00  0.00    +0.010 C 
ATOM     13  C   UNL     1       2.709   7.184   0.017  0.00  0.00    +0.037 C 
BRANCH   7  14
ATOM     14  C   UNL     1       3.575   3.962   0.002  0.00  0.00    +0.244 C 
ATOM     15  O   UNL     1       4.144   3.764  -1.056  0.00  0.00    -0.270 OA
ATOM     16  N   UNL     1       4.215   3.729   1.165  0.00  0.00    -0.325 N 
ATOM     17  H   UNL     1       3.761   3.887   2.008  0.00  0.00    +0.145 HD
ATOM     18  H   UNL     1       5.128   3.404   1.159  0.00  0.00    +0.145 HD
ENDBRANCH   7  14
ENDBRANCH   4   6
ENDBRANCH   1   2
BRANCH   1  19
ATOM     19  S   UNL     1      -1.696  -0.631   0.015  0.00  0.00    -0.078 S 
BRANCH  19  33
ATOM     20  C   UNL     1       1.172 -10.472  -0.160  0.00  0.00    +0.008 C 
ATOM     21  C   UNL     1       0.573  -9.091  -0.436  0.00  0.00    -0.009 C 
ATOM     22  C   UNL     1      -0.686  -8.898   0.415  0.00  0.00    +0.008 C 
ATOM     23  C   UNL     1      -1.425  -7.635  -0.029  0.00  0.00    +0.037 C 
ATOM     24  C   UNL     1      -0.445  -6.465  -0.031  0.00  0.00    -0.023 A 
ATOM     25  C   UNL     1       0.886  -6.682  -0.046  0.00  0.00    -0.004 A 
ATOM     26  S   UNL     1       1.615  -5.066  -0.042  0.00  0.00    -0.073 S 
ATOM     27  C   UNL     1       0.126  -4.101  -0.022  0.00  0.00    +0.117 A 
ATOM     28  C   UNL     1      -0.891  -5.071  -0.018  0.00  0.00    +0.075 A 
ATOM     29  C   UNL     1      -2.231  -4.569  -0.001  0.00  0.00    +0.261 A 
ATOM     30  O   UNL     1      -3.178  -5.336   0.004  0.00  0.00    -0.267 OA
ATOM     31  N   UNL     1      -2.431  -3.238   0.013  0.00  0.00    -0.301 N 
ATOM     32  H   UNL     1      -3.337  -2.893   0.028  0.00  0.00    +0.171 HD
ATOM     33  C   UNL     1      -1.383  -2.364   0.003  0.00  0.00    +0.170 A 
ATOM     34  N   UNL     1      -0.139  -2.800  -0.012  0.00  0.00    -0.216 NA
ATOM     35  C   UNL     1       1.591  -8.004  -0.062  0.00  0.00    +0.046 C 
ENDBRANCH  19  33
ENDBRANCH   1  19
TORSDOF 5
