REMARK  Name = ZINC40566479
REMARK  5 active torsions:
REMARK  status: ('A' for Active; 'I' for Inactive)
REMARK    1  A    between atoms: C_1  and  N_2
REMARK    2  A    between atoms: C_3  and  C_5
REMARK    3  A    between atoms: C_5  and  N_6
REMARK    4  A    between atoms: C_11  and  O_19
REMARK    5  A    between atoms: C_14  and  C_16
REMARK                            x       y       z     vdW  Elec       q    Type
REMARK                         _______ _______ _______ _____ _____    ______ ____
ROOT
ATOM      1  N   UNL     1       1.291  -2.644  -2.232  0.00  0.00    -0.291 N 
ATOM      2  C   UNL     1       1.430  -3.966  -2.453  0.00  0.00    +0.303 C 
ATOM      3  O   UNL     1       0.987  -4.766  -1.653  0.00  0.00    -0.253 OA
ATOM      4  N   UNL     1       2.061  -4.401  -3.562  0.00  0.00    -0.269 N 
ATOM      5  C   UNL     1       2.650  -3.544  -4.607  0.00  0.00    +0.141 C 
ATOM      6  C   UNL     1       3.737  -4.423  -5.275  0.00  0.00    +0.134 C 
ATOM      7  C   UNL     1       3.062  -5.819  -5.258  0.00  0.00    +0.067 C 
ATOM      8  C   UNL     1       2.282  -5.808  -3.927  0.00  0.00    +0.193 C 
ATOM      9  H   UNL     1       1.645  -2.005  -2.870  0.00  0.00    +0.151 HD
ENDROOT
BRANCH   8  10
ATOM     10  C   UNL     1       0.957  -6.504  -4.106  0.00  0.00    +0.376 C 
ATOM     11  O   UNL     1      -0.077  -5.859  -4.100  0.00  0.00    -0.244 OA
ATOM     12  O   UNL     1       0.920  -7.714  -4.257  0.00  0.00    -0.244 OA
ENDBRANCH   8  10
BRANCH   6  13
ATOM     13  O   UNL     1       4.939  -4.424  -4.503  0.00  0.00    -0.390 OA
ATOM     14  H   UNL     1       5.345  -3.552  -4.404  0.00  0.00    +0.210 HD
ENDBRANCH   6  13
BRANCH   1  15
ATOM     15  C   UNL     1       0.606  -2.171  -1.026  0.00  0.00    +0.201 C 
BRANCH  15  18
ATOM     16  C   UNL     1      -0.018   1.461   0.010  0.00  0.00    +0.128 C 
ATOM     17  N   UNL     1       0.002  -0.004   0.002  0.00  0.00    -0.317 N 
ATOM     18  C   UNL     1       0.585  -0.664  -1.018  0.00  0.00    +0.230 C 
ATOM     19  O   UNL     1       1.093  -0.046  -1.929  0.00  0.00    -0.274 OA
ATOM     20  H   UNL     1      -0.404  -0.499   0.731  0.00  0.00    +0.148 HD
ENDBRANCH  15  18
ENDBRANCH   1  15
TORSDOF 4
