REMARK  Name = ZINC59489979
REMARK  10 active torsions:
REMARK  status: ('A' for Active; 'I' for Inactive)
REMARK    1  A    between atoms: C_1  and  C_2
REMARK    2  A    between atoms: C_5  and  S_31
REMARK    3  A    between atoms: N_6  and  N_7
REMARK    4  A    between atoms: C_8  and  C_9
REMARK    5  A    between atoms: C_12  and  N_18
REMARK    6  A    between atoms: C_13  and  N_15
REMARK    7  A    between atoms: N_21  and  C_24
REMARK    8  A    between atoms: C_24  and  C_25
REMARK    9  A    between atoms: S_31  and  C_32
REMARK   10  A    between atoms: C_32  and  C_33
REMARK                            x       y       z     vdW  Elec       q    Type
REMARK                         _______ _______ _______ _____ _____    ______ ____
ROOT
ATOM      1  C   UNL     1      -1.083   0.143   4.495  0.00  0.00    -0.003 A 
ATOM      2  C   UNL     1       0.130   0.361   5.156  0.00  0.00    +0.011 A 
ATOM      3  C   UNL     1       0.132   0.744   6.478  0.00  0.00    +0.026 A 
ATOM      4  C   UNL     1      -1.070   0.914   7.157  0.00  0.00    +0.060 A 
ATOM      5  C   UNL     1      -2.279   0.699   6.503  0.00  0.00    +0.148 A 
ATOM      6  C   UNL     1      -2.289   0.321   5.179  0.00  0.00    +0.044 A 
ENDROOT
BRANCH   4   7
ATOM      7  N   UNL     1      -1.063   1.302   8.496  0.00  0.00    -0.326 N 
ATOM      8  C   UNL     1      -1.027   0.300   9.572  0.00  0.00    +0.120 C 
ATOM      9  C   UNL     1       0.108   0.660  10.536  0.00  0.00    +0.103 C 
ATOM     10  N   UNL     1      -0.059   2.049  10.986  0.00  0.00    -0.295 NA
ATOM     11  C   UNL     1       0.046   2.989   9.862  0.00  0.00    +0.103 C 
ATOM     12  C   UNL     1      -1.086   2.724   8.871  0.00  0.00    +0.120 C 
BRANCH  10  13
ATOM     13  C   UNL     1       0.908   2.380  12.041  0.00  0.00    +0.119 C 
BRANCH  13  14
ATOM     14  C   UNL     1       0.554   3.714  12.646  0.00  0.00    -0.033 A 
ATOM     15  C   UNL     1       1.080   4.876  12.113  0.00  0.00    +0.005 A 
ATOM     16  C   UNL     1       0.755   6.099  12.669  0.00  0.00    +0.000 A 
ATOM     17  C   UNL     1      -0.095   6.161  13.756  0.00  0.00    +0.000 A 
ATOM     18  C   UNL     1      -0.622   4.999  14.289  0.00  0.00    +0.000 A 
ATOM     19  C   UNL     1      -0.300   3.776  13.731  0.00  0.00    +0.005 A 
ENDBRANCH  13  14
ENDBRANCH  10  13
ENDBRANCH   4   7
BRANCH   5  20
ATOM     20  N   UNL     1      -3.555   0.881   7.231  0.00  0.00    +0.058 N 
ATOM     21  O   UNL     1      -4.606   0.694   6.663  0.00  0.00    -0.126 OA
ATOM     22  O   UNL     1      -3.547   1.217   8.392  0.00  0.00    -0.126 OA
ENDBRANCH   5  20
BRANCH   1  24
ATOM     23  N   UNL     1       0.030  -0.432   2.446  0.00  0.00    -0.171 NA
ATOM     24  C   UNL     1      -1.091  -0.267   3.080  0.00  0.00    +0.141 C 
BRANCH  23  30
ATOM     25  C   UNL     1      -0.018   1.503   0.010  0.00  0.00    +0.090 C 
ATOM     26  C   UNL     1       0.002  -0.004   0.002  0.00  0.00    +0.152 A 
ATOM     27  N   UNL     1       0.008  -0.771  -1.052  0.00  0.00    -0.132 NA
ATOM     28  N   UNL     1       0.027  -2.007  -0.701  0.00  0.00    -0.121 NA
ATOM     29  C   UNL     1       0.034  -2.099   0.610  0.00  0.00    +0.212 A 
ATOM     30  N   UNL     1       0.024  -0.822   1.101  0.00  0.00    -0.192 N 
BRANCH  29  31
ATOM     31  S   UNL     1       0.059  -3.586   1.556  0.00  0.00    -0.080 S 
BRANCH  31  32
ATOM     32  C   UNL     1       0.072  -4.901   0.306  0.00  0.00    +0.112 C 
BRANCH  32  33
ATOM     33  C   UNL     1       0.093  -6.243   0.991  0.00  0.00    -0.037 A 
ATOM     34  C   UNL     1       1.300  -6.840   1.304  0.00  0.00    +0.004 A 
ATOM     35  C   UNL     1       1.319  -8.072   1.932  0.00  0.00    +0.000 A 
ATOM     36  C   UNL     1       0.132  -8.706   2.246  0.00  0.00    +0.000 A 
ATOM     37  C   UNL     1      -1.075  -8.109   1.933  0.00  0.00    +0.000 A 
ATOM     38  C   UNL     1      -1.095  -6.875   1.309  0.00  0.00    +0.004 A 
ENDBRANCH  32  33
ENDBRANCH  31  32
ENDBRANCH  29  31
ENDBRANCH  23  30
ENDBRANCH   1  24
TORSDOF 9
