REMARK  Name = ZINC04525808
REMARK  3 active torsions:
REMARK  status: ('A' for Active; 'I' for Inactive)
REMARK    1  A    between atoms: C_8  and  C_10
REMARK    2  A    between atoms: N_12  and  N_13
REMARK    3  A    between atoms: C_14  and  C_16
REMARK                            x       y       z     vdW  Elec       q    Type
REMARK                         _______ _______ _______ _____ _____    ______ ____
ROOT
ATOM      1  C   UNL     1       3.140   6.435   0.007  0.00  0.00    +0.268 C 
ATOM      2  O   UNL     1       4.322   6.143  -0.005  0.00  0.00    -0.268 OA
ATOM      3  N   UNL     1       2.767   7.730   0.017  0.00  0.00    -0.230 N 
ATOM      4  H   UNL     1       1.825   7.963   0.027  0.00  0.00    +0.173 HD
ENDROOT
BRANCH   1  12
ATOM      5  C   UNL     1      -0.013   1.076   0.008  0.00  0.00    +0.001 A 
ATOM      6  C   UNL     1      -1.235   1.737   0.017  0.00  0.00    +0.001 A 
ATOM      7  C   UNL     1      -1.261   3.117   0.031  0.00  0.00    +0.016 A 
ATOM      8  C   UNL     1      -0.075   3.819   0.023  0.00  0.00    +0.021 A 
ATOM      9  C   UNL     1       1.184   3.173   0.007  0.00  0.00    +0.008 A 
ATOM     10  C   UNL     1       1.164   1.754   0.000  0.00  0.00    +0.010 A 
ATOM     11  C   UNL     1       2.301   4.028   0.001  0.00  0.00    +0.068 A 
ATOM     12  C   UNL     1       2.122   5.377   0.010  0.00  0.00    +0.095 A 
ATOM     13  S   UNL     1       0.346   5.544   0.028  0.00  0.00    -0.082 S 
ATOM     14 CL   UNL     1       3.905   3.364  -0.018  0.00  0.00    -0.082 Cl
ENDBRANCH   1  12
BRANCH   3  15
ATOM     15  N   UNL     1       3.738   8.740   0.014  0.00  0.00    -0.228 N 
ATOM     16  C   UNL     1       3.364  10.034   0.024  0.00  0.00    +0.295 C 
ATOM     17  O   UNL     1       2.183  10.327   0.037  0.00  0.00    -0.265 OA
ATOM     18  H   UNL     1       4.680   8.507   0.004  0.00  0.00    +0.173 HD
BRANCH  16  19
ATOM     19  C   UNL     1       4.380  11.091   0.021  0.00  0.00    +0.192 A 
ATOM     20  C   UNL     1       4.140  12.435   0.031  0.00  0.00    +0.056 A 
ATOM     21  C   UNL     1       5.392  13.069   0.023  0.00  0.00    +0.058 A 
ATOM     22  C   UNL     1       6.331  12.095   0.009  0.00  0.00    +0.171 A 
ATOM     23  O   UNL     1       5.717  10.905   0.014  0.00  0.00    -0.444 OA
ATOM     24 BR   UNL     1       8.202  12.370  -0.006  0.00  0.00    -0.008 Br
ENDBRANCH  16  19
ENDBRANCH   3  15
TORSDOF 3
