REMARK  Name = ZINC06762764
REMARK  9 active torsions:
REMARK  status: ('A' for Active; 'I' for Inactive)
REMARK    1  A    between atoms: C_1  and  C_2
REMARK    2  A    between atoms: C_2  and  C_3
REMARK    3  A    between atoms: C_2  and  C_4
REMARK    4  A    between atoms: C_4  and  C_6
REMARK    5  A    between atoms: C_4  and  N_22
REMARK    6  A    between atoms: N_8  and  N_9
REMARK    7  A    between atoms: C_10  and  C_11
REMARK    8  A    between atoms: C_20  and  O_21
REMARK    9  A    between atoms: C_23  and  C_25
REMARK                            x       y       z     vdW  Elec       q    Type
REMARK                         _______ _______ _______ _____ _____    ______ ____
ROOT
ATOM      1  C   UNL     1       3.445   1.923   0.917  0.00  0.00    +0.253 C 
ATOM      2  O   UNL     1       3.222   2.995   1.439  0.00  0.00    -0.272 OA
ATOM      3  N   UNL     1       4.708   1.458   0.845  0.00  0.00    -0.205 N 
ATOM      4  H   UNL     1       4.878   0.570   0.493  0.00  0.00    +0.177 HD
ENDROOT
BRANCH   3   5
ATOM      5  N   UNL     1       5.774   2.256   1.279  0.00  0.00    -0.188 NA
ATOM      6  C   UNL     1       6.992   1.807   1.210  0.00  0.00    +0.142 C 
BRANCH   6   7
ATOM      7  C   UNL     1       8.111   2.645   1.665  0.00  0.00    +0.044 A 
ATOM      8  C   UNL     1       9.486   2.156   1.595  0.00  0.00    -0.006 A 
ATOM      9  C   UNL     1       9.784   0.882   1.095  0.00  0.00    +0.009 A 
ATOM     10  C   UNL     1      11.081   0.464   1.046  0.00  0.00    +0.001 A 
ATOM     11  C   UNL     1      12.115   1.287   1.486  0.00  0.00    +0.001 A 
ATOM     12  C   UNL     1      11.860   2.531   1.978  0.00  0.00    +0.008 A 
ATOM     13  C   UNL     1      10.535   2.995   2.044  0.00  0.00    -0.017 A 
ATOM     14  C   UNL     1      10.234   4.274   2.545  0.00  0.00    +0.012 A 
ATOM     15  C   UNL     1       8.949   4.713   2.603  0.00  0.00    +0.046 A 
ATOM     16  C   UNL     1       7.883   3.925   2.169  0.00  0.00    +0.126 A 
BRANCH  16  17
ATOM     17  O   UNL     1       6.616   4.406   2.240  0.00  0.00    -0.506 OA
ATOM     18  H   UNL     1       6.168   4.212   3.075  0.00  0.00    +0.292 HD
ENDBRANCH  16  17
ENDBRANCH   6   7
ENDBRANCH   3   5
BRANCH   1  19
ATOM     19  C   UNL     1       2.309   1.112   0.348  0.00  0.00    +0.163 C 
BRANCH  19  20
ATOM     20  N   UNL     1       1.043   1.575   0.921  0.00  0.00    -0.300 N 
ATOM     21  C   UNL     1      -0.014   0.741   0.983  0.00  0.00    +0.247 C 
ATOM     22  O   UNL     1       0.084  -0.396   0.564  0.00  0.00    -0.270 OA
ATOM     23  H   UNL     1       0.965   2.482   1.256  0.00  0.00    +0.150 HD
BRANCH  21  24
ATOM     24  C   UNL     1      -1.292   1.210   1.555  0.00  0.00    +0.072 A 
ATOM     25  C   UNL     1      -1.406   2.513   2.044  0.00  0.00    +0.016 A 
ATOM     26  C   UNL     1      -2.603   2.946   2.572  0.00  0.00    +0.001 A 
ATOM     27  C   UNL     1      -3.690   2.090   2.630  0.00  0.00    +0.003 A 
ATOM     28  C   UNL     1      -3.585   0.796   2.154  0.00  0.00    +0.039 A 
ATOM     29  C   UNL     1      -2.392   0.349   1.616  0.00  0.00    +0.135 A 
ATOM     30  F   UNL     1      -2.290  -0.916   1.151  0.00  0.00    -0.205 F 
ENDBRANCH  21  24
ENDBRANCH  19  20
BRANCH  19  32
ATOM     31  C   UNL     1       1.195   0.368  -1.761  0.00  0.00    +0.009 C 
ATOM     32  C   UNL     1       2.273   1.280  -1.172  0.00  0.00    +0.012 C 
ATOM     33  C   UNL     1       1.952   2.736  -1.516  0.00  0.00    +0.009 C 
ENDBRANCH  19  32
ENDBRANCH   1  19
TORSDOF 7
