REMARK  Name = ZINC07983914
REMARK  4 active torsions:
REMARK  status: ('A' for Active; 'I' for Inactive)
REMARK    1  A    between atoms: C_3  and  O_12
REMARK    2  A    between atoms: C_4  and  N_9
REMARK    3  A    between atoms: C_6  and  C_7
REMARK    4  A    between atoms: O_12  and  C_13
REMARK                            x       y       z     vdW  Elec       q    Type
REMARK                         _______ _______ _______ _____ _____    ______ ____
ROOT
ATOM      1  C   UNL     1       0.946   7.229  -0.176  0.00  0.00    +0.015 A 
ATOM      2  C   UNL     1       1.017   5.857  -0.078  0.00  0.00    +0.049 A 
ATOM      3  C   UNL     1       2.254   5.222  -0.095  0.00  0.00    +0.159 A 
ATOM      4  C   UNL     1       3.423   5.969  -0.205  0.00  0.00    +0.169 A 
ATOM      5  C   UNL     1       3.363   7.329  -0.309  0.00  0.00    +0.047 A 
ATOM      6  C   UNL     1       2.123   7.979  -0.293  0.00  0.00    +0.017 A 
ENDROOT
BRANCH   4   7
ATOM      7  N   UNL     1       4.736   5.285  -0.216  0.00  0.00    +0.060 N 
ATOM      8  O   UNL     1       5.761   5.937  -0.312  0.00  0.00    -0.126 OA
ATOM      9  O   UNL     1       4.792   4.072  -0.129  0.00  0.00    -0.126 OA
ENDBRANCH   4   7
BRANCH   6  10
ATOM     10  C   UNL     1       2.056   9.442  -0.398  0.00  0.00    +0.258 C 
ATOM     11  O   UNL     1       3.076  10.090  -0.499  0.00  0.00    -0.296 OA
ENDBRANCH   6  10
BRANCH   3  12
ATOM     12  O   UNL     1       2.322   3.871   0.001  0.00  0.00    -0.451 OA
BRANCH  12  13
ATOM     13  C   UNL     1       1.156   3.172  -0.004  0.00  0.00    +0.164 A 
ATOM     14  C   UNL     1       0.604   2.733   1.190  0.00  0.00    +0.050 A 
ATOM     15  C   UNL     1      -0.581   2.022   1.183  0.00  0.00    +0.019 A 
ATOM     16  C   UNL     1      -1.221   1.752  -0.014  0.00  0.00    +0.021 A 
ATOM     17  C   UNL     1      -0.670   2.183  -1.208  0.00  0.00    +0.057 A 
ATOM     18  C   UNL     1       0.515   2.896  -1.206  0.00  0.00    +0.166 A 
ATOM     19  F   UNL     1       1.050   3.322  -2.371  0.00  0.00    -0.202 F 
ATOM     20 BR   UNL     1      -2.846   0.786  -0.019  0.00  0.00    -0.050 Br
ENDBRANCH  12  13
ENDBRANCH   3  12
TORSDOF 4
