REMARK  Name = ZINC05933432
REMARK  4 active torsions:
REMARK  status: ('A' for Active; 'I' for Inactive)
REMARK    1  A    between atoms: C_3  and  N_13
REMARK    2  A    between atoms: C_6  and  C_7
REMARK    3  A    between atoms: C_7  and  O_9
REMARK    4  A    between atoms: C_7  and  S_10
REMARK                            x       y       z     vdW  Elec       q    Type
REMARK                         _______ _______ _______ _____ _____    ______ ____
ROOT
ATOM      1  C   UNL     1      -1.187  -0.710   0.015  0.00  0.00    +0.010 A 
ATOM      2  C   UNL     1      -1.172  -2.091   0.002  0.00  0.00    +0.023 A 
ATOM      3  C   UNL     1       0.040  -2.771  -0.013  0.00  0.00    +0.025 A 
ATOM      4  C   UNL     1       1.232  -2.058  -0.021  0.00  0.00    +0.023 A 
ATOM      5  C   UNL     1       1.210  -0.677  -0.013  0.00  0.00    +0.010 A 
ATOM      6  C   UNL     1       0.002  -0.004   0.002  0.00  0.00    +0.005 A 
ENDROOT
BRANCH   3   7
ATOM      7  N   UNL     1       0.059  -4.167  -0.020  0.00  0.00    -0.358 N 
ATOM      8  H   UNL     1       0.905  -4.641  -0.031  0.00  0.00    +0.142 HD
ATOM      9  H   UNL     1      -0.775  -4.664  -0.015  0.00  0.00    +0.142 HD
ENDBRANCH   3   7
BRANCH   6  10
ATOM     10  C   UNL     1      -0.018   1.503   0.010  0.00  0.00    +0.320 C 
BRANCH  10  11
ATOM     11  S   UNL     1      -0.896   2.104  -1.459  0.00  0.00    +0.141 S 
ATOM     12  O   UNL     1      -0.148   1.807  -2.631  0.00  0.00    -0.142 OA
ATOM     13  O   UNL     1      -2.275   1.771  -1.376  0.00  0.00    -0.142 OA
ATOM     14  O   UNL     1      -0.855   3.621  -1.346  0.00  0.00    -0.045 OA
ENDBRANCH  10  11
BRANCH  10  15
ATOM     15  O   UNL     1      -0.687   1.964   1.186  0.00  0.00    -0.366 OA
ATOM     16  H   UNL     1      -1.604   1.665   1.259  0.00  0.00    +0.212 HD
ENDBRANCH  10  15
ENDBRANCH   6  10
TORSDOF 4
