REMARK  Name = ZINC00108006
REMARK  5 active torsions:
REMARK  status: ('A' for Active; 'I' for Inactive)
REMARK    1  A    between atoms: C_1  and  C_2
REMARK    2  A    between atoms: C_4  and  C_23
REMARK    3  A    between atoms: C_14  and  C_17
REMARK    4  A    between atoms: C_23  and  O_24
REMARK    5  A    between atoms: O_24  and  C_25
REMARK                            x       y       z     vdW  Elec       q    Type
REMARK                         _______ _______ _______ _____ _____    ______ ____
ROOT
ATOM      1  C   UNL     1       7.578  -1.946  -1.137  0.00  0.00    +0.065 C 
ATOM      2  C   UNL     1       6.160  -1.451  -1.017  0.00  0.00    +0.040 A 
ATOM      3  C   UNL     1       5.122  -2.319  -1.306  0.00  0.00    +0.029 A 
ATOM      4  C   UNL     1       3.797  -1.934  -1.218  0.00  0.00    -0.009 A 
ATOM      5  C   UNL     1       3.566  -0.593  -0.815  0.00  0.00    +0.035 A 
ATOM      6  C   UNL     1       2.277   0.049  -0.650  0.00  0.00    +0.058 A 
ATOM      7  C   UNL     1       2.304   1.377  -0.232  0.00  0.00    +0.097 A 
ATOM      8  S   UNL     1       4.018   1.777  -0.074  0.00  0.00    -0.062 S 
ATOM      9  C   UNL     1       4.704   0.215  -0.540  0.00  0.00    +0.111 A 
ATOM     10  N   UNL     1       5.949  -0.196  -0.639  0.00  0.00    -0.245 NA
ATOM     11  C   UNL     1       1.153   2.151   0.003  0.00  0.00    +0.254 C 
ATOM     12  O   UNL     1       1.200   3.354   0.185  0.00  0.00    -0.270 OA
ATOM     13  N   UNL     1      -0.018   1.457   0.010  0.00  0.00    -0.292 N 
ATOM     14  C   UNL     1       0.002  -0.004   0.002  0.00  0.00    +0.161 C 
ATOM     15  N   UNL     1       1.031  -0.557  -0.880  0.00  0.00    -0.324 N 
ATOM     16  H   UNL     1      -0.978   1.994   0.022  0.00  0.00    +0.151 HD
ATOM     17  H   UNL     1       0.771  -1.346  -1.601  0.00  0.00    +0.148 HD
ENDROOT
BRANCH  14  18
ATOM     18  C   UNL     1      -1.366  -0.513  -0.458  0.00  0.00    +0.027 C 
ATOM     19  C   UNL     1      -2.445  -0.014   0.505  0.00  0.00    +0.007 C 
ATOM     20  C   UNL     1      -3.813  -0.522   0.045  0.00  0.00    +0.000 C 
ATOM     21  C   UNL     1      -3.810  -2.052   0.031  0.00  0.00    +0.000 C 
ATOM     22  C   UNL     1      -2.730  -2.551  -0.932  0.00  0.00    +0.000 C 
ATOM     23  C   UNL     1      -1.363  -2.043  -0.472  0.00  0.00    +0.007 C 
ENDBRANCH  14  18
BRANCH   4  24
ATOM     24  C   UNL     1       2.667  -2.880  -1.532  0.00  0.00    +0.195 C 
BRANCH  24  25
ATOM     25  O   UNL     1       3.200  -4.152  -1.907  0.00  0.00    -0.378 OA
ATOM     26  C   UNL     1       2.207  -5.128  -2.227  0.00  0.00    +0.194 C 
ENDBRANCH  24  25
ENDBRANCH   4  24
TORSDOF 3
