REMARK  Name = ZINC66775231
REMARK  5 active torsions:
REMARK  status: ('A' for Active; 'I' for Inactive)
REMARK    1  A    between atoms: C_6  and  C_7
REMARK    2  A    between atoms: C_7  and  C_8
REMARK    3  A    between atoms: C_8  and  C_10
REMARK    4  A    between atoms: C_8  and  N_16
REMARK    5  A    between atoms: C_17  and  C_19
REMARK                            x       y       z     vdW  Elec       q    Type
REMARK                         _______ _______ _______ _____ _____    ______ ____
ROOT
ATOM      1  C   UNL     1      -1.747  -1.032  -1.428  0.00  0.00    +0.080 C 
ENDROOT
BRANCH   1   2
ATOM      2  C   UNL     1      -3.121  -1.706  -1.419  0.00  0.00    +0.010 C 
ATOM      3  C   UNL     1      -3.032  -3.037  -0.670  0.00  0.00    +0.005 C 
ATOM      4  C   UNL     1      -4.406  -3.710  -0.661  0.00  0.00    +0.000 C 
ATOM      5  C   UNL     1      -4.859  -3.964  -2.101  0.00  0.00    +0.000 C 
ATOM      6  C   UNL     1      -4.948  -2.633  -2.850  0.00  0.00    +0.000 C 
ATOM      7  C   UNL     1      -3.574  -1.960  -2.858  0.00  0.00    +0.005 C 
ENDBRANCH   1   2
BRANCH   1   8
ATOM      8  N   UNL     1      -0.780  -1.905  -2.097  0.00  0.00    -0.312 N 
ATOM      9  C   UNL     1      -0.660  -1.875  -3.439  0.00  0.00    +0.218 C 
ATOM     10  O   UNL     1      -1.353  -1.124  -4.093  0.00  0.00    -0.275 OA
ATOM     11  H   UNL     1      -0.226  -2.506  -1.575  0.00  0.00    +0.149 HD
BRANCH   9  12
ATOM     12  C   UNL     1       0.335  -2.773  -4.128  0.00  0.00    +0.092 C 
ATOM     13  C   UNL     1       0.271  -2.542  -5.639  0.00  0.00    +0.016 C 
ATOM     14  C   UNL     1       1.258  -3.477  -6.342  0.00  0.00    +0.020 C 
ATOM     15  C   UNL     1       2.680  -3.164  -5.865  0.00  0.00    +0.109 C 
ATOM     16  N   UNL     1       2.714  -3.243  -4.398  0.00  0.00    -0.285 N 
ATOM     17  C   UNL     1       1.746  -2.453  -3.625  0.00  0.00    +0.122 C 
ATOM     18  C   UNL     1       3.616  -4.025  -3.773  0.00  0.00    +0.300 C 
ATOM     19  O   UNL     1       3.695  -4.012  -2.560  0.00  0.00    -0.253 OA
ATOM     20  N   UNL     1       4.431  -4.822  -4.493  0.00  0.00    -0.313 N 
ATOM     21  H   UNL     1       4.419  -4.779  -5.462  0.00  0.00    +0.146 HD
ATOM     22  H   UNL     1       5.029  -5.439  -4.042  0.00  0.00    +0.146 HD
ENDBRANCH   9  12
ENDBRANCH   1   8
BRANCH   1  23
ATOM     23  C   UNL     1      -1.295  -0.778   0.011  0.00  0.00    +0.057 C 
BRANCH  23  29
ATOM     24  C   UNL     1      -0.020   1.376   0.009  0.00  0.00    +0.005 A 
ATOM     25  C   UNL     1       1.166   2.084   0.001  0.00  0.00    +0.020 A 
ATOM     26  C   UNL     1       2.374   1.410  -0.014  0.00  0.00    +0.041 A 
ATOM     27  C   UNL     1       2.393   0.027  -0.021  0.00  0.00    +0.020 A 
ATOM     28  C   UNL     1       1.206  -0.681  -0.013  0.00  0.00    +0.005 A 
ATOM     29  C   UNL     1      -0.001  -0.006   0.002  0.00  0.00    -0.046 A 
ATOM     30 CL   UNL     1       3.865   2.300  -0.025  0.00  0.00    -0.084 Cl
ENDBRANCH  23  29
ENDBRANCH   1  23
TORSDOF 5
