REMARK  Name = ZINC49043162
REMARK  5 active torsions:
REMARK  status: ('A' for Active; 'I' for Inactive)
REMARK    1  A    between atoms: C_2  and  N_20
REMARK    2  A    between atoms: C_5  and  N_8
REMARK    3  A    between atoms: N_8  and  S_9
REMARK    4  A    between atoms: S_9  and  C_12
REMARK    5  A    between atoms: C_12  and  C_13
REMARK                            x       y       z     vdW  Elec       q    Type
REMARK                         _______ _______ _______ _____ _____    ______ ____
ROOT
ATOM      1  N   UNL     1       1.200  -2.025   0.007  0.00  0.00    -0.218 N 
ATOM      2  H   UNL     1       2.064  -2.462  -0.035  0.00  0.00    +0.173 HD
ENDROOT
BRANCH   1   7
ATOM      3  C   UNL     1       1.309   1.441  -1.224  0.00  0.00    +0.040 A 
ATOM      4  C   UNL     1       0.963   2.139  -0.075  0.00  0.00    +0.027 A 
ATOM      5  C   UNL     1       0.696   1.452   1.101  0.00  0.00    +0.040 A 
ATOM      6  C   UNL     1       0.774   0.072   1.129  0.00  0.00    +0.043 A 
ATOM      7  C   UNL     1       1.120  -0.626  -0.021  0.00  0.00    +0.076 A 
ATOM      8  C   UNL     1       1.387   0.061  -1.198  0.00  0.00    +0.043 A 
ATOM      9 BR   UNL     1       1.857  -0.889  -2.763  0.00  0.00    -0.048 Br
ATOM     10 BR   UNL     1       0.411  -0.864   2.731  0.00  0.00    -0.048 Br
BRANCH   4  11
ATOM     11  N   UNL     1       0.885   3.537  -0.102  0.00  0.00    -0.358 N 
ATOM     12  H   UNL     1       1.072   4.017  -0.924  0.00  0.00    +0.142 HD
ATOM     13  H   UNL     1       0.643   4.025   0.701  0.00  0.00    +0.142 HD
ENDBRANCH   4  11
ENDBRANCH   1   7
BRANCH   1  14
ATOM     14  S   UNL     1      -0.182  -2.931   0.112  0.00  0.00    +0.043 S 
ATOM     15  O   UNL     1       0.271  -4.276   0.184  0.00  0.00    -0.155 OA
ATOM     16  O   UNL     1      -0.914  -2.354   1.184  0.00  0.00    -0.155 OA
BRANCH  14  17
ATOM     17  C   UNL     1      -1.046  -2.647  -1.458  0.00  0.00    +0.192 C 
BRANCH  17  18
ATOM     18  C   UNL     1      -2.434  -3.288  -1.399  0.00  0.00    +0.012 C 
ATOM     19  C   UNL     1      -2.291  -4.807  -1.285  0.00  0.00    +0.005 C 
ATOM     20  C   UNL     1      -3.679  -5.447  -1.226  0.00  0.00    +0.000 C 
ATOM     21  C   UNL     1      -4.454  -5.102  -2.500  0.00  0.00    +0.000 C 
ATOM     22  C   UNL     1      -4.598  -3.583  -2.614  0.00  0.00    +0.000 C 
ATOM     23  C   UNL     1      -3.210  -2.943  -2.672  0.00  0.00    +0.005 C 
ENDBRANCH  17  18
ENDBRANCH  14  17
ENDBRANCH   1  14
TORSDOF 5
