REMARK  Name = ZINC06831860
REMARK  10 active torsions:
REMARK  status: ('A' for Active; 'I' for Inactive)
REMARK    1  A    between atoms: C_1  and  C_2
REMARK    2  A    between atoms: C_2  and  O_3
REMARK    3  A    between atoms: O_3  and  C_4
REMARK    4  A    between atoms: C_6  and  C_14
REMARK    5  A    between atoms: C_9  and  O_10
REMARK    6  A    between atoms: O_10  and  C_11
REMARK    7  A    between atoms: C_11  and  C_12
REMARK    8  A    between atoms: C_14  and  S_15
REMARK    9  A    between atoms: S_15  and  C_16
REMARK   10  A    between atoms: C_20  and  N_22
REMARK                            x       y       z     vdW  Elec       q    Type
REMARK                         _______ _______ _______ _____ _____    ______ ____
ROOT
ATOM      1  C   UNL     1       1.530   0.033   6.143  0.00  0.00    +0.113 C 
ENDROOT
BRANCH   1   4
ATOM      2  C   UNL     1      -0.748   1.595   3.566  0.00  0.00    +0.162 A 
ATOM      3  C   UNL     1      -0.202   1.221   4.783  0.00  0.00    +0.055 A 
ATOM      4  C   UNL     1       0.937   0.439   4.818  0.00  0.00    -0.020 A 
ATOM      5  C   UNL     1       1.534   0.027   3.640  0.00  0.00    +0.026 A 
ATOM      6  C   UNL     1       0.990   0.393   2.422  0.00  0.00    +0.065 A 
ATOM      7  C   UNL     1      -0.148   1.182   2.380  0.00  0.00    +0.163 A 
ATOM      8 BR   UNL     1       3.091  -1.044   3.694  0.00  0.00    -0.050 Br
BRANCH   2   9
ATOM      9  O   UNL     1      -1.869   2.366   3.530  0.00  0.00    -0.489 OA
BRANCH   9  11
ATOM     10  C   UNL     1      -3.675   3.609   4.546  0.00  0.00    +0.048 C 
ATOM     11  C   UNL     1      -2.430   2.753   4.786  0.00  0.00    +0.226 C 
ENDBRANCH   9  11
ENDBRANCH   2   9
BRANCH   7  12
ATOM     12  O   UNL     1      -0.682   1.547   1.184  0.00  0.00    -0.489 OA
BRANCH  12  13
ATOM     13  C   UNL     1      -0.013   1.086   0.008  0.00  0.00    +0.226 C 
ATOM     14  C   UNL     1      -0.753   1.593  -1.232  0.00  0.00    +0.048 C 
ENDBRANCH  12  13
ENDBRANCH   7  12
ENDBRANCH   1   4
BRANCH   1  15
ATOM     15  S   UNL     1       0.801  -1.536   6.675  0.00  0.00    -0.081 S 
BRANCH  15  16
ATOM     16  C   UNL     1       1.649  -1.765   8.202  0.00  0.00    +0.192 A 
ATOM     17  N   UNL     1       2.535  -0.860   8.591  0.00  0.00    -0.207 NA
ATOM     18  C   UNL     1       3.191  -0.997   9.741  0.00  0.00    +0.122 A 
ATOM     19  C   UNL     1       2.943  -2.115  10.532  0.00  0.00    +0.086 A 
ATOM     20  C   UNL     1       2.010  -3.047  10.089  0.00  0.00    +0.122 A 
ATOM     21  N   UNL     1       1.389  -2.841   8.930  0.00  0.00    -0.207 NA
ATOM     22  N   UNL     1       4.112  -0.042  10.143  0.00  0.00    -0.343 N 
ATOM     23  H   UNL     1       4.588  -0.150  10.980  0.00  0.00    +0.144 HD
ATOM     24  H   UNL     1       4.279   0.735   9.586  0.00  0.00    +0.144 HD
BRANCH  20  25
ATOM     25  N   UNL     1       1.731  -4.176  10.845  0.00  0.00    -0.343 N 
ATOM     26  H   UNL     1       1.079  -4.821  10.530  0.00  0.00    +0.144 HD
ATOM     27  H   UNL     1       2.188  -4.319  11.688  0.00  0.00    +0.144 HD
ENDBRANCH  20  25
ENDBRANCH  15  16
ENDBRANCH   1  15
TORSDOF 8
