REMARK  Name = ZINC39482382
REMARK  7 active torsions:
REMARK  status: ('A' for Active; 'I' for Inactive)
REMARK    1  A    between atoms: C_4  and  C_7
REMARK    2  A    between atoms: C_7  and  S_8
REMARK    3  A    between atoms: S_8  and  N_11
REMARK    4  A    between atoms: N_11  and  C_12
REMARK    5  A    between atoms: C_15  and  C_26
REMARK    6  A    between atoms: C_17  and  N_18
REMARK    7  A    between atoms: C_31  and  O_32
REMARK                            x       y       z     vdW  Elec       q    Type
REMARK                         _______ _______ _______ _____ _____    ______ ____
ROOT
ATOM      1  C   UNL     1       6.768  -1.213   0.846  0.00  0.00    +0.069 A 
ATOM      2  C   UNL     1       7.027   0.138   1.029  0.00  0.00    +0.027 A 
ATOM      3  C   UNL     1       8.083   0.736   0.371  0.00  0.00    +0.010 A 
ATOM      4  C   UNL     1       8.892  -0.017  -0.479  0.00  0.00    -0.013 A 
ATOM      5  C   UNL     1       8.634  -1.374  -0.664  0.00  0.00    +0.033 A 
ATOM      6  C   UNL     1       7.578  -1.972   0.001  0.00  0.00    +0.053 A 
ENDROOT
BRANCH   6   7
ATOM      7  N   UNL     1       7.320  -3.337  -0.179  0.00  0.00    -0.330 N 
ATOM      8  C   UNL     1       6.426  -3.803  -1.251  0.00  0.00    +0.086 C 
ATOM      9  C   UNL     1       5.395  -4.759  -0.642  0.00  0.00    -0.060 C 
ATOM     10  N   UNL     1       6.091  -5.834   0.077  0.00  0.00    +0.400 N 
ATOM     11  C   UNL     1       6.832  -5.276   1.215  0.00  0.00    +0.119 C 
ATOM     12  C   UNL     1       7.939  -4.345   0.695  0.00  0.00    +0.120 C 
ATOM     13  O   UNL     1       7.420  -6.338   1.968  0.00  0.00    -0.250 OA
ATOM     14  H   UNL     1       5.416  -6.504   0.413  0.00  0.00    -0.082 HD
ATOM     15  H   UNL     1       6.735  -6.294  -0.549  0.00  0.00    -0.082 HD
ENDBRANCH   6   7
BRANCH   4  16
ATOM     16  C   UNL     1      10.027   0.627  -1.185  0.00  0.00    +0.024 A 
ATOM     17  C   UNL     1      11.293   0.048  -1.147  0.00  0.00    +0.012 A 
ATOM     18  C   UNL     1      12.346   0.651  -1.806  0.00  0.00    +0.001 A 
ATOM     19  C   UNL     1      12.147   1.829  -2.505  0.00  0.00    +0.004 A 
ATOM     20  C   UNL     1      10.895   2.411  -2.549  0.00  0.00    +0.046 A 
ATOM     21  C   UNL     1       9.828   1.814  -1.897  0.00  0.00    +0.125 A 
BRANCH  21  22
ATOM     22  O   UNL     1       8.595   2.382  -1.945  0.00  0.00    -0.506 OA
ATOM     23  H   UNL     1       8.425   3.013  -1.232  0.00  0.00    +0.292 HD
ENDBRANCH  21  22
ENDBRANCH   4  16
BRANCH   1  24
ATOM     24  N   UNL     1       5.696  -1.816   1.514  0.00  0.00    -0.219 N 
ATOM     25  H   UNL     1       5.773  -2.731   1.828  0.00  0.00    +0.173 HD
BRANCH  24  26
ATOM     26  S   UNL     1       4.297  -0.968   1.770  0.00  0.00    +0.047 S 
ATOM     27  O   UNL     1       4.704   0.203   2.464  0.00  0.00    -0.155 OA
ATOM     28  O   UNL     1       3.414  -1.900   2.378  0.00  0.00    -0.155 OA
BRANCH  26  29
ATOM     29  C   UNL     1       3.704  -0.536   0.111  0.00  0.00    +0.223 C 
BRANCH  29  33
ATOM     30  C   UNL     1       0.067   1.683   0.429  0.00  0.00    +0.000 A 
ATOM     31  C   UNL     1       1.282   2.343   0.420  0.00  0.00    +0.000 A 
ATOM     32  C   UNL     1       2.458   1.625   0.317  0.00  0.00    +0.005 A 
ATOM     33  C   UNL     1       2.421   0.247   0.224  0.00  0.00    -0.025 A 
ATOM     34  C   UNL     1       1.207  -0.414   0.234  0.00  0.00    +0.005 A 
ATOM     35  C   UNL     1       0.030   0.304   0.335  0.00  0.00    +0.000 A 
ENDBRANCH  29  33
ENDBRANCH  26  29
ENDBRANCH  24  26
ENDBRANCH   1  24
TORSDOF 7
