REMARK  Name = ZINC08986234
REMARK  12 active torsions:
REMARK  status: ('A' for Active; 'I' for Inactive)
REMARK    1  A    between atoms: C_1  and  C_2
REMARK    2  A    between atoms: C_2  and  O_3
REMARK    3  A    between atoms: O_3  and  C_4
REMARK    4  A    between atoms: C_4  and  C_6
REMARK    5  A    between atoms: C_7  and  C_22
REMARK    6  A    between atoms: C_12  and  C_14
REMARK    7  A    between atoms: C_17  and  O_20
REMARK    8  A    between atoms: O_20  and  C_21
REMARK    9  A    between atoms: C_22  and  S_23
REMARK   10  A    between atoms: S_23  and  C_24
REMARK   11  A    between atoms: C_27  and  C_30
REMARK   12  A    between atoms: N_28  and  N_29
REMARK                            x       y       z     vdW  Elec       q    Type
REMARK                         _______ _______ _______ _____ _____    ______ ____
ROOT
ATOM      1  C   UNL     1       4.318  -0.216  -7.821  0.00  0.00    +0.079 C 
ATOM      2  C   UNL     1       2.968  -0.249  -7.832  0.00  0.00    +0.034 C 
ATOM      3  N   UNL     1       2.267  -0.000  -8.977  0.00  0.00    -0.272 N 
ATOM      4  C   UNL     1       2.841   0.284 -10.153  0.00  0.00    +0.304 C 
ATOM      5  O   UNL     1       2.132   0.491 -11.118  0.00  0.00    -0.252 OA
ATOM      6  N   UNL     1       4.179   0.347 -10.301  0.00  0.00    -0.288 N 
ATOM      7  C   UNL     1       5.027   0.094  -9.124  0.00  0.00    +0.144 C 
ATOM      8  H   UNL     1       1.298  -0.031  -8.936  0.00  0.00    +0.156 HD
ATOM      9  H   UNL     1       4.574   0.554 -11.162  0.00  0.00    +0.151 HD
ENDROOT
BRANCH   7  10
ATOM     10  C   UNL     1       5.887   1.312  -8.900  0.00  0.00    -0.022 A 
ATOM     11  C   UNL     1       5.353   2.575  -9.074  0.00  0.00    +0.009 A 
ATOM     12  C   UNL     1       6.137   3.693  -8.864  0.00  0.00    +0.046 A 
ATOM     13  C   UNL     1       7.465   3.546  -8.490  0.00  0.00    +0.120 A 
ATOM     14  C   UNL     1       8.000   2.277  -8.321  0.00  0.00    +0.046 A 
ATOM     15  C   UNL     1       7.210   1.163  -8.527  0.00  0.00    +0.009 A 
BRANCH  13  16
ATOM     16  O   UNL     1       8.240   4.644  -8.289  0.00  0.00    -0.495 OA
ATOM     17  C   UNL     1       7.623   5.918  -8.481  0.00  0.00    +0.277 C 
ENDBRANCH  13  16
ENDBRANCH   7  10
BRANCH   1  18
ATOM     18  C   UNL     1       5.046  -0.468  -6.634  0.00  0.00    +0.339 C 
ATOM     19  O   UNL     1       5.566  -1.554  -6.459  0.00  0.00    -0.245 OA
BRANCH  18  20
ATOM     20  O   UNL     1       5.163   0.495  -5.697  0.00  0.00    -0.462 OA
BRANCH  20  22
ATOM     21  C   UNL     1       5.934   1.379  -3.584  0.00  0.00    +0.048 C 
ATOM     22  C   UNL     1       5.912   0.172  -4.524  0.00  0.00    +0.229 C 
ENDBRANCH  20  22
ENDBRANCH  18  20
ENDBRANCH   1  18
BRANCH   2  23
ATOM     23  C   UNL     1       2.223  -0.559  -6.559  0.00  0.00    +0.128 C 
BRANCH  23  24
ATOM     24  S   UNL     1       1.509   0.964  -5.892  0.00  0.00    -0.079 S 
BRANCH  24  25
ATOM     25  C   UNL     1       0.721   0.326  -4.451  0.00  0.00    +0.209 A 
ATOM     26  N   UNL     1       0.711  -0.925  -4.055  0.00  0.00    -0.121 NA
ATOM     27  N   UNL     1       0.046  -1.032  -2.961  0.00  0.00    -0.132 NA
ATOM     28  C   UNL     1      -0.412   0.133  -2.600  0.00  0.00    +0.154 A 
ATOM     29  N   UNL     1       0.004   1.041  -3.534  0.00  0.00    -0.228 N 
BRANCH  28  30
ATOM     30  C   UNL     1      -1.241   0.426  -1.377  0.00  0.00    +0.059 C 
ATOM     31  C   UNL     1      -0.460   0.028  -0.123  0.00  0.00    +0.011 C 
ATOM     32  C   UNL     1      -1.302   0.326   1.119  0.00  0.00    +0.001 C 
ATOM     33  C   UNL     1      -2.606  -0.473   1.055  0.00  0.00    +0.000 C 
ATOM     34  C   UNL     1      -3.387  -0.074  -0.199  0.00  0.00    +0.001 C 
ATOM     35  C   UNL     1      -2.545  -0.372  -1.441  0.00  0.00    +0.011 C 
ENDBRANCH  28  30
BRANCH  29  36
ATOM     36  N   UNL     1      -0.245   2.384  -3.547  0.00  0.00    -0.295 N 
ATOM     37  H   UNL     1       0.475   2.890  -3.054  0.00  0.00    +0.163 HD
ATOM     38  H   UNL     1      -0.344   2.724  -4.492  0.00  0.00    +0.163 HD
ENDBRANCH  29  36
ENDBRANCH  24  25
ENDBRANCH  23  24
ENDBRANCH   2  23
TORSDOF 10
