REMARK  Name = ZINC45866062
REMARK  10 active torsions:
REMARK  status: ('A' for Active; 'I' for Inactive)
REMARK    1  A    between atoms: C_1  and  C_2
REMARK    2  A    between atoms: C_5  and  O_33
REMARK    3  A    between atoms: C_6  and  N_8
REMARK    4  A    between atoms: C_9  and  C_11
REMARK    5  A    between atoms: C_11  and  C_13
REMARK    6  A    between atoms: C_11  and  N_19
REMARK    7  A    between atoms: N_19  and  C_20
REMARK    8  A    between atoms: C_23  and  N_26
REMARK    9  A    between atoms: N_29  and  C_30
REMARK   10  A    between atoms: O_33  and  C_34
REMARK                            x       y       z     vdW  Elec       q    Type
REMARK                         _______ _______ _______ _____ _____    ______ ____
ROOT
ATOM      1  C   UNL     1       0.262  -2.914   4.866  0.00  0.00    +0.188 C 
ENDROOT
BRANCH   1   2
ATOM      2  C   UNL     1      -0.945  -3.796   5.057  0.00  0.00    -0.018 A 
ATOM      3  C   UNL     1      -2.127  -3.257   5.528  0.00  0.00    +0.006 A 
ATOM      4  C   UNL     1      -3.234  -4.066   5.703  0.00  0.00    +0.000 A 
ATOM      5  C   UNL     1      -3.159  -5.414   5.407  0.00  0.00    +0.000 A 
ATOM      6  C   UNL     1      -1.976  -5.953   4.936  0.00  0.00    +0.000 A 
ATOM      7  C   UNL     1      -0.871  -5.144   4.756  0.00  0.00    +0.006 A 
ENDBRANCH   1   2
BRANCH   1   9
ATOM      8  N   UNL     1       0.027  -2.824   2.405  0.00  0.00    -0.281 N 
ATOM      9  C   UNL     1       0.130  -2.155   3.570  0.00  0.00    +0.242 C 
ATOM     10  O   UNL     1       0.115  -0.943   3.577  0.00  0.00    -0.273 OA
ATOM     11  H   UNL     1      -0.042  -3.792   2.405  0.00  0.00    +0.155 HD
BRANCH   8  17
ATOM     12  C   UNL     1       1.237   1.186  -0.170  0.00  0.00    +0.044 C 
ATOM     13  C   UNL     1       0.600  -0.177  -0.085  0.00  0.00    -0.048 A 
ATOM     14  C   UNL     1       0.009  -0.733  -1.204  0.00  0.00    +0.007 A 
ATOM     15  C   UNL     1      -0.577  -1.983  -1.132  0.00  0.00    +0.048 A 
ATOM     16  C   UNL     1      -0.574  -2.682   0.064  0.00  0.00    +0.141 A 
ATOM     17  C   UNL     1       0.021  -2.122   1.192  0.00  0.00    +0.076 A 
ATOM     18  C   UNL     1       0.613  -0.870   1.111  0.00  0.00    +0.030 A 
BRANCH  16  19
ATOM     19  O   UNL     1      -1.151  -3.911   0.137  0.00  0.00    -0.493 OA
ATOM     20  C   UNL     1      -1.743  -4.421  -1.059  0.00  0.00    +0.277 C 
ENDBRANCH  16  19
ENDBRANCH   8  17
ENDBRANCH   1   9
BRANCH   1  21
ATOM     21  N   UNL     1       0.356  -1.967   5.979  0.00  0.00    -0.329 N 
ATOM     22  H   UNL     1      -0.020  -1.077   5.892  0.00  0.00    +0.147 HD
BRANCH  21  23
ATOM     23  C   UNL     1       0.989  -2.346   7.168  0.00  0.00    +0.028 A 
ATOM     24  C   UNL     1       1.532  -3.618   7.291  0.00  0.00    +0.025 A 
ATOM     25  C   UNL     1       2.156  -3.992   8.465  0.00  0.00    +0.025 A 
ATOM     26  C   UNL     1       2.240  -3.096   9.522  0.00  0.00    +0.035 A 
ATOM     27  C   UNL     1       1.697  -1.824   9.400  0.00  0.00    +0.025 A 
ATOM     28  C   UNL     1       1.078  -1.448   8.224  0.00  0.00    +0.025 A 
BRANCH  26  29
ATOM     29  N   UNL     1       2.873  -3.476  10.714  0.00  0.00    -0.269 N 
ATOM     30  C   UNL     1       3.944  -4.293  10.677  0.00  0.00    +0.304 C 
ATOM     31  O   UNL     1       4.309  -4.771   9.620  0.00  0.00    -0.253 OA
ATOM     32  N   UNL     1       4.611  -4.582  11.812  0.00  0.00    -0.296 N 
ATOM     33  H   UNL     1       2.541  -3.151  11.565  0.00  0.00    +0.156 HD
ATOM     34  H   UNL     1       4.320  -4.201  12.656  0.00  0.00    +0.151 HD
BRANCH  32  35
ATOM     35  C   UNL     1       5.775  -5.471  11.772  0.00  0.00    +0.075 C 
ATOM     36  C   UNL     1       5.889  -6.536  12.865  0.00  0.00    +0.024 C 
ATOM     37  C   UNL     1       6.817  -5.320  12.883  0.00  0.00    +0.024 C 
ENDBRANCH  32  35
ENDBRANCH  26  29
ENDBRANCH  21  23
ENDBRANCH   1  21
TORSDOF 8
