REMARK  Name = ZINC21424398
REMARK  7 active torsions:
REMARK  status: ('A' for Active; 'I' for Inactive)
REMARK    1  A    between atoms: C_2  and  N_9
REMARK    2  A    between atoms: C_10  and  C_12
REMARK    3  A    between atoms: C_12  and  S_13
REMARK    4  A    between atoms: S_13  and  C_14
REMARK    5  A    between atoms: C_15  and  C_23
REMARK    6  A    between atoms: C_17  and  C_21
REMARK    7  A    between atoms: C_18  and  N_20
REMARK                            x       y       z     vdW  Elec       q    Type
REMARK                         _______ _______ _______ _____ _____    ______ ____
ROOT
ATOM      1  S   UNL     1      -3.955   1.549  -0.335  0.00  0.00    -0.095 S 
ENDROOT
BRANCH   1   2
ATOM      2  C   UNL     1      -5.171   0.285  -0.175  0.00  0.00    +0.117 A 
ATOM      3  C   UNL     1      -6.536   0.610  -0.310  0.00  0.00    +0.085 A 
ATOM      4  C   UNL     1      -7.491  -0.401  -0.186  0.00  0.00    +0.043 A 
ATOM      5  C   UNL     1      -7.051  -1.700   0.079  0.00  0.00    +0.092 A 
ATOM      6  C   UNL     1      -5.669  -1.943   0.206  0.00  0.00    +0.135 A 
ATOM      7  N   UNL     1      -4.793  -0.959   0.077  0.00  0.00    -0.224 NA
BRANCH   6   8
ATOM      8  N   UNL     1      -5.223  -3.223   0.469  0.00  0.00    -0.342 N 
ATOM      9  H   UNL     1      -4.145  -3.420   0.570  0.00  0.00    +0.144 HD
ATOM     10  H   UNL     1      -5.945  -4.045   0.578  0.00  0.00    +0.144 HD
ENDBRANCH   6   8
BRANCH   5  11
ATOM     11  C   UNL     1      -7.991  -2.771   0.220  0.00  0.00    +0.103 C 
ATOM     12  N   UNL     1      -8.737  -3.620   0.332  0.00  0.00    -0.191 NA
ENDBRANCH   5  11
BRANCH   3  13
ATOM     13  C   UNL     1      -6.938   1.959  -0.576  0.00  0.00    +0.102 C 
ATOM     14  N   UNL     1      -7.256   3.029  -0.787  0.00  0.00    -0.191 NA
ENDBRANCH   3  13
ENDBRANCH   1   2
BRANCH   1  15
ATOM     15  C   UNL     1      -2.453   0.576  -0.066  0.00  0.00    +0.172 C 
BRANCH  15  17
ATOM     16  N   UNL     1      -0.011   0.966   0.007  0.00  0.00    -0.285 N 
ATOM     17  C   UNL     1      -1.247   1.476  -0.160  0.00  0.00    +0.227 C 
ATOM     18  O   UNL     1      -1.390   2.659  -0.387  0.00  0.00    -0.275 OA
ATOM     19  H   UNL     1       0.125  -0.119   0.129  0.00  0.00    +0.155 HD
BRANCH  16  21
ATOM     20  C   UNL     1       0.987   3.095   0.555  0.00  0.00    +0.043 A 
ATOM     21  C   UNL     1       1.100   1.816   0.026  0.00  0.00    +0.036 A 
ATOM     22  C   UNL     1       2.318   1.381  -0.478  0.00  0.00    +0.043 A 
ATOM     23  C   UNL     1       3.412   2.225  -0.464  0.00  0.00    +0.044 A 
ATOM     24  C   UNL     1       3.297   3.500   0.063  0.00  0.00    +0.040 A 
ATOM     25  C   UNL     1       2.086   3.934   0.573  0.00  0.00    +0.044 A 
ATOM     26 CL   UNL     1       1.946   5.533   1.233  0.00  0.00    -0.083 Cl
ATOM     27 CL   UNL     1       4.934   1.685  -1.102  0.00  0.00    -0.083 Cl
ENDBRANCH  16  21
ENDBRANCH  15  17
ENDBRANCH   1  15
TORSDOF 7
