REMARK  Name = ZINC15002177
REMARK  4 active torsions:
REMARK  status: ('A' for Active; 'I' for Inactive)
REMARK    1  A    between atoms: C_8  and  N_54
REMARK    2  A    between atoms: C_10  and  N_54
REMARK    3  A    between atoms: N_21  and  C_24
REMARK    4  A    between atoms: C_24  and  C_25
REMARK                            x       y       z     vdW  Elec       q    Type
REMARK                         _______ _______ _______ _____ _____    ______ ____
ROOT
ATOM      1  C   UNL     1      -5.285   7.522  -5.387  0.00  0.00    -0.066 C 
ATOM      2  C   UNL     1      -5.396   6.301  -4.470  0.00  0.00    -0.011 C 
ATOM      3  C   UNL     1      -4.377   6.408  -3.336  0.00  0.00    +0.035 C 
ATOM      4  C   UNL     1      -2.996   6.656  -3.936  0.00  0.00    -0.023 A 
ATOM      5  C   UNL     1      -2.866   7.113  -5.200  0.00  0.00    -0.006 A 
ATOM      6  S   UNL     1      -1.118   7.246  -5.462  0.00  0.00    -0.073 S 
ATOM      7  C   UNL     1      -0.567   6.688  -3.870  0.00  0.00    +0.116 A 
ATOM      8  C   UNL     1      -1.763   6.416  -3.187  0.00  0.00    +0.076 A 
ATOM      9  C   UNL     1      -1.617   5.938  -1.844  0.00  0.00    +0.263 A 
ATOM     10  O   UNL     1      -2.597   5.675  -1.169  0.00  0.00    -0.267 OA
ATOM     11  N   UNL     1      -0.378   5.785  -1.340  0.00  0.00    -0.293 N 
ATOM     12  C   UNL     1       0.725   6.079  -2.075  0.00  0.00    +0.203 A 
ATOM     13  N   UNL     1       0.624   6.511  -3.304  0.00  0.00    -0.230 NA
ATOM     14  C   UNL     1      -3.964   7.435  -6.166  0.00  0.00    +0.027 C 
ENDROOT
BRANCH   1  15
ATOM     15  N   UNL     1      -6.418   7.528  -6.332  0.00  0.00    +0.383 N 
ATOM     16  H   UNL     1      -6.188   6.938  -7.139  0.00  0.00    -0.085 HD
ATOM     17  H   UNL     1      -7.252   7.156  -5.862  0.00  0.00    -0.085 HD
BRANCH  15  25
ATOM     18  C   UNL     1      -9.915  11.770  -8.793  0.00  0.00    +0.000 A 
ATOM     19  C   UNL     1     -10.058  12.188  -7.483  0.00  0.00    +0.000 A 
ATOM     20  C   UNL     1      -9.374  11.540  -6.474  0.00  0.00    +0.004 A 
ATOM     21  C   UNL     1      -8.544  10.471  -6.769  0.00  0.00    -0.046 A 
ATOM     22  C   UNL     1      -8.401  10.053  -8.079  0.00  0.00    -0.046 A 
ATOM     23  C   UNL     1      -9.088  10.704  -9.090  0.00  0.00    +0.004 A 
ATOM     24  C   UNL     1      -7.449   8.878  -8.139  0.00  0.00    +0.020 C 
ATOM     25  C   UNL     1      -6.692   8.902  -6.795  0.00  0.00    -0.063 C 
ATOM     26  C   UNL     1      -7.694   9.607  -5.857  0.00  0.00    +0.020 C 
ENDBRANCH  15  25
ENDBRANCH   1  15
BRANCH  11  27
ATOM     27  C   UNL     1      -0.217   5.298   0.032  0.00  0.00    +0.181 C 
BRANCH  27  28
ATOM     28  C   UNL     1      -0.132   3.793   0.024  0.00  0.00    +0.061 A 
ATOM     29  C   UNL     1       1.107   3.179   0.009  0.00  0.00    +0.025 A 
ATOM     30  C   UNL     1       1.174   1.794   0.001  0.00  0.00    +0.003 A 
ATOM     31  C   UNL     1      -0.013   1.076   0.008  0.00  0.00    +0.020 A 
ATOM     32  C   UNL     1      -1.214   1.759   0.017  0.00  0.00    +0.111 A 
ATOM     33  N   UNL     1      -1.239   3.078   0.030  0.00  0.00    -0.258 NA
ENDBRANCH  27  28
ENDBRANCH  11  27
TORSDOF 4
