REMARK  Name = ZINC33726327
REMARK  5 active torsions:
REMARK  status: ('A' for Active; 'I' for Inactive)
REMARK    1  A    between atoms: C_5  and  N_10
REMARK    2  A    between atoms: C_6  and  N_7
REMARK    3  A    between atoms: C_11  and  C_13
REMARK    4  A    between atoms: C_13  and  S_14
REMARK    5  A    between atoms: S_14  and  C_15
REMARK                            x       y       z     vdW  Elec       q    Type
REMARK                         _______ _______ _______ _____ _____    ______ ____
ROOT
ATOM      1  N   UNL     1       1.217  -2.082  -0.046  0.00  0.00    -0.282 N 
ATOM      2  C   UNL     1       2.375  -2.749   0.129  0.00  0.00    +0.228 C 
ATOM      3  O   UNL     1       3.391  -2.142   0.393  0.00  0.00    -0.275 OA
ATOM      4  H   UNL     1       0.395  -2.571  -0.209  0.00  0.00    +0.155 HD
ENDROOT
BRANCH   1   9
ATOM      5  C   UNL     1       0.194   1.353   0.779  0.00  0.00    +0.050 A 
ATOM      6  C   UNL     1       1.165   2.082   0.115  0.00  0.00    +0.021 A 
ATOM      7  C   UNL     1       2.153   1.432  -0.603  0.00  0.00    +0.032 A 
ATOM      8  C   UNL     1       2.173   0.051  -0.658  0.00  0.00    +0.042 A 
ATOM      9  C   UNL     1       1.200  -0.683   0.009  0.00  0.00    +0.078 A 
ATOM     10  C   UNL     1       0.210  -0.027   0.728  0.00  0.00    +0.149 A 
ATOM     11 BR   UNL     1       3.522  -0.838  -1.640  0.00  0.00    -0.048 Br
ATOM     12 BR   UNL     1       1.140   3.972   0.188  0.00  0.00    -0.050 Br
BRANCH  10  13
ATOM     13  N   UNL     1      -0.829  -0.806   1.439  0.00  0.00    +0.058 N 
ATOM     14  O   UNL     1      -1.749  -0.236   1.979  0.00  0.00    -0.126 OA
ATOM     15  O   UNL     1      -0.757  -2.012   1.481  0.00  0.00    -0.126 OA
ENDBRANCH  10  13
ENDBRANCH   1   9
BRANCH   2  16
ATOM     16  C   UNL     1       2.408  -4.250  -0.005  0.00  0.00    +0.173 C 
BRANCH  16  17
ATOM     17  S   UNL     1       4.096  -4.846   0.284  0.00  0.00    -0.075 S 
BRANCH  17  18
ATOM     18  C   UNL     1       3.970  -6.593   0.095  0.00  0.00    +0.210 A 
ATOM     19  N   UNL     1       2.873  -7.251  -0.197  0.00  0.00    -0.144 NA
ATOM     20  H   UNL     1       2.619  -9.352  -0.448  0.00  0.00    +0.192 HD
ATOM     21  N   UNL     1       3.214  -8.612  -0.253  0.00  0.00    -0.246 N 
ATOM     22  C   UNL     1       4.534  -8.686   0.017  0.00  0.00    +0.209 A 
ATOM     23  N   UNL     1       4.978  -7.464   0.219  0.00  0.00    -0.188 NA
ATOM     24  N   UNL     1       5.290  -9.844   0.067  0.00  0.00    -0.328 N 
ATOM     25  H   UNL     1       4.872 -10.703  -0.101  0.00  0.00    +0.145 HD
ATOM     26  H   UNL     1       6.237  -9.796   0.270  0.00  0.00    +0.145 HD
ENDBRANCH  17  18
ENDBRANCH  16  17
ENDBRANCH   2  16
TORSDOF 5
