REMARK  Name = ZINC12491572
REMARK  10 active torsions:
REMARK  status: ('A' for Active; 'I' for Inactive)
REMARK    1  A    between atoms: C_1  and  C_2
REMARK    2  A    between atoms: C_2  and  O_3
REMARK    3  A    between atoms: O_3  and  C_4
REMARK    4  A    between atoms: C_4  and  C_6
REMARK    5  A    between atoms: C_7  and  C_19
REMARK    6  A    between atoms: C_12  and  C_14
REMARK    7  A    between atoms: C_19  and  O_20
REMARK    8  A    between atoms: O_20  and  C_21
REMARK    9  A    between atoms: C_21  and  C_23
REMARK   10  A    between atoms: C_28  and  N_29
REMARK                            x       y       z     vdW  Elec       q    Type
REMARK                         _______ _______ _______ _____ _____    ______ ____
ROOT
ATOM      1  C   UNL     1      -2.135   0.892  -1.697  0.00  0.00    +0.082 C 
ATOM      2  C   UNL     1      -3.287   1.578  -1.537  0.00  0.00    +0.061 C 
ATOM      3  N   UNL     1      -3.786   1.836  -0.292  0.00  0.00    -0.269 N 
ATOM      4  C   UNL     1      -3.192   1.443   0.842  0.00  0.00    +0.304 C 
ATOM      5  O   UNL     1      -3.713   1.720   1.905  0.00  0.00    -0.252 OA
ATOM      6  N   UNL     1      -2.037   0.749   0.843  0.00  0.00    -0.288 N 
ATOM      7  C   UNL     1      -1.415   0.419  -0.451  0.00  0.00    +0.150 C 
ATOM      8  H   UNL     1      -4.617   2.332  -0.225  0.00  0.00    +0.156 HD
ATOM      9  H   UNL     1      -1.624   0.473   1.677  0.00  0.00    +0.151 HD
ENDROOT
BRANCH   7  10
ATOM     10  C   UNL     1      -0.028   1.008  -0.464  0.00  0.00    +0.015 A 
ATOM     11  C   UNL     1       1.131   0.451  -0.890  0.00  0.00    +0.013 A 
ATOM     12  C   UNL     1       2.299   1.187  -0.807  0.00  0.00    +0.008 A 
ATOM     13  C   UNL     1       2.249   2.444  -0.301  0.00  0.00    +0.045 A 
ATOM     14  S   UNL     1       0.512   2.624   0.071  0.00  0.00    -0.099 S 
ENDBRANCH   7  10
BRANCH   1  15
ATOM     15  C   UNL     1      -1.618   0.625  -2.986  0.00  0.00    +0.339 C 
ATOM     16  O   UNL     1      -2.154   1.104  -3.968  0.00  0.00    -0.245 OA
BRANCH  15  17
ATOM     17  O   UNL     1      -0.531  -0.162  -3.127  0.00  0.00    -0.462 OA
BRANCH  17  19
ATOM     18  C   UNL     1       1.168  -1.297  -4.417  0.00  0.00    +0.048 C 
ATOM     19  C   UNL     1      -0.063  -0.390  -4.458  0.00  0.00    +0.229 C 
ENDBRANCH  17  19
ENDBRANCH  15  17
ENDBRANCH   1  15
BRANCH   2  20
ATOM     20  C   UNL     1      -4.035   2.066  -2.751  0.00  0.00    +0.283 C 
BRANCH  20  21
ATOM     21  O   UNL     1      -5.216   2.798  -2.329  0.00  0.00    -0.455 OA
BRANCH  21  22
ATOM     22  C   UNL     1      -6.001   3.305  -3.301  0.00  0.00    +0.341 C 
ATOM     23  O   UNL     1      -5.706   3.139  -4.468  0.00  0.00    -0.245 OA
BRANCH  22  24
ATOM     24  C   UNL     1      -7.215   4.059  -2.948  0.00  0.00    +0.080 A 
ATOM     25  C   UNL     1      -7.499   4.349  -1.610  0.00  0.00    +0.018 A 
ATOM     26  C   UNL     1      -8.636   5.055  -1.287  0.00  0.00    +0.021 A 
ATOM     27  C   UNL     1      -9.504   5.480  -2.282  0.00  0.00    +0.043 A 
ATOM     28  C   UNL     1      -9.238   5.200  -3.608  0.00  0.00    +0.043 A 
ATOM     29  C   UNL     1      -8.093   4.495  -3.954  0.00  0.00    +0.040 A 
ATOM     30 CL   UNL     1     -10.934   6.368  -1.858  0.00  0.00    -0.083 Cl
BRANCH  29  31
ATOM     31  N   UNL     1      -7.820   4.218  -5.287  0.00  0.00    -0.357 N 
ATOM     32  H   UNL     1      -7.254   3.466  -5.520  0.00  0.00    +0.142 HD
ATOM     33  H   UNL     1      -8.195   4.777  -5.985  0.00  0.00    +0.142 HD
ENDBRANCH  29  31
ENDBRANCH  22  24
ENDBRANCH  21  22
ENDBRANCH  20  21
ENDBRANCH   2  20
TORSDOF 9
