REMARK  Name = ZINC14458981
REMARK  6 active torsions:
REMARK  status: ('A' for Active; 'I' for Inactive)
REMARK    1  A    between atoms: C_1  and  C_2
REMARK    2  A    between atoms: C_3  and  N_27
REMARK    3  A    between atoms: C_9  and  C_18
REMARK    4  A    between atoms: C_21  and  O_26
REMARK    5  A    between atoms: C_22  and  O_24
REMARK    6  A    between atoms: O_24  and  C_25
REMARK                            x       y       z     vdW  Elec       q    Type
REMARK                         _______ _______ _______ _____ _____    ______ ____
ROOT
ATOM      1  C   UNL     1      -0.932   2.935   0.352  0.00  0.00    +0.048 C 
ATOM      2  C   UNL     1      -2.413   2.659   0.348  0.00  0.00    +0.001 A 
ATOM      3  C   UNL     1      -2.862   1.357   0.332  0.00  0.00    +0.131 A 
ATOM      4  C   UNL     1      -4.218   1.087   0.333  0.00  0.00    +0.033 A 
ATOM      5  C   UNL     1      -5.123   2.132   0.338  0.00  0.00    +0.008 A 
ATOM      6  C   UNL     1      -4.682   3.439   0.340  0.00  0.00    -0.019 A 
ATOM      7  C   UNL     1      -3.314   3.725   0.353  0.00  0.00    +0.036 A 
ATOM      8  N   UNL     1      -2.786   5.014   0.386  0.00  0.00    -0.336 N 
ATOM      9  C   UNL     1      -3.747   6.125   0.295  0.00  0.00    +0.105 C 
ATOM     10  C   UNL     1      -4.958   5.735   1.115  0.00  0.00    +0.029 C 
ATOM     11  C   UNL     1      -5.625   4.578   0.307  0.00  0.00    +0.049 C 
ATOM     12  C   UNL     1      -7.003   4.532   0.878  0.00  0.00    -0.023 C 
ATOM     13  C   UNL     1      -7.319   5.733   1.352  0.00  0.00    -0.030 C 
ATOM     14  C   UNL     1      -6.150   6.699   1.144  0.00  0.00    +0.033 C 
ATOM     15  H   UNL     1      -2.046   5.119  -0.291  0.00  0.00    +0.147 HD
ENDROOT
BRANCH   9  16
ATOM     16  C   UNL     1      -4.147   6.342  -1.141  0.00  0.00    -0.023 A 
ATOM     17  C   UNL     1      -4.053   5.303  -2.048  0.00  0.00    +0.009 A 
ATOM     18  C   UNL     1      -4.418   5.497  -3.367  0.00  0.00    +0.049 A 
ATOM     19  C   UNL     1      -4.881   6.735  -3.783  0.00  0.00    +0.158 A 
ATOM     20  C   UNL     1      -4.975   7.781  -2.870  0.00  0.00    +0.162 A 
ATOM     21  C   UNL     1      -4.612   7.579  -1.548  0.00  0.00    +0.054 A 
BRANCH  20  22
ATOM     22  O   UNL     1      -5.428   8.999  -3.274  0.00  0.00    -0.491 OA
ATOM     23  C   UNL     1      -5.498  10.026  -2.283  0.00  0.00    +0.277 C 
ENDBRANCH  20  22
BRANCH  19  24
ATOM     24  O   UNL     1      -5.240   6.928  -5.080  0.00  0.00    -0.503 OA
ATOM     25  H   UNL     1      -6.171   6.739  -5.262  0.00  0.00    +0.292 HD
ENDBRANCH  19  24
ENDBRANCH   9  16
BRANCH   3  26
ATOM     26  N   UNL     1      -1.889   0.241   0.321  0.00  0.00    +0.057 N 
ATOM     27  O   UNL     1      -0.863   0.335  -0.330  0.00  0.00    -0.126 OA
ATOM     28  O   UNL     1      -2.111  -0.767   0.966  0.00  0.00    -0.126 OA
ENDBRANCH   3  26
TORSDOF 4
