REMARK  Name = ZINC19298751
REMARK  10 active torsions:
REMARK  status: ('A' for Active; 'I' for Inactive)
REMARK    1  A    between atoms: C_1  and  C_2
REMARK    2  A    between atoms: C_2  and  C_3
REMARK    3  A    between atoms: C_2  and  N_4
REMARK    4  A    between atoms: N_7  and  C_8
REMARK    5  A    between atoms: C_8  and  C_9
REMARK    6  A    between atoms: C_12  and  C_15
REMARK    7  A    between atoms: C_15  and  O_17
REMARK    8  A    between atoms: O_17  and  C_18
REMARK    9  A    between atoms: C_18  and  C_19
REMARK   10  A    between atoms: N_24  and  C_25
REMARK                            x       y       z     vdW  Elec       q    Type
REMARK                         _______ _______ _______ _____ _____    ______ ____
ROOT
ATOM      1  O   UNL     1      -6.124  -2.554  -1.149  0.00  0.00    -0.452 OA
ENDROOT
BRANCH   1   2
ATOM      2  C   UNL     1      -5.612  -2.116   0.017  0.00  0.00    +0.340 C 
ATOM      3  O   UNL     1      -6.063  -2.523   1.069  0.00  0.00    -0.245 OA
BRANCH   2   7
ATOM      4  C   UNL     1      -2.422   0.686   0.017  0.00  0.00    -0.030 A 
ATOM      5  C   UNL     1      -2.949   0.242  -1.183  0.00  0.00    +0.006 A 
ATOM      6  C   UNL     1      -3.982  -0.672  -1.190  0.00  0.00    +0.015 A 
ATOM      7  C   UNL     1      -4.503  -1.141   0.017  0.00  0.00    +0.059 A 
ATOM      8  C   UNL     1      -3.970  -0.685   1.225  0.00  0.00    +0.015 A 
ATOM      9  C   UNL     1      -2.933   0.225   1.217  0.00  0.00    +0.006 A 
BRANCH   4  10
ATOM     10  C   UNL     1      -1.290   1.681   0.017  0.00  0.00    +0.141 C 
BRANCH  10  14
ATOM     11  N   UNL     1       2.323   0.998  -0.015  0.00  0.00    -0.297 N 
ATOM     12  C   UNL     1       1.147   1.655   0.000  0.00  0.00    +0.300 C 
ATOM     13  O   UNL     1       1.130   2.871   0.007  0.00  0.00    -0.253 OA
ATOM     14  N   UNL     1      -0.011   0.966   0.007  0.00  0.00    -0.295 N 
ATOM     15  H   UNL     1       2.338  -0.102  -0.021  0.00  0.00    +0.150 HD
ATOM     16  H   UNL     1       0.004  -0.134   0.006  0.00  0.00    +0.151 HD
BRANCH  11  18
ATOM     17  C   UNL     1       3.969   2.109   1.413  0.00  0.00    +0.027 C 
ATOM     18  C   UNL     1       3.582   1.747  -0.023  0.00  0.00    +0.068 C 
ATOM     19  C   UNL     1       4.683   0.888  -0.647  0.00  0.00    +0.027 C 
ENDBRANCH  11  18
ENDBRANCH  10  14
ENDBRANCH   4  10
ENDBRANCH   2   7
ENDBRANCH   1   2
BRANCH   1  20
ATOM     20  C   UNL     1      -7.213  -3.512  -1.073  0.00  0.00    +0.328 C 
BRANCH  20  21
ATOM     21  C   UNL     1      -7.653  -3.884  -2.466  0.00  0.00    +0.258 C 
ATOM     22  O   UNL     1      -7.103  -3.391  -3.427  0.00  0.00    -0.272 OA
ATOM     23  N   UNL     1      -8.657  -4.765  -2.643  0.00  0.00    -0.237 N 
ATOM     24  C   UNL     1      -9.050  -5.098  -3.888  0.00  0.00    +0.306 C 
ATOM     25  O   UNL     1      -8.499  -4.604  -4.852  0.00  0.00    -0.252 OA
ATOM     26  N   UNL     1     -10.055  -5.979  -4.065  0.00  0.00    -0.294 N 
ATOM     27  H   UNL     1      -9.156  -5.212  -1.770  0.00  0.00    +0.159 HD
ATOM     28  H   UNL     1     -10.554  -6.426  -3.192  0.00  0.00    +0.151 HD
BRANCH  26  29
ATOM     29  C   UNL     1     -10.482  -6.341  -5.418  0.00  0.00    +0.037 C 
ATOM     30  C   UNL     1     -10.956  -5.087  -6.156  0.00  0.00    +0.029 C 
ATOM     31  C   UNL     1     -11.403  -5.465  -7.570  0.00  0.00    -0.008 C 
ATOM     32  C   UNL     1     -12.550  -6.474  -7.490  0.00  0.00    +0.007 C 
ATOM     33  C   UNL     1     -12.076  -7.728  -6.752  0.00  0.00    -0.008 C 
ATOM     34  C   UNL     1     -11.630  -7.350  -5.338  0.00  0.00    +0.029 C 
ATOM     35  C   UNL     1     -10.901  -8.351  -7.509  0.00  0.00    +0.007 C 
ATOM     36  C   UNL     1      -9.754  -7.341  -7.589  0.00  0.00    -0.008 C 
ATOM     37  C   UNL     1     -10.228  -6.088  -8.326  0.00  0.00    +0.007 C 
ATOM     38  C   UNL     1      -9.307  -6.963  -6.175  0.00  0.00    +0.029 C 
ENDBRANCH  26  29
ENDBRANCH  20  21
ENDBRANCH   1  20
TORSDOF 8
