REMARK  Name = ZINC42667569
REMARK  9 active torsions:
REMARK  status: ('A' for Active; 'I' for Inactive)
REMARK    1  A    between atoms: C_1  and  C_2
REMARK    2  A    between atoms: C_2  and  C_4
REMARK    3  A    between atoms: C_2  and  N_15
REMARK    4  A    between atoms: N_6  and  C_7
REMARK    5  A    between atoms: C_10  and  S_13
REMARK    6  A    between atoms: S_13  and  C_14
REMARK    7  A    between atoms: N_15  and  C_16
REMARK    8  A    between atoms: C_19  and  N_22
REMARK    9  A    between atoms: N_25  and  C_26
REMARK                            x       y       z     vdW  Elec       q    Type
REMARK                         _______ _______ _______ _____ _____    ______ ____
ROOT
ATOM      1  N   UNL     1      -0.158  -0.663   1.479  0.00  0.00    -0.333 N 
ATOM      2  H   UNL     1       0.760  -0.845   1.224  0.00  0.00    +0.147 HD
ENDROOT
BRANCH   1   3
ATOM      3  C   UNL     1      -0.554  -0.802   2.814  0.00  0.00    +0.028 A 
ATOM      4  C   UNL     1      -1.870  -0.547   3.178  0.00  0.00    +0.025 A 
ATOM      5  C   UNL     1      -2.261  -0.684   4.495  0.00  0.00    +0.025 A 
ATOM      6  C   UNL     1      -1.338  -1.077   5.456  0.00  0.00    +0.035 A 
ATOM      7  C   UNL     1      -0.023  -1.332   5.092  0.00  0.00    +0.025 A 
ATOM      8  C   UNL     1       0.367  -1.201   3.774  0.00  0.00    +0.025 A 
BRANCH   6   9
ATOM      9  N   UNL     1      -1.735  -1.216   6.793  0.00  0.00    -0.269 N 
ATOM     10  C   UNL     1      -2.970  -1.668   7.086  0.00  0.00    +0.304 C 
ATOM     11  O   UNL     1      -3.769  -1.875   6.193  0.00  0.00    -0.253 OA
ATOM     12  N   UNL     1      -3.320  -1.890   8.369  0.00  0.00    -0.296 N 
ATOM     13  H   UNL     1      -1.120  -0.986   7.508  0.00  0.00    +0.156 HD
ATOM     14  H   UNL     1      -2.683  -1.724   9.081  0.00  0.00    +0.151 HD
BRANCH  12  15
ATOM     15  C   UNL     1      -4.663  -2.381   8.687  0.00  0.00    +0.075 C 
ATOM     16  C   UNL     1      -5.391  -1.732   9.866  0.00  0.00    +0.024 C 
ATOM     17  C   UNL     1      -4.840  -3.154   9.996  0.00  0.00    +0.024 C 
ENDBRANCH  12  15
ENDBRANCH   6   9
ENDBRANCH   1   3
BRANCH   1  19
ATOM     18  C   UNL     1      -1.217   1.284   0.447  0.00  0.00    +0.038 C 
ATOM     19  C   UNL     1      -1.130  -0.243   0.467  0.00  0.00    +0.154 C 
BRANCH  19  20
ATOM     20  C   UNL     1      -0.691  -0.739  -0.887  0.00  0.00    +0.237 C 
ATOM     21  O   UNL     1       0.332  -1.380  -0.996  0.00  0.00    -0.273 OA
ATOM     22  N   UNL     1      -1.437  -0.469  -1.977  0.00  0.00    -0.284 N 
ATOM     23  H   UNL     1      -2.288  -0.015  -1.883  0.00  0.00    +0.155 HD
BRANCH  22  24
ATOM     24  C   UNL     1      -0.981  -0.846  -3.248  0.00  0.00    +0.034 A 
ATOM     25  C   UNL     1      -1.245  -0.040  -4.347  0.00  0.00    +0.024 A 
ATOM     26  C   UNL     1      -0.797  -0.410  -5.599  0.00  0.00    +0.016 A 
ATOM     27  C   UNL     1      -0.080  -1.589  -5.759  0.00  0.00    +0.008 A 
ATOM     28  C   UNL     1       0.185  -2.396  -4.659  0.00  0.00    +0.016 A 
ATOM     29  C   UNL     1      -0.260  -2.022  -3.407  0.00  0.00    +0.024 A 
BRANCH  27  30
ATOM     30  S   UNL     1       0.493  -2.063  -7.357  0.00  0.00    -0.129 S 
ATOM     31  C   UNL     1       1.353  -3.633  -7.067  0.00  0.00    +0.090 C 
ENDBRANCH  27  30
ENDBRANCH  22  24
ENDBRANCH  19  20
ENDBRANCH   1  19
TORSDOF 7
