REMARK  Name = ZINC66108890
REMARK  8 active torsions:
REMARK  status: ('A' for Active; 'I' for Inactive)
REMARK    1  A    between atoms: C_3  and  N_16
REMARK    2  A    between atoms: C_6  and  C_7
REMARK    3  A    between atoms: N_9  and  C_10
REMARK    4  A    between atoms: N_16  and  C_17
REMARK    5  A    between atoms: C_17  and  C_18
REMARK    6  A    between atoms: N_20  and  C_21
REMARK    7  A    between atoms: C_24  and  C_27
REMARK    8  A    between atoms: N_29  and  C_30
REMARK                            x       y       z     vdW  Elec       q    Type
REMARK                         _______ _______ _______ _____ _____    ______ ____
ROOT
ATOM      1  C   UNL     1       5.985   2.412  -0.045  0.00  0.00    +0.234 C 
ATOM      2  O   UNL     1       5.745   3.601  -0.047  0.00  0.00    -0.274 OA
ATOM      3  N   UNL     1       7.262   1.982  -0.058  0.00  0.00    -0.284 N 
ATOM      4  H   UNL     1       7.455   1.034   0.011  0.00  0.00    +0.155 HD
ENDROOT
BRANCH   3   5
ATOM      5  C   UNL     1       8.306   2.900  -0.169  0.00  0.00    +0.033 A 
ATOM      6  C   UNL     1       8.200   4.148   0.437  0.00  0.00    +0.024 A 
ATOM      7  C   UNL     1       9.229   5.056   0.330  0.00  0.00    +0.015 A 
ATOM      8  C   UNL     1      10.381   4.724  -0.388  0.00  0.00    +0.037 A 
ATOM      9  C   UNL     1      10.484   3.469  -0.995  0.00  0.00    +0.015 A 
ATOM     10  C   UNL     1       9.454   2.563  -0.880  0.00  0.00    +0.024 A 
BRANCH   8  11
ATOM     11  C   UNL     1      11.485   5.696  -0.506  0.00  0.00    +0.244 C 
ATOM     12  O   UNL     1      11.394   6.787   0.022  0.00  0.00    -0.270 OA
ATOM     13  N   UNL     1      12.595   5.373  -1.199  0.00  0.00    -0.308 N 
ATOM     14  H   UNL     1      12.668   4.503  -1.620  0.00  0.00    +0.149 HD
BRANCH  13  15
ATOM     15  C   UNL     1      13.692   6.338  -1.316  0.00  0.00    +0.073 C 
ATOM     16  C   UNL     1      13.415   7.286  -2.484  0.00  0.00    +0.022 C 
ATOM     17  C   UNL     1      14.560   8.293  -2.606  0.00  0.00    +0.002 C 
ATOM     18  C   UNL     1      15.872   7.546  -2.855  0.00  0.00    +0.000 C 
ATOM     19  C   UNL     1      16.149   6.598  -1.687  0.00  0.00    +0.002 C 
ATOM     20  C   UNL     1      15.004   5.591  -1.565  0.00  0.00    +0.022 C 
ENDBRANCH  13  15
ENDBRANCH   8  11
ENDBRANCH   3   5
BRANCH   1  21
ATOM     21  C   UNL     1       4.854   1.416  -0.030  0.00  0.00    +0.198 C 
BRANCH  21  22
ATOM     22  N   UNL     1       3.575   2.129  -0.019  0.00  0.00    -0.335 N 
ATOM     23  H   UNL     1       3.560   3.099  -0.022  0.00  0.00    +0.147 HD
BRANCH  22  26
ATOM     24  C   UNL     1      -0.017   1.393   0.021  0.00  0.00    +0.015 A 
ATOM     25  C   UNL     1       1.166   2.096   0.006  0.00  0.00    +0.023 A 
ATOM     26  C   UNL     1       2.381   1.416  -0.004  0.00  0.00    +0.028 A 
ATOM     27  C   UNL     1       2.404   0.024  -0.001  0.00  0.00    +0.023 A 
ATOM     28  C   UNL     1       1.224  -0.684   0.013  0.00  0.00    +0.015 A 
ATOM     29  C   UNL     1       0.003  -0.005   0.024  0.00  0.00    +0.037 A 
BRANCH  29  30
ATOM     30  C   UNL     1      -1.264  -0.762   0.040  0.00  0.00    +0.244 C 
ATOM     31  O   UNL     1      -2.326  -0.170   0.050  0.00  0.00    -0.270 OA
ATOM     32  N   UNL     1      -1.244  -2.109   0.043  0.00  0.00    -0.308 N 
ATOM     33  H   UNL     1      -0.396  -2.582   0.036  0.00  0.00    +0.149 HD
BRANCH  32  34
ATOM     34  C   UNL     1      -2.501  -2.861   0.059  0.00  0.00    +0.073 C 
ATOM     35  C   UNL     1      -2.988  -3.010   1.502  0.00  0.00    +0.022 C 
ATOM     36  C   UNL     1      -4.301  -3.795   1.518  0.00  0.00    +0.002 C 
ATOM     37  C   UNL     1      -4.075  -5.181   0.910  0.00  0.00    +0.000 C 
ATOM     38  C   UNL     1      -3.588  -5.031  -0.533  0.00  0.00    +0.002 C 
ATOM     39  C   UNL     1      -2.275  -4.246  -0.549  0.00  0.00    +0.022 C 
ENDBRANCH  32  34
ENDBRANCH  29  30
ENDBRANCH  22  26
ENDBRANCH  21  22
ENDBRANCH   1  21
TORSDOF 8
