REMARK  Name = ZINC41698420
REMARK  9 active torsions:
REMARK  status: ('A' for Active; 'I' for Inactive)
REMARK    1  A    between atoms: C_1  and  C_2
REMARK    2  A    between atoms: C_2  and  C_3
REMARK    3  A    between atoms: C_4  and  C_23
REMARK    4  A    between atoms: N_8  and  C_9
REMARK    5  A    between atoms: C_9  and  C_11
REMARK    6  A    between atoms: C_11  and  C_21
REMARK    7  A    between atoms: C_12  and  C_13
REMARK    8  A    between atoms: C_16  and  O_20
REMARK    9  A    between atoms: C_17  and  O_19
REMARK                            x       y       z     vdW  Elec       q    Type
REMARK                         _______ _______ _______ _____ _____    ______ ____
ROOT
ATOM      1  C   UNL     1       5.857  -1.839   4.066  0.00  0.00    +0.116 C 
ATOM      2  C   UNL     1       6.264  -2.405   5.241  0.00  0.00    +0.032 C 
ENDROOT
BRANCH   2   3
ATOM      3  C   UNL     1       7.680  -2.715   5.454  0.00  0.00    -0.020 A 
ATOM      4  C   UNL     1       8.219  -2.692   6.747  0.00  0.00    +0.012 A 
ATOM      5  C   UNL     1       9.550  -2.984   6.943  0.00  0.00    +0.050 A 
ATOM      6  C   UNL     1      10.362  -3.302   5.862  0.00  0.00    +0.158 A 
ATOM      7  C   UNL     1       9.834  -3.327   4.571  0.00  0.00    +0.159 A 
ATOM      8  C   UNL     1       8.499  -3.042   4.364  0.00  0.00    +0.057 A 
BRANCH   7   9
ATOM      9  O   UNL     1      10.633  -3.639   3.515  0.00  0.00    -0.503 OA
ATOM     10  H   UNL     1      10.662  -4.584   3.310  0.00  0.00    +0.292 HD
ENDBRANCH   7   9
BRANCH   6  11
ATOM     11  O   UNL     1      11.674  -3.588   6.062  0.00  0.00    -0.503 OA
ATOM     12  H   UNL     1      11.852  -4.526   6.219  0.00  0.00    +0.292 HD
ENDBRANCH   6  11
ENDBRANCH   2   3
BRANCH   1  13
ATOM     13  C   UNL     1       4.418  -1.664   3.791  0.00  0.00    +0.280 C 
ATOM     14  O   UNL     1       3.592  -2.024   4.613  0.00  0.00    -0.267 OA
BRANCH  13  20
ATOM     15  C   UNL     1       0.773  -0.347   1.241  0.00  0.00    +0.027 A 
ATOM     16  C   UNL     1       0.098  -0.821   2.294  0.00  0.00    +0.009 A 
ATOM     17  S   UNL     1       1.415  -1.367   3.365  0.00  0.00    -0.057 S 
ATOM     18  C   UNL     1       2.722  -0.952   2.393  0.00  0.00    +0.164 A 
ATOM     19  N   UNL     1       2.131  -0.419   1.288  0.00  0.00    -0.339 N 
ATOM     20  N   UNL     1       4.020  -1.110   2.641  0.00  0.00    -0.152 NA
ATOM     21  C   UNL     1      -1.392  -0.878   2.517  0.00  0.00    +0.053 C 
ATOM     22  H   UNL     1       2.668  -0.092   0.549  0.00  0.00    +0.167 HD
BRANCH  15  24
ATOM     23  C   UNL     1      -0.024   1.757   0.199  0.00  0.00    +0.010 C 
ATOM     24  C   UNL     1       0.060   0.236   0.049  0.00  0.00    +0.050 C 
ENDBRANCH  15  24
ENDBRANCH  13  20
ENDBRANCH   1  13
BRANCH   1  25
ATOM     25  C   UNL     1       6.828  -1.415   3.102  0.00  0.00    +0.104 C 
ATOM     26  N   UNL     1       7.597  -1.080   2.337  0.00  0.00    -0.191 NA
ENDBRANCH   1  25
TORSDOF 7
