REMARK  Name = ZINC02922106
REMARK  5 active torsions:
REMARK  status: ('A' for Active; 'I' for Inactive)
REMARK    1  A    between atoms: C_3  and  O_9
REMARK    2  A    between atoms: O_9  and  C_10
REMARK    3  A    between atoms: C_10  and  C_11
REMARK    4  A    between atoms: N_13  and  C_14
REMARK    5  A    between atoms: C_15  and  C_24
REMARK                            x       y       z     vdW  Elec       q    Type
REMARK                         _______ _______ _______ _____ _____    ______ ____
ROOT
ATOM      1  C   UNL     1       4.353  -1.688   1.453  0.00  0.00    +0.084 A 
ATOM      2  C   UNL     1       2.999  -1.642   1.746  0.00  0.00    +0.068 A 
ATOM      3  C   UNL     1       2.179  -0.684   1.016  0.00  0.00    -0.023 A 
ATOM      4  C   UNL     1       2.846   0.061   0.110  0.00  0.00    -0.004 A 
ATOM      5  S   UNL     1       4.530  -0.479   0.225  0.00  0.00    -0.077 S 
ATOM      6  C   UNL     1       2.288   1.105  -0.807  0.00  0.00    +0.043 C 
ATOM      7  C   UNL     1       1.406   2.068  -0.000  0.00  0.00    +0.005 C 
ATOM      8  C   UNL     1      -0.019   1.523   0.010  0.00  0.00    +0.001 C 
ATOM      9  C   UNL     1       0.002  -0.004   0.002  0.00  0.00    +0.005 C 
ATOM     10  C   UNL     1       0.683  -0.535   1.259  0.00  0.00    +0.037 C 
ENDROOT
BRANCH   2  11
ATOM     11  C   UNL     1       2.412  -2.527   2.757  0.00  0.00    +0.244 C 
ATOM     12  O   UNL     1       1.982  -3.619   2.434  0.00  0.00    -0.270 OA
ATOM     13  N   UNL     1       2.347  -2.131   4.044  0.00  0.00    -0.325 N 
ATOM     14  H   UNL     1       2.689  -1.260   4.301  0.00  0.00    +0.145 HD
ATOM     15  H   UNL     1       1.959  -2.716   4.713  0.00  0.00    +0.145 HD
ENDBRANCH   2  11
BRANCH   1  18
ATOM     16  C   UNL     1       6.606  -2.403   1.592  0.00  0.00    +0.255 C 
ATOM     17  O   UNL     1       6.903  -1.601   0.732  0.00  0.00    -0.272 OA
ATOM     18  N   UNL     1       5.328  -2.502   2.008  0.00  0.00    -0.277 N 
ATOM     19  H   UNL     1       5.090  -3.144   2.696  0.00  0.00    +0.155 HD
BRANCH  16  20
ATOM     20  C   UNL     1       7.665  -3.289   2.195  0.00  0.00    +0.325 C 
BRANCH  20  21
ATOM     21  O   UNL     1       8.929  -2.997   1.594  0.00  0.00    -0.481 OA
BRANCH  21  24
ATOM     22  C   UNL     1      10.926  -5.404   3.454  0.00  0.00    +0.023 A 
ATOM     23  C   UNL     1       9.837  -4.677   3.013  0.00  0.00    +0.048 A 
ATOM     24  C   UNL     1       9.999  -3.713   2.029  0.00  0.00    +0.140 A 
ATOM     25  C   UNL     1      11.256  -3.486   1.484  0.00  0.00    +0.084 A 
ATOM     26  C   UNL     1      12.344  -4.212   1.932  0.00  0.00    +0.043 A 
ATOM     27  C   UNL     1      12.178  -5.173   2.914  0.00  0.00    +0.043 A 
ATOM     28 CL   UNL     1      13.544  -6.088   3.469  0.00  0.00    -0.083 Cl
ATOM     29 CL   UNL     1      11.462  -2.285   0.247  0.00  0.00    -0.080 Cl
ENDBRANCH  21  24
ENDBRANCH  20  21
ENDBRANCH  16  20
ENDBRANCH   1  18
TORSDOF 5
