REMARK  Name = ZINC06576161
REMARK  4 active torsions:
REMARK  status: ('A' for Active; 'I' for Inactive)
REMARK    1  A    between atoms: C_7  and  C_12
REMARK    2  A    between atoms: C_12  and  C_13
REMARK    3  A    between atoms: C_13  and  N_21
REMARK    4  A    between atoms: N_21  and  N_22
REMARK                            x       y       z     vdW  Elec       q    Type
REMARK                         _______ _______ _______ _____ _____    ______ ____
ROOT
ATOM      1  C   UNL     1       1.297  -4.295  -1.162  0.00  0.00    +0.034 C 
ATOM      2  C   UNL     1       0.240  -5.174  -0.911  0.00  0.00    +0.040 C 
ATOM      3  C   UNL     1      -0.968  -4.708  -0.347  0.00  0.00    +0.013 C 
ATOM      4  C   UNL     1      -1.984  -5.579  -0.110  0.00  0.00    +0.001 C 
ATOM      5  C   UNL     1      -1.867  -6.933  -0.410  0.00  0.00    +0.004 C 
ATOM      6  C   UNL     1      -0.729  -7.446  -0.955  0.00  0.00    +0.051 C 
ATOM      7  C   UNL     1       0.359  -6.601  -1.233  0.00  0.00    +0.188 C 
ATOM      8  O   UNL     1       1.386  -7.047  -1.727  0.00  0.00    -0.287 OA
ENDROOT
BRANCH   1   9
ATOM      9  N   UNL     1       2.483  -4.771  -1.569  0.00  0.00    -0.267 N 
ATOM     10  H   UNL     1       2.639  -5.728  -1.593  0.00  0.00    +0.170 HD
BRANCH   9  11
ATOM     11  N   UNL     1       3.497  -3.885  -1.958  0.00  0.00    -0.221 N 
ATOM     12  C   UNL     1       4.669  -4.364  -2.421  0.00  0.00    +0.313 C 
ATOM     13  O   UNL     1       5.548  -3.596  -2.758  0.00  0.00    -0.252 OA
ATOM     14  N   UNL     1       4.865  -5.695  -2.509  0.00  0.00    -0.312 N 
ATOM     15  H   UNL     1       3.356  -2.928  -1.894  0.00  0.00    +0.174 HD
ATOM     16  H   UNL     1       4.163  -6.308  -2.239  0.00  0.00    +0.147 HD
ATOM     17  H   UNL     1       5.708  -6.039  -2.842  0.00  0.00    +0.147 HD
ENDBRANCH   9  11
ENDBRANCH   1   9
BRANCH   1  18
ATOM     18  C   UNL     1       1.103  -2.812  -0.977  0.00  0.00    +0.072 C 
BRANCH  18  25
ATOM     19  C   UNL     1       0.162   1.139   1.000  0.00  0.00    +0.001 A 
ATOM     20  C   UNL     1       1.381   1.757   1.208  0.00  0.00    +0.004 A 
ATOM     21  C   UNL     1       2.552   1.030   1.153  0.00  0.00    +0.046 A 
ATOM     22  C   UNL     1       2.515  -0.338   0.887  0.00  0.00    +0.136 A 
ATOM     23  C   UNL     1       1.285  -0.945   0.680  0.00  0.00    +0.009 A 
ATOM     24  C   UNL     1       0.117  -0.219   0.735  0.00  0.00    +0.008 A 
ATOM     25  C   UNL     1       1.579  -2.406   0.419  0.00  0.00    +0.137 C 
ATOM     26  C   UNL     1       3.090  -2.479   0.516  0.00  0.00    +0.320 C 
ATOM     27  O   UNL     1       3.774  -3.465   0.375  0.00  0.00    -0.250 OA
ATOM     28  O   UNL     1       3.520  -1.241   0.786  0.00  0.00    -0.425 OA
ENDBRANCH  18  25
ENDBRANCH   1  18
TORSDOF 4
