REMARK  Name = ZINC65077191
REMARK  7 active torsions:
REMARK  status: ('A' for Active; 'I' for Inactive)
REMARK    1  A    between atoms: C_1  and  C_2
REMARK    2  A    between atoms: N_4  and  C_5
REMARK    3  A    between atoms: C_8  and  N_11
REMARK    4  A    between atoms: C_12  and  C_14
REMARK    5  A    between atoms: C_14  and  C_15
REMARK    6  A    between atoms: C_15  and  S_16
REMARK    7  A    between atoms: S_16  and  C_19
REMARK                            x       y       z     vdW  Elec       q    Type
REMARK                         _______ _______ _______ _____ _____    ______ ____
ROOT
ATOM      1  C   UNL     1      -3.066  -9.141  -0.157  0.00  0.00    +0.181 C 
ENDROOT
BRANCH   1   2
ATOM      2  S   UNL     1      -2.906 -10.946  -0.239  0.00  0.00    -0.003 S 
ATOM      3  O   UNL     1      -2.266 -11.326  -1.450  0.00  0.00    -0.169 OA
ATOM      4  O   UNL     1      -2.457 -11.455   1.009  0.00  0.00    -0.169 OA
BRANCH   2   5
ATOM      5  C   UNL     1      -4.558 -11.539  -0.398  0.00  0.00    +0.090 A 
ATOM      6  C   UNL     1      -5.297 -11.828   0.734  0.00  0.00    +0.028 A 
ATOM      7  C   UNL     1      -6.594 -12.295   0.620  0.00  0.00    +0.018 A 
ATOM      8  C   UNL     1      -7.150 -12.472  -0.637  0.00  0.00    +0.029 A 
ATOM      9  C   UNL     1      -6.406 -12.180  -1.778  0.00  0.00    +0.049 A 
ATOM     10  C   UNL     1      -5.110 -11.708  -1.656  0.00  0.00    +0.051 A 
ATOM     11  N   UNL     1      -6.986 -12.360  -3.044  0.00  0.00    -0.284 N 
ATOM     12  C   UNL     1      -8.188 -11.836  -3.317  0.00  0.00    +0.218 C 
ATOM     13  O   UNL     1      -8.759 -12.159  -4.337  0.00  0.00    -0.275 OA
ATOM     14  C   UNL     1      -8.841 -10.858  -2.386  0.00  0.00    +0.107 C 
ATOM     15  C   UNL     1      -9.721 -11.595  -1.363  0.00  0.00    +0.083 C 
ATOM     16  S   UNL     1      -8.800 -13.070  -0.814  0.00  0.00    -0.123 S 
ATOM     17  H   UNL     1      -6.514 -12.866  -3.723  0.00  0.00    +0.155 HD
ENDBRANCH   2   5
ENDBRANCH   1   2
BRANCH   1  18
ATOM     18  C   UNL     1      -1.678  -8.512  -0.017  0.00  0.00    +0.119 C 
BRANCH  18  20
ATOM     19  N   UNL     1      -0.710  -6.244   0.177  0.00  0.00    -0.285 N 
ATOM     20  C   UNL     1      -1.810  -7.012   0.052  0.00  0.00    +0.219 C 
ATOM     21  O   UNL     1      -2.906  -6.497  -0.006  0.00  0.00    -0.275 OA
ATOM     22  H   UNL     1       0.160  -6.657   0.291  0.00  0.00    +0.155 HD
BRANCH  19  26
ATOM     23  C   UNL     1      -1.047  -2.089   0.076  0.00  0.00    +0.033 A 
ATOM     24  C   UNL     1       0.068  -2.709  -0.474  0.00  0.00    +0.025 A 
ATOM     25  C   UNL     1       0.179  -4.084  -0.440  0.00  0.00    +0.025 A 
ATOM     26  C   UNL     1      -0.823  -4.848   0.143  0.00  0.00    +0.033 A 
ATOM     27  C   UNL     1      -1.938  -4.228   0.693  0.00  0.00    +0.025 A 
ATOM     28  C   UNL     1      -2.047  -2.853   0.664  0.00  0.00    +0.025 A 
BRANCH  23  32
ATOM     29  C   UNL     1      -1.766   1.468   1.081  0.00  0.00    +0.109 C 
ATOM     30  C   UNL     1      -1.737  -0.038   1.069  0.00  0.00    +0.214 C 
ATOM     31  O   UNL     1      -2.232  -0.662   1.984  0.00  0.00    -0.276 OA
ATOM     32  N   UNL     1      -1.161  -0.693   0.042  0.00  0.00    -0.286 N 
ATOM     33  H   UNL     1      -0.824  -0.198  -0.722  0.00  0.00    +0.155 HD
ENDBRANCH  23  32
ENDBRANCH  19  26
ENDBRANCH  18  20
ENDBRANCH   1  18
TORSDOF 6
