REMARK  Name = ZINC21323357
REMARK  9 active torsions:
REMARK  status: ('A' for Active; 'I' for Inactive)
REMARK    1  A    between atoms: C_1  and  C_2
REMARK    2  A    between atoms: C_2  and  C_27
REMARK    3  A    between atoms: N_3  and  N_4
REMARK    4  A    between atoms: C_8  and  S_11
REMARK    5  A    between atoms: N_9  and  N_10
REMARK    6  A    between atoms: S_11  and  C_12
REMARK    7  A    between atoms: C_12  and  C_13
REMARK    8  A    between atoms: N_15  and  C_16
REMARK    9  A    between atoms: C_20  and  C_22
REMARK                            x       y       z     vdW  Elec       q    Type
REMARK                         _______ _______ _______ _____ _____    ______ ____
ROOT
ATOM      1  N   UNL     1       0.511   0.116  -2.382  0.00  0.00    -0.204 N 
ATOM      2  C   UNL     1       0.412  -0.579  -3.579  0.00  0.00    +0.254 A 
ATOM      3  N   UNL     1       0.240  -1.872  -3.707  0.00  0.00    -0.109 NA
ATOM      4  N   UNL     1       0.192  -2.169  -5.076  0.00  0.00    -0.119 NA
ATOM      5  C   UNL     1       0.336  -1.046  -5.739  0.00  0.00    +0.210 A 
ATOM      6  N   UNL     1       0.470  -0.034  -4.832  0.00  0.00    -0.211 N 
ATOM      7  H   UNL     1       0.655   1.206  -2.389  0.00  0.00    +0.178 HD
ENDROOT
BRANCH   1  10
ATOM      8  C   UNL     1       0.718   1.573  -0.054  0.00  0.00    +0.068 C 
ATOM      9  C   UNL     1       0.521   0.079  -0.044  0.00  0.00    +0.063 C 
ATOM     10  N   UNL     1       0.428  -0.572  -1.164  0.00  0.00    -0.184 NA
BRANCH   9  11
ATOM     11  C   UNL     1       0.434  -0.644   1.238  0.00  0.00    -0.002 A 
ATOM     12  C   UNL     1       0.540   0.052   2.445  0.00  0.00    +0.012 A 
ATOM     13  C   UNL     1       0.451  -0.629   3.640  0.00  0.00    +0.039 A 
ATOM     14  C   UNL     1       0.271  -2.004   3.646  0.00  0.00    +0.123 A 
ATOM     15  C   UNL     1       0.171  -2.701   2.452  0.00  0.00    +0.039 A 
ATOM     16  C   UNL     1       0.252  -2.030   1.250  0.00  0.00    +0.012 A 
ATOM     17  F   UNL     1       0.191  -2.667   4.821  0.00  0.00    -0.205 F 
ENDBRANCH   9  11
ENDBRANCH   1  10
BRANCH   6  18
ATOM     18  N   UNL     1       0.637   1.290  -5.125  0.00  0.00    -0.294 N 
ATOM     19  H   UNL     1       0.669   1.621  -6.173  0.00  0.00    +0.163 HD
ATOM     20  H   UNL     1       0.738   2.024  -4.312  0.00  0.00    +0.163 HD
ENDBRANCH   6  18
BRANCH   5  21
ATOM     21  S   UNL     1       0.347  -0.874  -7.492  0.00  0.00    -0.075 S 
BRANCH  21  22
ATOM     22  C   UNL     1       0.119  -2.567  -8.101  0.00  0.00    +0.173 C 
BRANCH  22  23
ATOM     23  C   UNL     1       0.109  -2.562  -9.608  0.00  0.00    +0.227 C 
ATOM     24  O   UNL     1       0.244  -1.519 -10.212  0.00  0.00    -0.275 OA
ATOM     25  N   UNL     1      -0.048  -3.717 -10.285  0.00  0.00    -0.285 N 
ATOM     26  H   UNL     1      -0.083  -4.673  -9.742  0.00  0.00    +0.155 HD
BRANCH  25  27
ATOM     27  C   UNL     1      -0.168  -3.700 -11.680  0.00  0.00    +0.034 A 
ATOM     28  C   UNL     1      -0.799  -2.636 -12.311  0.00  0.00    +0.025 A 
ATOM     29  C   UNL     1      -0.911  -2.619 -13.687  0.00  0.00    +0.022 A 
ATOM     30  C   UNL     1      -0.405  -3.667 -14.437  0.00  0.00    +0.053 A 
ATOM     31  C   UNL     1       0.220  -4.731 -13.810  0.00  0.00    +0.075 A 
ATOM     32  C   UNL     1       0.340  -4.750 -12.434  0.00  0.00    +0.037 A 
ATOM     33 CL   UNL     1      -0.552  -3.646 -16.166  0.00  0.00    -0.083 Cl
BRANCH  31  34
ATOM     34  C   UNL     1       0.771  -5.870 -14.629  0.00  0.00    +0.419 C 
ATOM     35  F   UNL     1       1.351  -6.817 -13.779  0.00  0.00    -0.166 F 
ATOM     36  F   UNL     1      -0.266  -6.466 -15.355  0.00  0.00    -0.166 F 
ATOM     37  F   UNL     1       1.739  -5.382 -15.514  0.00  0.00    -0.166 F 
ENDBRANCH  31  34
ENDBRANCH  25  27
ENDBRANCH  22  23
ENDBRANCH  21  22
ENDBRANCH   5  21
TORSDOF 8
