REMARK  Name = ZINC52094697
REMARK  6 active torsions:
REMARK  status: ('A' for Active; 'I' for Inactive)
REMARK    1  A    between atoms: C_1  and  C_2
REMARK    2  A    between atoms: C_2  and  C_3
REMARK    3  A    between atoms: C_3  and  N_4
REMARK    4  A    between atoms: N_4  and  C_5
REMARK    5  A    between atoms: C_5  and  C_7
REMARK    6  A    between atoms: C_5  and  C_20
REMARK                            x       y       z     vdW  Elec       q    Type
REMARK                         _______ _______ _______ _____ _____    ______ ____
ROOT
ATOM      1  C   UNL     1       1.570  -3.938  -2.404  0.00  0.00    -0.045 A 
ATOM      2  C   UNL     1       0.759  -4.669  -1.558  0.00  0.00    +0.031 A 
ATOM      3  C   UNL     1       0.892  -6.048  -1.494  0.00  0.00    +0.067 A 
ATOM      4  C   UNL     1       1.846  -6.692  -2.285  0.00  0.00    +0.068 A 
ATOM      5  C   UNL     1       2.656  -5.951  -3.131  0.00  0.00    +0.043 A 
ATOM      6  C   UNL     1       2.513  -4.578  -3.192  0.00  0.00    +0.022 A 
ATOM      7 BR   UNL     1       3.612  -3.567  -4.352  0.00  0.00    -0.050 Br
ATOM      8  N   UNL     1       1.745  -8.053  -2.008  0.00  0.00    -0.306 N 
ATOM      9  H   UNL     1       2.283  -8.755  -2.408  0.00  0.00    +0.170 HD
ATOM     10  C   UNL     1       0.775  -8.229  -1.091  0.00  0.00    +0.325 A 
ATOM     11  O   UNL     1       0.433  -9.302  -0.630  0.00  0.00    -0.247 OA
ATOM     12  N   UNL     1       0.241  -7.038  -0.761  0.00  0.00    -0.306 N 
ATOM     13  H   UNL     1      -0.474  -6.894  -0.122  0.00  0.00    +0.170 HD
ENDROOT
BRANCH   1  14
ATOM     14  C   UNL     1       1.426  -2.440  -2.474  0.00  0.00    -0.037 C 
BRANCH  14  15
ATOM     15  C   UNL     1       0.277  -2.082  -3.419  0.00  0.00    -0.021 C 
ATOM     16  C   UNL     1      -1.049  -2.658  -2.881  0.00  0.00    +0.002 C 
ATOM     17  C   UNL     1      -1.813  -3.103  -4.153  0.00  0.00    +0.000 C 
ATOM     18  C   UNL     1      -0.684  -3.670  -5.049  0.00  0.00    +0.000 C 
ATOM     19  C   UNL     1       0.509  -2.725  -4.797  0.00  0.00    +0.002 C 
ENDBRANCH  14  15
BRANCH  14  20
ATOM     20  N   UNL     1       1.139  -1.913  -1.133  0.00  0.00    +0.384 N 
ATOM     21  H   UNL     1       1.855  -2.219  -0.491  0.00  0.00    -0.085 HD
ATOM     22  H   UNL     1       0.241  -2.254  -0.823  0.00  0.00    -0.085 HD
BRANCH  20  23
ATOM     23  C   UNL     1       1.116  -0.445  -1.178  0.00  0.00    -0.082 C 
BRANCH  23  25
ATOM     24  C   UNL     1       0.793   1.633   0.171  0.00  0.00    +0.002 C 
ATOM     25  C   UNL     1       0.817   0.104   0.219  0.00  0.00    -0.022 C 
ENDBRANCH  23  25
ENDBRANCH  20  23
ENDBRANCH  14  20
ENDBRANCH   1  14
TORSDOF 5
