REMARK  Name = ZINC08846199
REMARK  9 active torsions:
REMARK  status: ('A' for Active; 'I' for Inactive)
REMARK    1  A    between atoms: C_1  and  C_2
REMARK    2  A    between atoms: C_2  and  O_3
REMARK    3  A    between atoms: O_3  and  C_4
REMARK    4  A    between atoms: C_4  and  C_6
REMARK    5  A    between atoms: C_9  and  C_12
REMARK    6  A    between atoms: C_15  and  C_17
REMARK    7  A    between atoms: C_22  and  N_31
REMARK    8  A    between atoms: C_26  and  N_30
REMARK    9  A    between atoms: C_27  and  C_28
REMARK                            x       y       z     vdW  Elec       q    Type
REMARK                         _______ _______ _______ _____ _____    ______ ____
ROOT
ATOM      1  C   UNL     1      -3.700   1.604   0.027  0.00  0.00    +0.134 C 
ATOM      2  C   UNL     1      -3.551   3.042   0.447  0.00  0.00    +0.011 A 
ATOM      3  C   UNL     1      -4.667   3.751   0.857  0.00  0.00    +0.010 A 
ATOM      4  C   UNL     1      -4.550   5.070   1.245  0.00  0.00    +0.023 A 
ATOM      5  C   UNL     1      -3.307   5.692   1.224  0.00  0.00    +0.028 A 
ATOM      6  C   UNL     1      -2.188   4.984   0.813  0.00  0.00    +0.069 A 
ATOM      7  C   UNL     1      -2.309   3.657   0.423  0.00  0.00    +0.136 A 
ATOM      8  O   UNL     1      -1.204   2.979   0.029  0.00  0.00    -0.441 OA
ATOM      9  C   UNL     1      -1.209   1.636   0.017  0.00  0.00    +0.199 C 
ATOM     10  C   UNL     1      -2.360   0.923   0.018  0.00  0.00    +0.101 C 
ENDROOT
BRANCH   1  14
ATOM     11  C   UNL     1      -4.565   1.828  -3.515  0.00  0.00    +0.135 A 
ATOM     12  C   UNL     1      -5.648   1.138  -3.065  0.00  0.00    +0.050 A 
ATOM     13  C   UNL     1      -5.470   0.961  -1.680  0.00  0.00    +0.046 A 
ATOM     14  C   UNL     1      -4.299   1.546  -1.354  0.00  0.00    +0.118 A 
ATOM     15  O   UNL     1      -3.758   2.073  -2.464  0.00  0.00    -0.459 OA
BRANCH  11  19
ATOM     16  C   UNL     1      -3.859   3.015  -7.523  0.00  0.00    +0.059 A 
ATOM     17  C   UNL     1      -2.931   3.332  -6.526  0.00  0.00    +0.015 A 
ATOM     18  C   UNL     1      -3.159   2.950  -5.235  0.00  0.00    +0.012 A 
ATOM     19  C   UNL     1      -4.319   2.241  -4.910  0.00  0.00    +0.017 A 
ATOM     20  C   UNL     1      -5.245   1.920  -5.907  0.00  0.00    +0.012 A 
ATOM     21  C   UNL     1      -5.021   2.306  -7.198  0.00  0.00    +0.015 A 
BRANCH  16  22
ATOM     22  C   UNL     1      -3.614   3.427  -8.917  0.00  0.00    +0.339 C 
ATOM     23  O   UNL     1      -2.605   4.043  -9.200  0.00  0.00    -0.245 OA
BRANCH  22  24
ATOM     24  O   UNL     1      -4.508   3.122  -9.878  0.00  0.00    -0.461 OA
BRANCH  24  26
ATOM     25  C   UNL     1      -5.323   3.125 -12.173  0.00  0.00    +0.048 C 
ATOM     26  C   UNL     1      -4.201   3.560 -11.228  0.00  0.00    +0.229 C 
ENDBRANCH  24  26
ENDBRANCH  22  24
ENDBRANCH  16  22
ENDBRANCH  11  19
ENDBRANCH   1  14
BRANCH   9  27
ATOM     27  N   UNL     1      -0.011   0.966   0.007  0.00  0.00    -0.328 N 
ATOM     28  H   UNL     1       0.002  -0.004   0.002  0.00  0.00    +0.145 HD
ATOM     29  H   UNL     1       0.822   1.462   0.002  0.00  0.00    +0.145 HD
ENDBRANCH   9  27
BRANCH   5  30
ATOM     30  N   UNL     1      -3.186   7.027   1.617  0.00  0.00    -0.358 N 
ATOM     31  H   UNL     1      -3.970   7.521   1.905  0.00  0.00    +0.142 HD
ATOM     32  H   UNL     1      -2.318   7.460   1.602  0.00  0.00    +0.142 HD
ENDBRANCH   5  30
BRANCH  10  33
ATOM     33  C   UNL     1      -2.300  -0.507   0.011  0.00  0.00    +0.101 C 
ATOM     34  N   UNL     1      -2.252  -1.642   0.004  0.00  0.00    -0.191 NA
ENDBRANCH  10  33
TORSDOF 8
