REMARK  Name = ZINC64411377
REMARK  5 active torsions:
REMARK  status: ('A' for Active; 'I' for Inactive)
REMARK    1  A    between atoms: C_1  and  C_2
REMARK    2  A    between atoms: C_9  and  N_12
REMARK    3  A    between atoms: C_13  and  C_15
REMARK    4  A    between atoms: C_15  and  C_16
REMARK    5  A    between atoms: C_18  and  C_25
REMARK                            x       y       z     vdW  Elec       q    Type
REMARK                         _______ _______ _______ _____ _____    ______ ____
ROOT
ATOM      1  N   UNL     1      -1.152  -0.851   4.471  0.00  0.00    -0.288 N 
ATOM      2  C   UNL     1      -1.189  -1.351   5.723  0.00  0.00    +0.220 C 
ATOM      3  O   UNL     1      -0.228  -1.940   6.169  0.00  0.00    -0.275 OA
ATOM      4  H   UNL     1      -1.921  -0.380   4.115  0.00  0.00    +0.151 HD
ENDROOT
BRANCH   1  13
ATOM      5  C   UNL     1      -0.018   1.503   0.010  0.00  0.00    +0.046 C 
ATOM      6  C   UNL     1       0.002  -0.004   0.002  0.00  0.00    -0.028 A 
ATOM      7  C   UNL     1       0.005  -0.673  -1.200  0.00  0.00    +0.005 A 
ATOM      8  C   UNL     1       0.024  -2.054  -1.249  0.00  0.00    +0.001 A 
ATOM      9  C   UNL     1       0.039  -2.767  -0.061  0.00  0.00    +0.016 A 
ATOM     10  C   UNL     1       0.036  -2.097   1.141  0.00  0.00    +0.032 A 
ATOM     11  C   UNL     1       0.023  -0.701   1.223  0.00  0.00    +0.046 A 
ATOM     12  N   UNL     1       0.027  -0.119   2.490  0.00  0.00    -0.316 N 
ATOM     13  C   UNL     1       0.050  -1.019   3.651  0.00  0.00    +0.224 C 
ATOM     14  S   UNL     1       0.051  -2.662   2.827  0.00  0.00    -0.082 S 
ATOM     15  H   UNL     1       0.015   0.845   2.600  0.00  0.00    +0.149 HD
ENDBRANCH   1  13
BRANCH   2  16
ATOM     16  C   UNL     1      -2.425  -1.178   6.567  0.00  0.00    +0.138 C 
BRANCH  16  17
ATOM     17  C   UNL     1      -2.210  -1.823   7.912  0.00  0.00    +0.045 A 
ATOM     18  H   UNL     1      -1.296  -1.162  10.933  0.00  0.00    +0.170 HD
ATOM     19  C   UNL     1      -1.789  -1.088   8.963  0.00  0.00    +0.026 A 
ATOM     20  N   UNL     1      -1.598  -1.690  10.178  0.00  0.00    -0.311 N 
ATOM     21  C   UNL     1      -1.825  -3.007  10.333  0.00  0.00    +0.327 A 
ATOM     22  O   UNL     1      -1.649  -3.521  11.420  0.00  0.00    -0.247 OA
ATOM     23  N   UNL     1      -2.245  -3.763   9.301  0.00  0.00    -0.275 N 
ATOM     24  C   UNL     1      -2.450  -3.207   8.090  0.00  0.00    +0.258 A 
ATOM     25  O   UNL     1      -2.835  -3.889   7.158  0.00  0.00    -0.267 OA
ATOM     26  C   UNL     1      -1.531   0.388   8.801  0.00  0.00    +0.064 C 
ATOM     27  H   UNL     1      -2.403  -4.711   9.431  0.00  0.00    +0.173 HD
ENDBRANCH  16  17
ENDBRANCH   2  16
TORSDOF 3
