REMARK  Name = ZINC01364772
REMARK  6 active torsions:
REMARK  status: ('A' for Active; 'I' for Inactive)
REMARK    1  A    between atoms: C_1  and  C_2
REMARK    2  A    between atoms: C_4  and  C_29
REMARK    3  A    between atoms: C_9  and  C_14
REMARK    4  A    between atoms: C_14  and  N_15
REMARK    5  A    between atoms: N_15  and  C_16
REMARK    6  A    between atoms: N_21  and  C_22
REMARK                            x       y       z     vdW  Elec       q    Type
REMARK                         _______ _______ _______ _____ _____    ______ ____
ROOT
ATOM      1  C   UNL     1      -1.173   7.751  -0.090  0.00  0.00    +0.150 C 
ENDROOT
BRANCH   1  10
ATOM      2  C   UNL     1       4.767   3.322  -0.942  0.00  0.00    +0.044 C 
ATOM      3  C   UNL     1       3.281   3.559  -1.027  0.00  0.00    -0.050 A 
ATOM      4  C   UNL     1       2.446   2.541  -1.467  0.00  0.00    +0.008 A 
ATOM      5  C   UNL     1       1.085   2.736  -1.558  0.00  0.00    -0.026 A 
ATOM      6  C   UNL     1       0.538   3.962  -1.193  0.00  0.00    +0.052 A 
ATOM      7  C   UNL     1       1.388   4.992  -0.747  0.00  0.00    -0.001 A 
ATOM      8  C   UNL     1       2.767   4.773  -0.669  0.00  0.00    +0.013 A 
ATOM      9  C   UNL     1       0.804   6.281  -0.372  0.00  0.00    +0.020 A 
ATOM     10  C   UNL     1      -0.540   6.436  -0.469  0.00  0.00    +0.035 A 
ATOM     11  C   UNL     1      -1.347   5.372  -0.922  0.00  0.00    +0.254 A 
ATOM     12  O   UNL     1      -2.553   5.532  -1.002  0.00  0.00    -0.268 OA
ATOM     13  N   UNL     1      -0.820   4.184  -1.269  0.00  0.00    -0.322 N 
ATOM     14  H   UNL     1      -1.422   3.452  -1.587  0.00  0.00    +0.169 HD
ATOM     15  C   UNL     1       0.192   1.624  -2.044  0.00  0.00    +0.046 C 
ENDBRANCH   1  10
BRANCH   1  16
ATOM     16  N   UNL     1      -1.489   8.508  -1.304  0.00  0.00    -0.278 N 
ATOM     17  C   UNL     1      -2.730   8.455  -1.828  0.00  0.00    +0.307 C 
ATOM     18  O   UNL     1      -2.965   8.998  -2.890  0.00  0.00    -0.252 OA
ATOM     19  N   UNL     1      -3.710   7.800  -1.174  0.00  0.00    -0.269 N 
ATOM     20  H   UNL     1      -3.538   7.420  -0.298  0.00  0.00    +0.156 HD
BRANCH  19  21
ATOM     21  C   UNL     1      -4.975   7.668  -1.759  0.00  0.00    +0.035 A 
ATOM     22  C   UNL     1      -5.093   7.519  -3.134  0.00  0.00    +0.025 A 
ATOM     23  C   UNL     1      -6.342   7.384  -3.708  0.00  0.00    +0.022 A 
ATOM     24  C   UNL     1      -7.476   7.409  -2.915  0.00  0.00    +0.041 A 
ATOM     25  C   UNL     1      -7.361   7.563  -1.545  0.00  0.00    +0.022 A 
ATOM     26  C   UNL     1      -6.114   7.692  -0.965  0.00  0.00    +0.025 A 
ATOM     27 CL   UNL     1      -9.044   7.245  -3.640  0.00  0.00    -0.084 Cl
ENDBRANCH  19  21
BRANCH  16  28
ATOM     28  C   UNL     1      -0.456   9.322  -1.949  0.00  0.00    +0.078 C 
ATOM     29  C   UNL     1      -0.916  10.380  -2.954  0.00  0.00    +0.024 C 
ATOM     30  C   UNL     1      -0.220   9.109  -3.446  0.00  0.00    +0.024 C 
ENDBRANCH  16  28
ENDBRANCH   1  16
TORSDOF 4
