REMARK  Name = ZINC45626314
REMARK  4 active torsions:
REMARK  status: ('A' for Active; 'I' for Inactive)
REMARK    1  A    between atoms: C_5  and  C_7
REMARK    2  A    between atoms: C_7  and  N_8
REMARK    3  A    between atoms: C_9  and  C_13
REMARK    4  A    between atoms: C_15  and  N_20
REMARK                            x       y       z     vdW  Elec       q    Type
REMARK                         _______ _______ _______ _____ _____    ______ ____
ROOT
ATOM      1  N   UNL     1       1.486  -2.526   1.402  0.00  0.00    -0.221 N 
ATOM      2  C   UNL     1       2.693  -2.847   1.931  0.00  0.00    +0.183 A 
ATOM      3  N   UNL     1       2.463  -3.456   3.076  0.00  0.00    -0.108 NA
ATOM      4  N   UNL     1       1.200  -3.537   3.296  0.00  0.00    -0.023 NA
ATOM      5  N   UNL     1       0.540  -2.992   2.332  0.00  0.00    -0.043 NA
ENDROOT
BRANCH   2   6
ATOM      6  C   UNL     1       4.018  -2.567   1.335  0.00  0.00    +0.036 A 
ATOM      7  C   UNL     1       4.265  -2.883   0.000  0.00  0.00    +0.035 A 
ATOM      8  C   UNL     1       5.509  -2.617  -0.552  0.00  0.00    +0.025 A 
ATOM      9  C   UNL     1       6.505  -2.037   0.225  0.00  0.00    +0.024 A 
ATOM     10  C   UNL     1       6.260  -1.724   1.548  0.00  0.00    +0.018 A 
ATOM     11  C   UNL     1       5.022  -1.980   2.106  0.00  0.00    +0.029 A 
ATOM     12 BR   UNL     1       4.691  -1.541   3.915  0.00  0.00    -0.050 Br
BRANCH   8  13
ATOM     13  N   UNL     1       5.761  -2.933  -1.890  0.00  0.00    -0.358 N 
ATOM     14  H   UNL     1       5.066  -3.337  -2.432  0.00  0.00    +0.142 HD
ATOM     15  H   UNL     1       6.631  -2.747  -2.276  0.00  0.00    +0.142 HD
ENDBRANCH   8  13
ENDBRANCH   2   6
BRANCH   1  16
ATOM     16  C   UNL     1       1.225  -1.837   0.136  0.00  0.00    +0.185 C 
BRANCH  16  21
ATOM     17  C   UNL     1      -0.390   1.505   0.827  0.00  0.00    +0.000 A 
ATOM     18  C   UNL     1       0.710   2.341   0.869  0.00  0.00    +0.003 A 
ATOM     19  C   UNL     1       1.978   1.827   0.674  0.00  0.00    +0.039 A 
ATOM     20  C   UNL     1       2.146   0.473   0.436  0.00  0.00    +0.128 A 
ATOM     21  C   UNL     1       1.044  -0.363   0.395  0.00  0.00    +0.009 A 
ATOM     22  C   UNL     1      -0.223   0.153   0.591  0.00  0.00    +0.008 A 
ATOM     23  F   UNL     1       3.385  -0.031   0.245  0.00  0.00    -0.205 F 
ENDBRANCH  16  21
ENDBRANCH   1  16
TORSDOF 4
