REMARK  Name = ZINC24720094
REMARK  7 active torsions:
REMARK  status: ('A' for Active; 'I' for Inactive)
REMARK    1  A    between atoms: C_3  and  C_6
REMARK    2  A    between atoms: C_6  and  C_7
REMARK    3  A    between atoms: C_7  and  N_8
REMARK    4  A    between atoms: C_12  and  S_14
REMARK    5  A    between atoms: S_14  and  C_15
REMARK    6  A    between atoms: C_15  and  C_16
REMARK    7  A    between atoms: N_22  and  C_23
REMARK                            x       y       z     vdW  Elec       q    Type
REMARK                         _______ _______ _______ _____ _____    ______ ____
ROOT
ATOM      1  C   UNL     1      -5.819  -4.958   8.417  0.00  0.00    +0.146 A 
ATOM      2  N   UNL     1      -6.984  -4.468   8.804  0.00  0.00    -0.199 NA
ATOM      3  C   UNL     1      -7.680  -5.076   9.762  0.00  0.00    +0.217 A 
ATOM      4  N   UNL     1      -7.196  -6.172  10.338  0.00  0.00    -0.181 NA
ATOM      5  C   UNL     1      -6.022  -6.658   9.950  0.00  0.00    +0.224 A 
ATOM      6  N   UNL     1      -5.335  -6.047   8.988  0.00  0.00    -0.198 NA
ATOM      7  N   UNL     1      -5.515  -7.797  10.546  0.00  0.00    -0.284 N 
ATOM      8  N   UNL     1      -8.899  -4.567  10.161  0.00  0.00    -0.327 N 
ATOM      9  H   UNL     1      -4.589  -8.251  10.164  0.00  0.00    +0.155 HD
ATOM     10  H   UNL     1      -9.472  -5.070  10.953  0.00  0.00    +0.145 HD
ATOM     11  H   UNL     1      -9.296  -3.658   9.687  0.00  0.00    +0.145 HD
ENDROOT
BRANCH   7  12
ATOM     12  C   UNL     1      -6.179  -8.373  11.634  0.00  0.00    +0.034 A 
ATOM     13  C   UNL     1      -6.856  -7.567  12.541  0.00  0.00    +0.025 A 
ATOM     14  C   UNL     1      -7.516  -8.139  13.611  0.00  0.00    +0.022 A 
ATOM     15  C   UNL     1      -7.495  -9.511  13.786  0.00  0.00    +0.041 A 
ATOM     16  C   UNL     1      -6.816 -10.315  12.887  0.00  0.00    +0.022 A 
ATOM     17  C   UNL     1      -6.159  -9.750  11.812  0.00  0.00    +0.025 A 
ATOM     18 CL   UNL     1      -8.320 -10.225  15.136  0.00  0.00    -0.084 Cl
ENDBRANCH   7  12
BRANCH   1  19
ATOM     19  C   UNL     1      -5.038  -4.270   7.328  0.00  0.00    +0.152 C 
BRANCH  19  20
ATOM     20  S   UNL     1      -5.512  -4.958   5.718  0.00  0.00    -0.089 S 
BRANCH  20  25
ATOM     21  N   UNL     1      -2.671  -2.508   1.297  0.00  0.00    -0.322 N 
ATOM     22  C   UNL     1      -3.223  -2.942   2.497  0.00  0.00    +0.182 A 
ATOM     23  N   UNL     1      -2.975  -2.535   3.726  0.00  0.00    -0.125 NA
ATOM     24  N   UNL     1      -3.641  -3.108   4.785  0.00  0.00    -0.133 NA
ATOM     25  C   UNL     1      -4.526  -4.061   4.565  0.00  0.00    +0.160 A 
ATOM     26  S   UNL     1      -4.462  -4.196   2.784  0.00  0.00    -0.025 S 
ATOM     27  H   UNL     1      -2.994  -2.960   0.348  0.00  0.00    +0.148 HD
BRANCH  21  28
ATOM     28  C   UNL     1      -1.660  -1.448   1.297  0.00  0.00    +0.108 C 
BRANCH  28  29
ATOM     29  C   UNL     1      -1.222  -1.161  -0.141  0.00  0.00    +0.061 C 
BRANCH  29  32
ATOM     30  C   UNL     1       1.933   0.972  -0.073  0.00  0.00    +0.008 A 
ATOM     31  C   UNL     1       1.167  -0.178  -0.054  0.00  0.00    +0.011 A 
ATOM     32  C   UNL     1      -0.181  -0.071  -0.141  0.00  0.00    -0.009 A 
ATOM     33  S   UNL     1      -0.405   1.697  -0.254  0.00  0.00    -0.102 S 
ATOM     34  C   UNL     1       1.314   2.174  -0.178  0.00  0.00    +0.045 A 
ENDBRANCH  29  32
ENDBRANCH  28  29
ENDBRANCH  21  28
ENDBRANCH  20  25
ENDBRANCH  19  20
ENDBRANCH   1  19
TORSDOF 7
