REMARK  Name = ZINC36746921
REMARK  4 active torsions:
REMARK  status: ('A' for Active; 'I' for Inactive)
REMARK    1  A    between atoms: C_8  and  N_13
REMARK    2  A    between atoms: N_13  and  C_14
REMARK    3  A    between atoms: C_14  and  C_15
REMARK    4  A    between atoms: C_15  and  C_16
REMARK                            x       y       z     vdW  Elec       q    Type
REMARK                         _______ _______ _______ _____ _____    ______ ____
ROOT
ATOM      1  C   UNL     1      -0.017   1.378   0.010  0.00  0.00    +0.003 A 
ATOM      2  C   UNL     1       1.164   2.092   0.002  0.00  0.00    +0.024 A 
ATOM      3  C   UNL     1       2.386   1.424  -0.013  0.00  0.00    +0.040 A 
ATOM      4  C   UNL     1       2.393   0.034  -0.021  0.00  0.00    +0.014 A 
ATOM      5  C   UNL     1       1.213  -0.676  -0.014  0.00  0.00    +0.025 A 
ATOM      6  C   UNL     1       0.002  -0.004   0.002  0.00  0.00    +0.016 A 
ATOM      7 BR   UNL     1       1.247  -2.567  -0.025  0.00  0.00    -0.050 Br
ATOM      8  C   UNL     1       3.845  -0.384  -0.037  0.00  0.00    +0.174 C 
ATOM      9  C   UNL     1       4.605   0.925  -0.037  0.00  0.00    +0.239 C 
ATOM     10  O   UNL     1       5.811   1.058  -0.047  0.00  0.00    -0.273 OA
ATOM     11  N   UNL     1       3.693   1.912  -0.023  0.00  0.00    -0.284 N 
ATOM     12  H   UNL     1       3.918   2.856  -0.020  0.00  0.00    +0.155 HD
ENDROOT
BRANCH   8  13
ATOM     13  N   UNL     1       4.145  -1.157  -1.250  0.00  0.00    -0.302 NA
ATOM     14  H   UNL     1       3.337  -1.677  -1.556  0.00  0.00    +0.123 HD
BRANCH  13  15
ATOM     15  C   UNL     1       5.294  -2.046  -1.036  0.00  0.00    +0.091 C 
BRANCH  15  16
ATOM     16  C   UNL     1       5.576  -2.832  -2.318  0.00  0.00    +0.110 C 
BRANCH  16  17
ATOM     17  C   UNL     1       6.755  -3.744  -2.100  0.00  0.00    +0.212 C 
ATOM     18  O   UNL     1       7.315  -3.764  -1.024  0.00  0.00    -0.276 OA
ATOM     19  N   UNL     1       7.187  -4.539  -3.099  0.00  0.00    -0.329 N 
ATOM     20  H   UNL     1       6.739  -4.523  -3.959  0.00  0.00    +0.145 HD
ATOM     21  H   UNL     1       7.946  -5.126  -2.959  0.00  0.00    +0.145 HD
ENDBRANCH  16  17
ENDBRANCH  15  16
ENDBRANCH  13  15
ENDBRANCH   8  13
TORSDOF 4
