REMARK  Name = ZINC61633116
REMARK  5 active torsions:
REMARK  status: ('A' for Active; 'I' for Inactive)
REMARK    1  A    between atoms: C_3  and  C_9
REMARK    2  A    between atoms: C_6  and  C_7
REMARK    3  A    between atoms: N_11  and  N_12
REMARK    4  A    between atoms: C_13  and  C_15
REMARK    5  A    between atoms: C_20  and  O_21
REMARK                            x       y       z     vdW  Elec       q    Type
REMARK                         _______ _______ _______ _____ _____    ______ ____
ROOT
ATOM      1  N   UNL     1       6.035   2.232  -0.044  0.00  0.00    -0.230 N 
ATOM      2  C   UNL     1       7.212   1.574  -0.058  0.00  0.00    +0.264 C 
ATOM      3  O   UNL     1       7.228   0.358  -0.065  0.00  0.00    -0.269 OA
ATOM      4  H   UNL     1       6.022   3.202  -0.038  0.00  0.00    +0.173 HD
ENDROOT
BRANCH   2   5
ATOM      5  C   UNL     1       8.479   2.329  -0.066  0.00  0.00    +0.080 A 
ATOM      6  C   UNL     1       8.464   3.726  -0.053  0.00  0.00    +0.018 A 
ATOM      7  C   UNL     1       9.651   4.426  -0.061  0.00  0.00    +0.016 A 
ATOM      8  C   UNL     1      10.861   3.750  -0.082  0.00  0.00    +0.021 A 
ATOM      9  C   UNL     1      10.889   2.368  -0.095  0.00  0.00    +0.061 A 
ATOM     10  C   UNL     1       9.704   1.649  -0.082  0.00  0.00    +0.130 A 
ATOM     11 BR   UNL     1      12.482   4.723  -0.092  0.00  0.00    -0.050 Br
BRANCH  10  12
ATOM     12  O   UNL     1       9.730   0.292  -0.089  0.00  0.00    -0.506 OA
ATOM     13  H   UNL     1       9.729  -0.096  -0.974  0.00  0.00    +0.292 HD
ENDBRANCH  10  12
ENDBRANCH   2   5
BRANCH   1  16
ATOM     14  C   UNL     1       3.656   2.173  -0.021  0.00  0.00    +0.260 C 
ATOM     15  O   UNL     1       3.639   3.388  -0.015  0.00  0.00    -0.269 OA
ATOM     16  N   UNL     1       4.832   1.515  -0.036  0.00  0.00    -0.230 N 
ATOM     17  H   UNL     1       4.845   0.545  -0.041  0.00  0.00    +0.173 HD
BRANCH  14  20
ATOM     18  C   UNL     1      -0.017   1.393   0.010  0.00  0.00    +0.019 A 
ATOM     19  C   UNL     1       1.167   2.097   0.002  0.00  0.00    +0.014 A 
ATOM     20  C   UNL     1       2.385   1.416  -0.013  0.00  0.00    +0.038 A 
ATOM     21  C   UNL     1       2.404   0.019  -0.021  0.00  0.00    +0.014 A 
ATOM     22  C   UNL     1       1.221  -0.686  -0.014  0.00  0.00    +0.019 A 
ATOM     23  C   UNL     1       0.002  -0.004   0.002  0.00  0.00    +0.052 A 
BRANCH  23  24
ATOM     24  C   UNL     1      -1.228  -0.737   0.010  0.00  0.00    +0.099 C 
ATOM     25  N   UNL     1      -2.204  -1.318   0.017  0.00  0.00    -0.191 NA
ENDBRANCH  23  24
ENDBRANCH  14  20
ENDBRANCH   1  16
TORSDOF 5
