REMARK  Name = ZINC36587379
REMARK  16 active torsions:
REMARK  status: ('A' for Active; 'I' for Inactive)
REMARK    1  A    between atoms: C_1  and  C_2
REMARK    2  A    between atoms: C_2  and  C_3
REMARK    3  A    between atoms: C_2  and  C_4
REMARK    4  A    between atoms: C_2  and  N_5
REMARK    5  A    between atoms: N_5  and  C_6
REMARK    6  A    between atoms: C_6  and  C_8
REMARK    7  A    between atoms: C_6  and  C_17
REMARK    8  A    between atoms: C_9  and  O_16
REMARK    9  A    between atoms: C_11  and  O_15
REMARK   10  A    between atoms: C_13  and  O_14
REMARK   11  A    between atoms: N_19  and  C_20
REMARK   12  A    between atoms: C_26  and  C_28
REMARK   13  A    between atoms: C_28  and  C_29
REMARK   14  A    between atoms: C_29  and  C_30
REMARK   15  A    between atoms: C_33  and  O_36
REMARK   16  A    between atoms: O_36  and  C_37
REMARK                            x       y       z     vdW  Elec       q    Type
REMARK                         _______ _______ _______ _____ _____    ______ ____
ROOT
ATOM      1  C   UNL     1       2.281   0.267  -1.403  0.00  0.00    +0.200 C 
ENDROOT
BRANCH   1   2
ATOM      2  C   UNL     1       1.812   1.541  -0.751  0.00  0.00    +0.065 A 
ATOM      3  C   UNL     1       1.195   1.498   0.491  0.00  0.00    +0.129 A 
ATOM      4  C   UNL     1       0.762   2.670   1.091  0.00  0.00    +0.091 A 
ATOM      5  C   UNL     1       0.947   3.887   0.451  0.00  0.00    +0.124 A 
ATOM      6  C   UNL     1       1.565   3.930  -0.790  0.00  0.00    +0.091 A 
ATOM      7  C   UNL     1       2.001   2.758  -1.388  0.00  0.00    +0.129 A 
BRANCH   7   8
ATOM      8  O   UNL     1       2.611   2.801  -2.602  0.00  0.00    -0.506 OA
ATOM      9  H   UNL     1       2.003   2.728  -3.350  0.00  0.00    +0.292 HD
ENDBRANCH   7   8
BRANCH   5  10
ATOM     10  O   UNL     1       0.523   5.036   1.040  0.00  0.00    -0.507 OA
ATOM     11  H   UNL     1       1.185   5.456   1.604  0.00  0.00    +0.292 HD
ENDBRANCH   5  10
BRANCH   3  12
ATOM     12  O   UNL     1       1.013   0.306   1.118  0.00  0.00    -0.506 OA
ATOM     13  H   UNL     1       1.708   0.087   1.754  0.00  0.00    +0.292 HD
ENDBRANCH   3  12
ENDBRANCH   1   2
BRANCH   1  14
ATOM     14  C   UNL     1       3.116  -0.520  -0.426  0.00  0.00    +0.239 C 
ATOM     15  O   UNL     1       2.641  -1.484   0.138  0.00  0.00    -0.273 OA
ATOM     16  N   UNL     1       4.389  -0.154  -0.178  0.00  0.00    -0.311 N 
ATOM     17  H   UNL     1       4.768   0.617  -0.630  0.00  0.00    +0.149 HD
BRANCH  16  18
ATOM     18  C   UNL     1       5.200  -0.919   0.772  0.00  0.00    +0.073 C 
ATOM     19  C   UNL     1       4.934  -0.415   2.191  0.00  0.00    +0.022 C 
ATOM     20  C   UNL     1       5.780  -1.214   3.184  0.00  0.00    +0.002 C 
ATOM     21  C   UNL     1       7.263  -1.036   2.849  0.00  0.00    +0.000 C 
ATOM     22  C   UNL     1       7.529  -1.540   1.429  0.00  0.00    +0.002 C 
ATOM     23  C   UNL     1       6.682  -0.741   0.437  0.00  0.00    +0.022 C 
ENDBRANCH  16  18
ENDBRANCH   1  14
BRANCH   1  24
ATOM     24  N   UNL     1       1.121  -0.531  -1.809  0.00  0.00    -0.281 N 
ATOM     25  C   UNL     1      -0.125  -0.077  -1.571  0.00  0.00    +0.217 C 
ATOM     26  O   UNL     1      -0.291   1.051  -1.155  0.00  0.00    -0.276 OA
BRANCH  24  28
ATOM     27  C   UNL     1       2.810  -2.148  -2.526  0.00  0.00    +0.031 C 
ATOM     28  C   UNL     1       1.316  -1.822  -2.473  0.00  0.00    +0.030 C 
ATOM     29  C   UNL     1       0.758  -1.753  -3.896  0.00  0.00    +0.031 C 
ATOM     30  C   UNL     1       0.584  -2.914  -1.690  0.00  0.00    +0.031 C 
ENDBRANCH  24  28
BRANCH  25  31
ATOM     31  C   UNL     1      -1.313  -0.970  -1.821  0.00  0.00    +0.100 C 
BRANCH  31  32
ATOM     32  C   UNL     1      -2.579  -0.117  -1.921  0.00  0.00    +0.044 C 
BRANCH  32  33
ATOM     33  C   UNL     1      -3.767  -1.010  -2.171  0.00  0.00    -0.047 A 
ATOM     34  C   UNL     1      -4.141  -1.315  -3.467  0.00  0.00    +0.007 A 
ATOM     35  C   UNL     1      -5.230  -2.134  -3.698  0.00  0.00    +0.046 A 
ATOM     36  C   UNL     1      -5.948  -2.650  -2.630  0.00  0.00    +0.120 A 
ATOM     37  C   UNL     1      -5.571  -2.342  -1.330  0.00  0.00    +0.046 A 
ATOM     38  C   UNL     1      -4.478  -1.528  -1.104  0.00  0.00    +0.007 A 
BRANCH  36  39
ATOM     39  O   UNL     1      -7.020  -3.454  -2.855  0.00  0.00    -0.495 OA
ATOM     40  C   UNL     1      -7.712  -3.949  -1.707  0.00  0.00    +0.277 C 
ENDBRANCH  36  39
ENDBRANCH  32  33
ENDBRANCH  31  32
ENDBRANCH  25  31
ENDBRANCH   1  24
TORSDOF 12
