REMARK  Name = ZINC67207052
REMARK  9 active torsions:
REMARK  status: ('A' for Active; 'I' for Inactive)
REMARK    1  A    between atoms: C_1  and  O_2
REMARK    2  A    between atoms: O_2  and  C_3
REMARK    3  A    between atoms: C_5  and  C_13
REMARK    4  A    between atoms: C_7  and  N_10
REMARK    5  A    between atoms: C_8  and  O_9
REMARK    6  A    between atoms: C_15  and  C_27
REMARK    7  A    between atoms: C_17  and  C_22
REMARK    8  A    between atoms: C_17  and  O_26
REMARK    9  A    between atoms: C_27  and  C_29
REMARK                            x       y       z     vdW  Elec       q    Type
REMARK                         _______ _______ _______ _____ _____    ______ ____
ROOT
ATOM      1  C   UNL     1       1.972   0.563  -4.246  0.00  0.00    +0.118 C 
ATOM      2  C   UNL     1       1.390   0.683  -5.658  0.00  0.00    +0.144 C 
ATOM      3  C   UNL     1       2.488   1.193  -6.597  0.00  0.00    +0.241 C 
ATOM      4  N   UNL     1       3.646   0.302  -6.510  0.00  0.00    -0.291 N 
ATOM      5  C   UNL     1       3.921  -0.377  -5.386  0.00  0.00    +0.133 C 
ATOM      6  S   UNL     1       5.302  -1.388  -5.354  0.00  0.00    -0.019 S 
ATOM      7  N   UNL     1       3.159  -0.293  -4.285  0.00  0.00    -0.319 N 
ATOM      8  H   UNL     1       4.226   0.200  -7.281  0.00  0.00    +0.151 HD
ATOM      9  H   UNL     1       3.398  -0.810  -3.500  0.00  0.00    +0.148 HD
ENDROOT
BRANCH   1  12
ATOM     10  C   UNL     1      -0.826   0.218  -1.731  0.00  0.00    +0.164 A 
ATOM     11  C   UNL     1       0.120   0.774  -2.577  0.00  0.00    +0.055 A 
ATOM     12  C   UNL     1       0.944  -0.044  -3.327  0.00  0.00    -0.021 A 
ATOM     13  C   UNL     1       0.826  -1.419  -3.236  0.00  0.00    +0.042 A 
ATOM     14  C   UNL     1      -0.116  -1.980  -2.394  0.00  0.00    +0.171 A 
ATOM     15  C   UNL     1      -0.941  -1.166  -1.635  0.00  0.00    +0.189 A 
BRANCH  14  16
ATOM     16  N   UNL     1      -0.239  -3.452  -2.299  0.00  0.00    +0.060 N 
ATOM     17  O   UNL     1       0.484  -4.163  -2.957  0.00  0.00    -0.126 OA
ATOM     18  O   UNL     1      -1.063  -3.944  -1.563  0.00  0.00    -0.126 OA
ENDBRANCH  14  16
BRANCH  10  20
ATOM     19  C   UNL     1      -1.463   2.432  -1.142  0.00  0.00    +0.277 C 
ATOM     20  O   UNL     1      -1.637   1.022  -0.993  0.00  0.00    -0.491 OA
ENDBRANCH  10  20
BRANCH  15  21
ATOM     21  O   UNL     1      -1.864  -1.717  -0.803  0.00  0.00    -0.502 OA
ATOM     22  H   UNL     1      -2.724  -1.873  -1.217  0.00  0.00    +0.292 HD
ENDBRANCH  15  21
ENDBRANCH   1  12
BRANCH   3  23
ATOM     23  C   UNL     1       1.964   1.211  -8.034  0.00  0.00    +0.436 C 
ATOM     24  F   UNL     1       0.777   1.949  -8.089  0.00  0.00    -0.166 F 
ATOM     25  F   UNL     1       2.918   1.800  -8.871  0.00  0.00    -0.166 F 
ATOM     26  F   UNL     1       1.718  -0.099  -8.458  0.00  0.00    -0.166 F 
ENDBRANCH   3  23
BRANCH   3  27
ATOM     27  O   UNL     1       2.871   2.514  -6.210  0.00  0.00    -0.364 OA
ATOM     28  H   UNL     1       3.564   2.900  -6.763  0.00  0.00    +0.212 HD
ENDBRANCH   3  27
BRANCH   2  29
ATOM     29  C   UNL     1       0.908  -0.668  -6.123  0.00  0.00    +0.173 C 
ATOM     30  O   UNL     1       1.695  -1.581  -6.250  0.00  0.00    -0.292 OA
BRANCH  29  31
ATOM     31  C   UNL     1      -0.517  -0.877  -6.422  0.00  0.00    +0.018 A 
ATOM     32  C   UNL     1      -1.446   0.137  -6.168  0.00  0.00    +0.011 A 
ATOM     33  C   UNL     1      -2.780  -0.067  -6.451  0.00  0.00    +0.001 A 
ATOM     34  C   UNL     1      -3.201  -1.272  -6.986  0.00  0.00    +0.000 A 
ATOM     35  C   UNL     1      -2.288  -2.281  -7.240  0.00  0.00    +0.001 A 
ATOM     36  C   UNL     1      -0.950  -2.091  -6.967  0.00  0.00    +0.011 A 
ENDBRANCH  29  31
ENDBRANCH   2  29
TORSDOF 8
