REMARK  Name = ZINC63686508
REMARK  8 active torsions:
REMARK  status: ('A' for Active; 'I' for Inactive)
REMARK    1  A    between atoms: C_1  and  C_2
REMARK    2  A    between atoms: C_5  and  C_8
REMARK    3  A    between atoms: N_10  and  C_11
REMARK    4  A    between atoms: C_15  and  S_17
REMARK    5  A    between atoms: S_17  and  C_18
REMARK    6  A    between atoms: C_18  and  C_19
REMARK    7  A    between atoms: C_23  and  C_31
REMARK    8  A    between atoms: C_25  and  C_30
REMARK                            x       y       z     vdW  Elec       q    Type
REMARK                         _______ _______ _______ _____ _____    ______ ____
ROOT
ATOM      1  C   UNL     1       1.459  -6.211  -0.064  0.00  0.00    +0.242 C 
ATOM      2  N   UNL     1       1.049  -6.548   1.318  0.00  0.00    -0.237 N 
ATOM      3  N   UNL     1       1.924  -7.357   2.009  0.00  0.00    -0.171 NA
ATOM      4  C   UNL     1       3.033  -7.802   1.503  0.00  0.00    +0.152 C 
ATOM      5  S   UNL     1       3.056  -7.122  -0.150  0.00  0.00    -0.054 S 
ATOM      6  H   UNL     1       0.224  -6.222   1.709  0.00  0.00    +0.171 HD
ENDROOT
BRANCH   1   9
ATOM      7  C   UNL     1       1.819  -4.242  -1.454  0.00  0.00    +0.246 C 
ATOM      8  O   UNL     1       1.796  -4.964  -2.432  0.00  0.00    -0.270 OA
ATOM      9  N   UNL     1       1.660  -4.768  -0.224  0.00  0.00    -0.283 N 
ATOM     10  H   UNL     1       1.678  -4.192   0.556  0.00  0.00    +0.152 HD
BRANCH   7  15
ATOM     11  C   UNL     1       2.604   1.424  -2.081  0.00  0.00    +0.044 C 
ATOM     12  C   UNL     1       2.399  -0.060  -1.917  0.00  0.00    -0.050 A 
ATOM     13  C   UNL     1       2.374  -0.879  -3.031  0.00  0.00    +0.004 A 
ATOM     14  C   UNL     1       2.186  -2.238  -2.888  0.00  0.00    +0.013 A 
ATOM     15  C   UNL     1       2.021  -2.786  -1.615  0.00  0.00    +0.037 A 
ATOM     16  C   UNL     1       2.047  -1.954  -0.495  0.00  0.00    +0.013 A 
ATOM     17  C   UNL     1       2.241  -0.597  -0.652  0.00  0.00    +0.004 A 
ENDBRANCH   7  15
ENDBRANCH   1   9
BRANCH   4  18
ATOM     18  S   UNL     1       4.237  -8.837   2.267  0.00  0.00    -0.091 S 
BRANCH  18  19
ATOM     19  C   UNL     1       3.567  -9.137   3.926  0.00  0.00    +0.129 C 
BRANCH  19  20
ATOM     20  C   UNL     1       4.512 -10.022   4.697  0.00  0.00    +0.030 A 
ATOM     21  N   UNL     1       4.564 -11.342   4.393  0.00  0.00    -0.357 N 
ATOM     22  C   UNL     1       5.405 -12.204   5.060  0.00  0.00    +0.051 A 
ATOM     23  C   UNL     1       5.450 -13.558   4.740  0.00  0.00    +0.029 A 
ATOM     24  C   UNL     1       6.304 -14.393   5.426  0.00  0.00    -0.048 A 
ATOM     25  C   UNL     1       7.121 -13.900   6.434  0.00  0.00    +0.007 A 
ATOM     26  C   UNL     1       7.092 -12.573   6.764  0.00  0.00    -0.037 A 
ATOM     27  C   UNL     1       6.235 -11.710   6.082  0.00  0.00    +0.048 A 
ATOM     28  C   UNL     1       6.173 -10.274   6.404  0.00  0.00    +0.190 A 
ATOM     29  O   UNL     1       6.872  -9.794   7.282  0.00  0.00    -0.287 OA
ATOM     30  C   UNL     1       5.279  -9.469   5.659  0.00  0.00    +0.073 A 
ATOM     31  C   UNL     1       7.982 -12.047   7.860  0.00  0.00    +0.044 C 
ATOM     32  C   UNL     1       6.351 -15.859   5.079  0.00  0.00    +0.044 C 
ATOM     33  H   UNL     1       3.993 -11.688   3.689  0.00  0.00    +0.166 HD
ENDBRANCH  19  20
ENDBRANCH  18  19
ENDBRANCH   4  18
TORSDOF 5
