REMARK  Name = ZINC20696077
REMARK  6 active torsions:
REMARK  status: ('A' for Active; 'I' for Inactive)
REMARK    1  A    between atoms: C_4  and  C_7
REMARK    2  A    between atoms: C_7  and  N_8
REMARK    3  A    between atoms: N_8  and  S_9
REMARK    4  A    between atoms: S_9  and  C_12
REMARK    5  A    between atoms: C_25  and  C_28
REMARK    6  A    between atoms: C_33  and  O_34
REMARK                            x       y       z     vdW  Elec       q    Type
REMARK                         _______ _______ _______ _____ _____    ______ ____
ROOT
ATOM      1  C   UNL     1      -0.190   5.266   0.340  0.00  0.00    +0.106 A 
ATOM      2  C   UNL     1       0.510   4.073   0.361  0.00  0.00    +0.030 A 
ATOM      3  C   UNL     1      -0.176   2.877   0.292  0.00  0.00    +0.025 A 
ATOM      4  C   UNL     1      -1.562   2.875   0.194  0.00  0.00    +0.031 A 
ATOM      5  C   UNL     1      -2.268   4.068   0.180  0.00  0.00    -0.018 A 
ATOM      6  C   UNL     1      -1.567   5.264   0.250  0.00  0.00    +0.034 A 
ATOM      7  C   UNL     1      -3.760   4.114   0.087  0.00  0.00    +0.049 C 
ATOM      8  C   UNL     1      -4.205   4.530  -1.308  0.00  0.00    -0.023 C 
ATOM      9  C   UNL     1      -5.294   3.884  -1.646  0.00  0.00    -0.030 C 
ATOM     10  C   UNL     1      -5.726   2.951  -0.532  0.00  0.00    +0.033 C 
ATOM     11  C   UNL     1      -4.419   2.738   0.287  0.00  0.00    +0.029 C 
ATOM     12  C   UNL     1      -3.607   1.653  -0.424  0.00  0.00    +0.108 C 
ATOM     13  N   UNL     1      -2.241   1.654   0.111  0.00  0.00    -0.336 N 
ATOM     14  H   UNL     1      -1.777   0.712   0.436  0.00  0.00    +0.147 HD
ENDROOT
BRANCH  12  15
ATOM     15  C   UNL     1      -3.569   1.939  -1.904  0.00  0.00    +0.015 A 
ATOM     16  C   UNL     1      -2.621   2.803  -2.417  0.00  0.00    +0.024 A 
ATOM     17  C   UNL     1      -2.586   3.067  -3.774  0.00  0.00    +0.018 A 
ATOM     18  C   UNL     1      -3.500   2.466  -4.621  0.00  0.00    +0.019 A 
ATOM     19  C   UNL     1      -4.449   1.601  -4.112  0.00  0.00    +0.047 A 
ATOM     20  C   UNL     1      -4.482   1.331  -2.752  0.00  0.00    +0.122 A 
ATOM     21 BR   UNL     1      -1.288   4.251  -4.473  0.00  0.00    -0.050 Br
BRANCH  20  22
ATOM     22  O   UNL     1      -5.412   0.476  -2.250  0.00  0.00    -0.506 OA
ATOM     23  H   UNL     1      -6.136  -0.006  -2.923  0.00  0.00    +0.292 HD
ENDBRANCH  20  22
ENDBRANCH  12  15
BRANCH   1  24
ATOM     24  S   UNL     1       0.681   6.795   0.428  0.00  0.00    +0.059 S 
ATOM     25  O   UNL     1      -0.234   7.755   0.940  0.00  0.00    -0.153 OA
ATOM     26  O   UNL     1       1.925   6.519   1.056  0.00  0.00    -0.153 OA
BRANCH  24  27
ATOM     27  N   UNL     1       1.026   7.253  -1.125  0.00  0.00    -0.186 NA
ATOM     28  H   UNL     1       2.055   7.146  -1.501  0.00  0.00    +0.148 HD
BRANCH  27  29
ATOM     29  C   UNL     1      -0.060   7.584  -2.050  0.00  0.00    +0.141 C 
BRANCH  29  33
ATOM     30  C   UNL     1       1.531   9.635  -5.442  0.00  0.00    +0.000 A 
ATOM     31  C   UNL     1       1.431   8.256  -5.453  0.00  0.00    +0.000 A 
ATOM     32  C   UNL     1       0.915   7.593  -4.355  0.00  0.00    +0.005 A 
ATOM     33  C   UNL     1       0.501   8.308  -3.247  0.00  0.00    -0.032 A 
ATOM     34  C   UNL     1       0.597   9.687  -3.238  0.00  0.00    +0.005 A 
ATOM     35  C   UNL     1       1.117  10.350  -4.334  0.00  0.00    +0.000 A 
ENDBRANCH  29  33
ENDBRANCH  27  29
ENDBRANCH  24  27
ENDBRANCH   1  24
TORSDOF 6
