REMARK  Name = ZINC02946821
REMARK  6 active torsions:
REMARK  status: ('A' for Active; 'I' for Inactive)
REMARK    1  A    between atoms: C_6  and  N_7
REMARK    2  A    between atoms: C_12  and  O_14
REMARK    3  A    between atoms: O_14  and  C_15
REMARK    4  A    between atoms: C_15  and  C_16
REMARK    5  A    between atoms: C_15  and  C_20
REMARK    6  A    between atoms: N_24  and  N_25
REMARK                            x       y       z     vdW  Elec       q    Type
REMARK                         _______ _______ _______ _____ _____    ______ ____
ROOT
ATOM      1  N   UNL     1       1.161   3.485   0.009  0.00  0.00    -0.283 N 
ATOM      2  C   UNL     1       2.346   4.189   0.106  0.00  0.00    +0.227 A 
ATOM      3  N   UNL     1       3.507   3.541   0.098  0.00  0.00    -0.180 NA
ATOM      4  C   UNL     1       4.646   4.219   0.186  0.00  0.00    +0.236 A 
ATOM      5  N   UNL     1       4.624   5.545   0.293  0.00  0.00    -0.160 NA
ATOM      6  C   UNL     1       3.464   6.190   0.306  0.00  0.00    +0.325 A 
ATOM      7  N   UNL     1       2.326   5.514   0.213  0.00  0.00    -0.161 NA
ATOM      8  N   UNL     1       5.852   3.548   0.172  0.00  0.00    -0.251 N 
ATOM      9  H   UNL     1       0.314   3.947   0.101  0.00  0.00    +0.155 HD
ATOM     10  H   UNL     1       5.868   2.582   0.094  0.00  0.00    +0.169 HD
ENDROOT
BRANCH   1  16
ATOM     11  C   UNL     1       0.254   1.281   0.398  0.00  0.00    +0.024 A 
ATOM     12  C   UNL     1       0.278  -0.081   0.169  0.00  0.00    +0.017 A 
ATOM     13  C   UNL     1       1.229  -0.624  -0.678  0.00  0.00    +0.018 A 
ATOM     14  C   UNL     1       2.157   0.195  -1.296  0.00  0.00    +0.017 A 
ATOM     15  C   UNL     1       2.137   1.558  -1.071  0.00  0.00    +0.024 A 
ATOM     16  C   UNL     1       1.184   2.106  -0.221  0.00  0.00    +0.034 A 
ATOM     17 BR   UNL     1       1.260  -2.489  -0.989  0.00  0.00    -0.050 Br
ENDBRANCH   1  16
BRANCH   8  18
ATOM     18  N   UNL     1       7.023   4.245   0.268  0.00  0.00    -0.254 NA
ATOM     19  H   UNL     1       7.817   3.623   0.244  0.00  0.00    +0.140 HD
ATOM     20  H   UNL     1       7.088   4.944  -0.458  0.00  0.00    +0.140 HD
ENDBRANCH   8  18
BRANCH   6  21
ATOM     21  O   UNL     1       3.442   7.539   0.415  0.00  0.00    -0.441 OA
BRANCH  21  22
ATOM     22  C   UNL     1       4.704   8.203   0.512  0.00  0.00    +0.383 C 
BRANCH  22  23
ATOM     23  C   UNL     1       4.594   9.600  -0.102  0.00  0.00    +0.435 C 
ATOM     24  F   UNL     1       3.626  10.337   0.587  0.00  0.00    -0.166 F 
ATOM     25  F   UNL     1       5.830  10.249  -0.008  0.00  0.00    -0.166 F 
ATOM     26  F   UNL     1       4.227   9.490  -1.448  0.00  0.00    -0.166 F 
ENDBRANCH  22  23
BRANCH  22  27
ATOM     27  C   UNL     1       5.106   8.322   1.983  0.00  0.00    +0.435 C 
ATOM     28  F   UNL     1       5.207   7.045   2.545  0.00  0.00    -0.166 F 
ATOM     29  F   UNL     1       6.341   8.972   2.078  0.00  0.00    -0.166 F 
ATOM     30  F   UNL     1       4.137   9.060   2.673  0.00  0.00    -0.166 F 
ENDBRANCH  22  27
ENDBRANCH  21  22
ENDBRANCH   6  21
TORSDOF 6
