REMARK  Name = ZINC63266692
REMARK  7 active torsions:
REMARK  status: ('A' for Active; 'I' for Inactive)
REMARK    1  A    between atoms: C_7  and  C_10
REMARK    2  A    between atoms: C_10  and  C_11
REMARK    3  A    between atoms: C_11  and  C_13
REMARK    4  A    between atoms: C_11  and  N_28
REMARK    5  A    between atoms: N_15  and  N_16
REMARK    6  A    between atoms: N_19  and  C_20
REMARK    7  A    between atoms: C_29  and  C_31
REMARK                            x       y       z     vdW  Elec       q    Type
REMARK                         _______ _______ _______ _____ _____    ______ ____
ROOT
ATOM      1  C   UNL     1       0.458  -3.655  -1.429  0.00  0.00    +0.165 C 
ENDROOT
BRANCH   1   2
ATOM      2  C   UNL     1      -0.577  -4.750  -1.449  0.00  0.00    +0.250 C 
ATOM      3  O   UNL     1      -0.230  -5.910  -1.528  0.00  0.00    -0.272 OA
ATOM      4  N   UNL     1      -1.887  -4.441  -1.379  0.00  0.00    -0.232 N 
ATOM      5  H   UNL     1      -2.164  -3.514  -1.316  0.00  0.00    +0.173 HD
BRANCH   4   6
ATOM      6  N   UNL     1      -2.848  -5.460  -1.398  0.00  0.00    -0.218 N 
ATOM      7  C   UNL     1      -4.158  -5.151  -1.328  0.00  0.00    +0.320 C 
ATOM      8  O   UNL     1      -4.993  -6.035  -1.344  0.00  0.00    -0.251 OA
ATOM      9  N   UNL     1      -4.543  -3.863  -1.240  0.00  0.00    -0.268 N 
ATOM     10  H   UNL     1      -2.571  -6.388  -1.461  0.00  0.00    +0.174 HD
ATOM     11  H   UNL     1      -3.877  -3.162  -1.160  0.00  0.00    +0.156 HD
BRANCH   9  12
ATOM     12  C   UNL     1      -5.904  -3.535  -1.266  0.00  0.00    +0.036 A 
ATOM     13  C   UNL     1      -6.327  -2.368  -1.888  0.00  0.00    +0.025 A 
ATOM     14  C   UNL     1      -7.670  -2.047  -1.912  0.00  0.00    +0.023 A 
ATOM     15  C   UNL     1      -8.595  -2.887  -1.317  0.00  0.00    +0.059 A 
ATOM     16  C   UNL     1      -8.176  -4.051  -0.696  0.00  0.00    +0.061 A 
ATOM     17  C   UNL     1      -6.834  -4.380  -0.674  0.00  0.00    +0.044 A 
ATOM     18 CL   UNL     1      -9.339  -5.103   0.050  0.00  0.00    -0.082 Cl
ATOM     19 CL   UNL     1     -10.282  -2.480  -1.349  0.00  0.00    -0.082 Cl
ENDBRANCH   9  12
ENDBRANCH   4   6
ENDBRANCH   1   2
BRANCH   1  20
ATOM     20  N   UNL     1       1.717  -4.161  -1.982  0.00  0.00    -0.299 N 
ATOM     21  C   UNL     1       2.337  -5.205  -1.398  0.00  0.00    +0.251 C 
ATOM     22  O   UNL     1       1.852  -5.727  -0.411  0.00  0.00    -0.270 OA
ATOM     23  H   UNL     1       2.103  -3.745  -2.768  0.00  0.00    +0.150 HD
BRANCH  21  24
ATOM     24  C   UNL     1       3.596  -5.712  -1.950  0.00  0.00    +0.074 A 
ATOM     25  C   UNL     1       4.383  -6.766  -1.510  0.00  0.00    +0.021 A 
ATOM     26  C   UNL     1       5.521  -7.008  -2.241  0.00  0.00    +0.008 A 
ATOM     27  C   UNL     1       5.795  -6.224  -3.313  0.00  0.00    +0.046 A 
ATOM     28  S   UNL     1       4.512  -5.140  -3.368  0.00  0.00    -0.092 S 
ENDBRANCH  21  24
ENDBRANCH   1  20
BRANCH   1  29
ATOM     29  C   UNL     1       0.683  -3.192   0.011  0.00  0.00    +0.065 C 
BRANCH  29  36
ATOM     30  C   UNL     1      -0.022   1.342   0.056  0.00  0.00    +0.001 A 
ATOM     31  C   UNL     1       1.160   2.095   0.058  0.00  0.00    +0.002 A 
ATOM     32  C   UNL     1       2.385   1.528   0.049  0.00  0.00    +0.026 A 
ATOM     33  C   UNL     1       2.522   0.113   0.036  0.00  0.00    +0.043 A 
ATOM     34  N   UNL     1       3.580  -0.661   0.025  0.00  0.00    -0.380 N 
ATOM     35  C   UNL     1       3.136  -2.060   0.014  0.00  0.00    +0.144 C 
ATOM     36  C   UNL     1       1.624  -2.015   0.020  0.00  0.00    -0.039 C 
ATOM     37  C   UNL     1       1.288  -0.705   0.033  0.00  0.00    -0.001 A 
ATOM     38  C   UNL     1      -0.004  -0.010   0.044  0.00  0.00    +0.010 A 
ATOM     39  H   UNL     1       4.502  -0.360   0.024  0.00  0.00    +0.160 HD
ENDBRANCH  29  36
ENDBRANCH   1  29
TORSDOF 7
