REMARK  Name = ZINC16400842
REMARK  5 active torsions:
REMARK  status: ('A' for Active; 'I' for Inactive)
REMARK    1  A    between atoms: C_6  and  C_7
REMARK    2  A    between atoms: N_9  and  C_10
REMARK    3  A    between atoms: C_10  and  N_12
REMARK    4  A    between atoms: N_12  and  C_13
REMARK    5  A    between atoms: C_14  and  C_21
REMARK                            x       y       z     vdW  Elec       q    Type
REMARK                         _______ _______ _______ _____ _____    ______ ____
ROOT
ATOM      1  N   UNL     1       2.323   0.998  -0.015  0.00  0.00    -0.291 N 
ATOM      2  H   UNL     1       2.336   0.028  -0.020  0.00  0.00    +0.154 HD
ENDROOT
BRANCH   1   3
ATOM      3  C   UNL     1       3.513   1.707  -0.022  0.00  0.00    +0.084 A 
ATOM      4  C   UNL     1       4.808   1.215  -0.032  0.00  0.00    +0.068 A 
ATOM      5  C   UNL     1       5.901   2.187  -0.042  0.00  0.00    -0.023 A 
ATOM      6  C   UNL     1       5.519   3.476  -0.032  0.00  0.00    -0.004 A 
ATOM      7  S   UNL     1       3.744   3.422  -0.015  0.00  0.00    -0.077 S 
ATOM      8  C   UNL     1       6.696   4.414  -0.041  0.00  0.00    +0.043 C 
ATOM      9  C   UNL     1       7.886   3.540  -0.495  0.00  0.00    +0.010 C 
ATOM     10  C   UNL     1       7.429   2.134  -0.055  0.00  0.00    +0.037 C 
BRANCH   4  11
ATOM     11  C   UNL     1       5.073  -0.227  -0.035  0.00  0.00    +0.244 C 
ATOM     12  O   UNL     1       5.176  -0.824  -1.091  0.00  0.00    -0.270 OA
ATOM     13  N   UNL     1       5.202  -0.891   1.130  0.00  0.00    -0.325 N 
ATOM     14  H   UNL     1       5.120  -0.415   1.971  0.00  0.00    +0.145 HD
ATOM     15  H   UNL     1       5.378  -1.845   1.128  0.00  0.00    +0.145 HD
ENDBRANCH   4  11
ENDBRANCH   1   3
BRANCH   1  16
ATOM     16  C   UNL     1       1.147   1.655   0.000  0.00  0.00    +0.141 C 
ATOM     17  S   UNL     1       1.124   3.367   0.009  0.00  0.00    -0.018 S 
BRANCH  16  20
ATOM     18  C   UNL     1      -1.187   1.624   0.017  0.00  0.00    +0.250 C 
ATOM     19  O   UNL     1      -1.204   2.839   0.023  0.00  0.00    -0.270 OA
ATOM     20  N   UNL     1      -0.011   0.966   0.007  0.00  0.00    -0.264 N 
ATOM     21  H   UNL     1       0.002  -0.004   0.002  0.00  0.00    +0.157 HD
BRANCH  18  27
ATOM     22  C   UNL     1      -2.441  -0.528   0.005  0.00  0.00    +0.014 A 
ATOM     23  C   UNL     1      -3.629  -1.228   0.013  0.00  0.00    +0.016 A 
ATOM     24  C   UNL     1      -4.836  -0.549   0.021  0.00  0.00    +0.018 A 
ATOM     25  C   UNL     1      -4.858   0.835   0.029  0.00  0.00    +0.016 A 
ATOM     26  C   UNL     1      -3.677   1.547   0.028  0.00  0.00    +0.014 A 
ATOM     27  C   UNL     1      -2.457   0.868   0.018  0.00  0.00    +0.037 A 
ATOM     28 BR   UNL     1      -6.461  -1.517   0.024  0.00  0.00    -0.050 Br
ENDBRANCH  18  27
ENDBRANCH  16  20
ENDBRANCH   1  16
TORSDOF 5
