REMARK  Name = ZINC13058972
REMARK  7 active torsions:
REMARK  status: ('A' for Active; 'I' for Inactive)
REMARK    1  A    between atoms: C_1  and  C_2
REMARK    2  A    between atoms: C_9  and  N_14
REMARK    3  A    between atoms: C_10  and  C_11
REMARK    4  A    between atoms: N_14  and  S_15
REMARK    5  A    between atoms: S_15  and  C_18
REMARK    6  A    between atoms: C_23  and  O_24
REMARK    7  A    between atoms: O_24  and  C_25
REMARK                            x       y       z     vdW  Elec       q    Type
REMARK                         _______ _______ _______ _____ _____    ______ ____
ROOT
ATOM      1  C   UNL     1      -2.676  -3.815  -2.418  0.00  0.00    +0.008 C 
ATOM      2  C   UNL     1      -2.239  -2.381  -2.725  0.00  0.00    -0.009 C 
ATOM      3  C   UNL     1      -3.339  -1.666  -3.514  0.00  0.00    +0.008 C 
ATOM      4  C   UNL     1      -2.819  -0.326  -4.036  0.00  0.00    +0.037 C 
ATOM      5  C   UNL     1      -2.223   0.456  -2.872  0.00  0.00    -0.023 A 
ATOM      6  C   UNL     1      -1.875  -0.163  -1.724  0.00  0.00    -0.004 A 
ATOM      7  S   UNL     1      -1.243   1.125  -0.687  0.00  0.00    -0.076 S 
ATOM      8  C   UNL     1      -1.436   2.470  -1.762  0.00  0.00    +0.098 A 
ATOM      9  C   UNL     1      -1.990   1.891  -2.897  0.00  0.00    +0.069 A 
ATOM     10  C   UNL     1      -2.002  -1.623  -1.411  0.00  0.00    +0.046 C 
ENDROOT
BRANCH   9  11
ATOM     11  C   UNL     1      -2.325   2.695  -4.074  0.00  0.00    +0.244 C 
ATOM     12  O   UNL     1      -1.498   2.863  -4.951  0.00  0.00    -0.270 OA
ATOM     13  N   UNL     1      -3.549   3.249  -4.186  0.00  0.00    -0.325 N 
ATOM     14  H   UNL     1      -4.208   3.115  -3.487  0.00  0.00    +0.145 HD
ATOM     15  H   UNL     1      -3.770   3.781  -4.966  0.00  0.00    +0.145 HD
ENDBRANCH   9  11
BRANCH   8  16
ATOM     16  N   UNL     1      -1.120   3.797  -1.542  0.00  0.00    -0.209 N 
ATOM     17  H   UNL     1      -1.352   4.467  -2.204  0.00  0.00    +0.174 HD
BRANCH  16  18
ATOM     18  S   UNL     1      -0.346   4.244  -0.148  0.00  0.00    +0.076 S 
ATOM     19  O   UNL     1      -1.080   3.671   0.925  0.00  0.00    -0.150 OA
ATOM     20  O   UNL     1      -0.106   5.641  -0.247  0.00  0.00    -0.150 OA
BRANCH  18  21
ATOM     21  C   UNL     1       1.232   3.461  -0.154  0.00  0.00    +0.150 A 
ATOM     22  C   UNL     1       1.539   2.517   0.807  0.00  0.00    +0.032 A 
ATOM     23  C   UNL     1       2.779   1.906   0.806  0.00  0.00    +0.002 A 
ATOM     24  C   UNL     1       3.713   2.233  -0.160  0.00  0.00    +0.004 A 
ATOM     25  C   UNL     1       3.409   3.172  -1.126  0.00  0.00    +0.047 A 
ATOM     26  C   UNL     1       2.165   3.787  -1.127  0.00  0.00    +0.147 A 
BRANCH  26  27
ATOM     27  O   UNL     1       1.863   4.710  -2.077  0.00  0.00    -0.493 OA
ATOM     28  C   UNL     1       2.827   4.915  -3.113  0.00  0.00    +0.277 C 
ENDBRANCH  26  27
ENDBRANCH  18  21
ENDBRANCH  16  18
ENDBRANCH   8  16
TORSDOF 5
