REMARK  Name = ZINC21318036
REMARK  7 active torsions:
REMARK  status: ('A' for Active; 'I' for Inactive)
REMARK    1  A    between atoms: C_3  and  C_6
REMARK    2  A    between atoms: N_7  and  N_8
REMARK    3  A    between atoms: C_12  and  S_15
REMARK    4  A    between atoms: N_13  and  N_14
REMARK    5  A    between atoms: S_15  and  C_16
REMARK    6  A    between atoms: C_16  and  C_17
REMARK    7  A    between atoms: N_19  and  C_20
REMARK                            x       y       z     vdW  Elec       q    Type
REMARK                         _______ _______ _______ _____ _____    ______ ____
ROOT
ATOM      1  N   UNL     1      -1.201  -0.721  -0.017  0.00  0.00    -0.204 N 
ATOM      2  C   UNL     1      -1.182  -2.108  -0.021  0.00  0.00    +0.254 A 
ATOM      3  N   UNL     1      -0.111  -2.864  -0.046  0.00  0.00    -0.109 NA
ATOM      4  N   UNL     1      -0.526  -4.202  -0.038  0.00  0.00    -0.119 NA
ATOM      5  C   UNL     1      -1.838  -4.220  -0.016  0.00  0.00    +0.210 A 
ATOM      6  N   UNL     1      -2.277  -2.926  -0.005  0.00  0.00    -0.211 N 
ATOM      7  H   UNL     1      -2.161  -0.184   0.001  0.00  0.00    +0.177 HD
ENDROOT
BRANCH   6   8
ATOM      8  N   UNL     1      -3.582  -2.522   0.018  0.00  0.00    -0.294 N 
ATOM      9  H   UNL     1      -4.389  -3.269   0.030  0.00  0.00    +0.163 HD
ATOM     10  H   UNL     1      -3.825  -1.449   0.026  0.00  0.00    +0.163 HD
ENDBRANCH   6   8
BRANCH   1  12
ATOM     11  C   UNL     1      -0.015   1.297  -0.031  0.00  0.00    +0.145 C 
ATOM     12  N   UNL     1       0.003  -0.004  -0.035  0.00  0.00    -0.187 NA
BRANCH  11  15
ATOM     13  C   UNL     1       2.738   3.888  -0.069  0.00  0.00    +0.008 A 
ATOM     14  C   UNL     1       1.445   3.417  -0.049  0.00  0.00    +0.017 A 
ATOM     15  C   UNL     1       1.245   2.047  -0.049  0.00  0.00    +0.032 A 
ATOM     16  S   UNL     1       2.921   1.433  -0.071  0.00  0.00    -0.096 S 
ATOM     17  C   UNL     1       3.768   3.004  -0.089  0.00  0.00    +0.046 A 
ENDBRANCH  11  15
ENDBRANCH   1  12
BRANCH   5  18
ATOM     18  S   UNL     1      -2.854  -5.659  -0.003  0.00  0.00    -0.075 S 
BRANCH  18  19
ATOM     19  C   UNL     1      -1.669  -7.033  -0.026  0.00  0.00    +0.173 C 
BRANCH  19  20
ATOM     20  C   UNL     1      -2.417  -8.341  -0.017  0.00  0.00    +0.227 C 
ATOM     21  O   UNL     1      -3.630  -8.346   0.003  0.00  0.00    -0.275 OA
ATOM     22  N   UNL     1      -1.739  -9.505  -0.032  0.00  0.00    -0.285 N 
ATOM     23  H   UNL     1      -0.643  -9.502  -0.127  0.00  0.00    +0.155 HD
BRANCH  22  24
ATOM     24  C   UNL     1      -2.428 -10.719   0.074  0.00  0.00    +0.036 A 
ATOM     25  C   UNL     1      -1.857 -11.786   0.755  0.00  0.00    +0.043 A 
ATOM     26  C   UNL     1      -2.542 -12.981   0.863  0.00  0.00    +0.044 A 
ATOM     27  C   UNL     1      -3.792 -13.119   0.284  0.00  0.00    +0.040 A 
ATOM     28  C   UNL     1      -4.361 -12.058  -0.399  0.00  0.00    +0.044 A 
ATOM     29  C   UNL     1      -3.682 -10.859  -0.505  0.00  0.00    +0.043 A 
ATOM     30 CL   UNL     1      -5.929 -12.234  -1.123  0.00  0.00    -0.083 Cl
ATOM     31 CL   UNL     1      -1.832 -14.314   1.719  0.00  0.00    -0.083 Cl
ENDBRANCH  22  24
ENDBRANCH  19  20
ENDBRANCH  18  19
ENDBRANCH   5  18
TORSDOF 7
