REMARK  Name = ZINC59471607
REMARK  5 active torsions:
REMARK  status: ('A' for Active; 'I' for Inactive)
REMARK    1  A    between atoms: C_14  and  C_17
REMARK    2  A    between atoms: C_20  and  C_23
REMARK    3  A    between atoms: N_25  and  N_26
REMARK    4  A    between atoms: C_27  and  C_28
REMARK    5  A    between atoms: C_31  and  O_34
REMARK                            x       y       z     vdW  Elec       q    Type
REMARK                         _______ _______ _______ _____ _____    ______ ____
ROOT
ATOM      1  C   UNL     1       4.941  -2.491   0.642  0.00  0.00    -0.027 A 
ATOM      2  C   UNL     1       5.171  -1.925   1.883  0.00  0.00    +0.006 A 
ATOM      3  C   UNL     1       6.278  -2.293   2.619  0.00  0.00    +0.013 A 
ATOM      4  C   UNL     1       7.168  -3.240   2.108  0.00  0.00    +0.038 A 
ATOM      5  C   UNL     1       6.930  -3.808   0.856  0.00  0.00    +0.013 A 
ATOM      6  C   UNL     1       5.816  -3.434   0.133  0.00  0.00    +0.006 A 
ENDROOT
BRANCH   1  18
ATOM      7  C   UNL     1      -0.017   1.376   0.010  0.00  0.00    +0.000 A 
ATOM      8  C   UNL     1       1.169   2.088   0.002  0.00  0.00    +0.002 A 
ATOM      9  C   UNL     1       2.373   1.413  -0.020  0.00  0.00    +0.023 A 
ATOM     10  C   UNL     1       2.394   0.022  -0.032  0.00  0.00    +0.031 A 
ATOM     11  C   UNL     1       1.207  -0.693  -0.011  0.00  0.00    -0.019 A 
ATOM     12  C   UNL     1       0.002  -0.004   0.002  0.00  0.00    +0.006 A 
ATOM     13  C   UNL     1       1.189  -2.184   0.017  0.00  0.00    +0.049 C 
ATOM     14  C   UNL     1       0.834  -2.772  -1.325  0.00  0.00    -0.023 C 
ATOM     15  C   UNL     1       1.510  -3.876  -1.529  0.00  0.00    -0.030 C 
ATOM     16  C   UNL     1       2.417  -4.178  -0.356  0.00  0.00    +0.033 C 
ATOM     17  C   UNL     1       2.525  -2.826   0.386  0.00  0.00    +0.029 C 
ATOM     18  C   UNL     1       3.729  -2.084  -0.156  0.00  0.00    +0.105 C 
ATOM     19  N   UNL     1       3.614  -0.643  -0.073  0.00  0.00    -0.336 N 
ATOM     20  H   UNL     1       4.427  -0.114  -0.070  0.00  0.00    +0.147 HD
ENDBRANCH   1  18
BRANCH   4  21
ATOM     21  C   UNL     1       8.357  -3.639   2.891  0.00  0.00    +0.263 C 
ATOM     22  O   UNL     1       8.561  -3.142   3.982  0.00  0.00    -0.268 OA
ATOM     23  N   UNL     1       9.214  -4.553   2.395  0.00  0.00    -0.203 N 
ATOM     24  H   UNL     1       9.051  -4.949   1.525  0.00  0.00    +0.178 HD
BRANCH  23  25
ATOM     25  N   UNL     1      10.341  -4.931   3.137  0.00  0.00    -0.187 NA
ATOM     26  C   UNL     1      11.166  -5.812   2.659  0.00  0.00    +0.138 C 
BRANCH  26  27
ATOM     27  C   UNL     1      12.352  -6.210   3.440  0.00  0.00    -0.005 A 
ATOM     28  C   UNL     1      12.586  -5.644   4.696  0.00  0.00    +0.013 A 
ATOM     29  C   UNL     1      13.696  -6.019   5.422  0.00  0.00    +0.046 A 
ATOM     30  C   UNL     1      14.581  -6.957   4.906  0.00  0.00    +0.117 A 
ATOM     31  C   UNL     1      14.353  -7.522   3.658  0.00  0.00    +0.046 A 
ATOM     32  C   UNL     1      13.242  -7.158   2.928  0.00  0.00    +0.013 A 
BRANCH  30  33
ATOM     33  O   UNL     1      15.674  -7.324   5.625  0.00  0.00    -0.507 OA
ATOM     34  H   UNL     1      15.524  -8.078   6.212  0.00  0.00    +0.292 HD
ENDBRANCH  30  33
ENDBRANCH  26  27
ENDBRANCH  23  25
ENDBRANCH   4  21
TORSDOF 5
