REMARK  Name = ZINC08554330
REMARK  7 active torsions:
REMARK  status: ('A' for Active; 'I' for Inactive)
REMARK    1  A    between atoms: C_4  and  C_7
REMARK    2  A    between atoms: C_7  and  C_8
REMARK    3  A    between atoms: C_8  and  C_9
REMARK    4  A    between atoms: N_11  and  C_12
REMARK    5  A    between atoms: C_12  and  N_14
REMARK    6  A    between atoms: N_14  and  C_15
REMARK    7  A    between atoms: C_16  and  C_24
REMARK                            x       y       z     vdW  Elec       q    Type
REMARK                         _______ _______ _______ _____ _____    ______ ____
ROOT
ATOM      1  N   UNL     1       6.623   1.198   3.039  0.00  0.00    -0.291 N 
ATOM      2  H   UNL     1       6.303   0.490   3.819  0.00  0.00    +0.154 HD
ENDROOT
BRANCH   1   3
ATOM      3  C   UNL     1       7.923   1.677   3.030  0.00  0.00    +0.084 A 
ATOM      4  C   UNL     1       8.955   1.390   3.912  0.00  0.00    +0.068 A 
ATOM      5  C   UNL     1      10.238   2.029   3.676  0.00  0.00    -0.023 A 
ATOM      6  C   UNL     1      10.281   2.855   2.608  0.00  0.00    -0.004 A 
ATOM      7  S   UNL     1       8.653   2.787   1.917  0.00  0.00    -0.077 S 
ATOM      8  C   UNL     1      11.457   3.649   2.127  0.00  0.00    +0.043 C 
ATOM      9  C   UNL     1      12.510   3.679   3.244  0.00  0.00    +0.005 C 
ATOM     10  C   UNL     1      12.708   2.256   3.773  0.00  0.00    +0.005 C 
ATOM     11  C   UNL     1      11.467   1.813   4.550  0.00  0.00    +0.037 C 
BRANCH   4  12
ATOM     12  C   UNL     1       8.758   0.473   5.039  0.00  0.00    +0.244 C 
ATOM     13  O   UNL     1       8.972  -0.717   4.900  0.00  0.00    -0.270 OA
ATOM     14  N   UNL     1       8.342   0.949   6.230  0.00  0.00    -0.325 N 
ATOM     15  H   UNL     1       8.194   0.261   7.075  0.00  0.00    +0.145 HD
ATOM     16  H   UNL     1       8.149   2.024   6.356  0.00  0.00    +0.145 HD
ENDBRANCH   4  12
ENDBRANCH   1   3
BRANCH   1  17
ATOM     17  C   UNL     1       5.750   1.597   2.094  0.00  0.00    +0.141 C 
ATOM     18  S   UNL     1       6.247   2.698   0.880  0.00  0.00    -0.018 S 
BRANCH  17  21
ATOM     19  C   UNL     1       3.613   1.531   1.157  0.00  0.00    +0.218 C 
ATOM     20  O   UNL     1       3.965   2.311   0.298  0.00  0.00    -0.275 OA
ATOM     21  N   UNL     1       4.486   1.131   2.103  0.00  0.00    -0.268 N 
ATOM     22  H   UNL     1       4.166   0.424   2.883  0.00  0.00    +0.156 HD
BRANCH  19  23
ATOM     23  C   UNL     1       2.199   1.009   1.168  0.00  0.00    +0.096 C 
BRANCH  23  24
ATOM     24  C   UNL     1       1.423   1.615  -0.003  0.00  0.00    +0.013 C 
BRANCH  24  28
ATOM     25  C   UNL     1      -2.904   1.556   0.038  0.00  0.00    +0.000 C 
ATOM     26  C   UNL     1      -2.188   1.063  -1.221  0.00  0.00    +0.000 C 
ATOM     27  C   UNL     1      -0.753   1.593  -1.232  0.00  0.00    +0.003 C 
ATOM     28  C   UNL     1      -0.013   1.086   0.008  0.00  0.00    -0.011 C 
ATOM     29  C   UNL     1      -0.729   1.579   1.267  0.00  0.00    +0.003 C 
ATOM     30  C   UNL     1      -2.164   1.050   1.278  0.00  0.00    +0.000 C 
ENDBRANCH  24  28
ENDBRANCH  23  24
ENDBRANCH  19  23
ENDBRANCH  17  21
ENDBRANCH   1  17
TORSDOF 7
