REMARK  Name = ZINC05016448
REMARK  6 active torsions:
REMARK  status: ('A' for Active; 'I' for Inactive)
REMARK    1  A    between atoms: C_1  and  C_2
REMARK    2  A    between atoms: C_2  and  C_4
REMARK    3  A    between atoms: C_2  and  S_18
REMARK    4  A    between atoms: N_6  and  C_7
REMARK    5  A    between atoms: C_8  and  C_16
REMARK    6  A    between atoms: S_18  and  C_19
REMARK                            x       y       z     vdW  Elec       q    Type
REMARK                         _______ _______ _______ _____ _____    ______ ____
ROOT
ATOM      1  C   UNL     1       1.147   1.655   0.000  0.00  0.00    +0.231 C 
ATOM      2  O   UNL     1       1.130   2.868   0.007  0.00  0.00    -0.274 OA
ATOM      3  N   UNL     1      -0.011   0.966   0.007  0.00  0.00    -0.278 N 
ATOM      4  H   UNL     1       0.002  -0.004   0.002  0.00  0.00    +0.155 HD
ENDROOT
BRANCH   3   5
ATOM      5  C   UNL     1      -1.222   1.643   0.017  0.00  0.00    +0.090 A 
ATOM      6  C   UNL     1      -2.505   1.116   0.020  0.00  0.00    +0.084 A 
ATOM      7  C   UNL     1      -3.616   2.050   0.030  0.00  0.00    -0.018 A 
ATOM      8  C   UNL     1      -3.269   3.357   0.035  0.00  0.00    -0.004 A 
ATOM      9  S   UNL     1      -1.499   3.354   0.035  0.00  0.00    -0.077 S 
ATOM     10  C   UNL     1      -4.192   4.536   0.046  0.00  0.00    +0.043 C 
ATOM     11  C   UNL     1      -5.601   4.052  -0.328  0.00  0.00    +0.005 C 
ATOM     12  C   UNL     1      -5.932   2.809   0.504  0.00  0.00    +0.005 C 
ATOM     13  C   UNL     1      -5.080   1.628   0.036  0.00  0.00    +0.037 C 
BRANCH   6  14
ATOM     14  C   UNL     1      -2.725  -0.299   0.014  0.00  0.00    +0.102 C 
ATOM     15  N   UNL     1      -2.900  -1.422   0.009  0.00  0.00    -0.191 NA
ENDBRANCH   6  14
ENDBRANCH   3   5
BRANCH   1  17
ATOM     16  C   UNL     1       2.832   0.569  -1.459  0.00  0.00    +0.029 C 
ATOM     17  C   UNL     1       2.462   0.920  -0.017  0.00  0.00    +0.136 C 
BRANCH  17  18
ATOM     18  S   UNL     1       3.753   1.974   0.700  0.00  0.00    -0.084 S 
BRANCH  18  19
ATOM     19  C   UNL     1       5.175   0.934   0.746  0.00  0.00    +0.161 A 
ATOM     20  N   UNL     1       5.305  -0.322   0.364  0.00  0.00    -0.133 NA
ATOM     21  N   UNL     1       6.522  -0.952   0.485  0.00  0.00    -0.125 NA
ATOM     22  C   UNL     1       7.550  -0.300   0.992  0.00  0.00    +0.180 A 
ATOM     23  S   UNL     1       6.824   1.296   1.328  0.00  0.00    -0.025 S 
ATOM     24  N   UNL     1       8.852  -0.739   1.207  0.00  0.00    -0.336 N 
ATOM     25  H   UNL     1       9.508  -0.139   1.593  0.00  0.00    +0.144 HD
ATOM     26  H   UNL     1       9.103  -1.646   0.971  0.00  0.00    +0.144 HD
ENDBRANCH  18  19
ENDBRANCH  17  18
ENDBRANCH   1  17
TORSDOF 5
