REMARK  Name = ZINC35323690
REMARK  15 active torsions:
REMARK  status: ('A' for Active; 'I' for Inactive)
REMARK    1  A    between atoms: C_1  and  C_2
REMARK    2  A    between atoms: C_2  and  O_36
REMARK    3  A    between atoms: C_5  and  C_24
REMARK    4  A    between atoms: C_7  and  C_18
REMARK    5  A    between atoms: C_9  and  C_11
REMARK    6  A    between atoms: C_11  and  O_13
REMARK    7  A    between atoms: O_13  and  C_14
REMARK    8  A    between atoms: C_14  and  C_15
REMARK    9  A    between atoms: C_14  and  C_16
REMARK   10  A    between atoms: C_14  and  C_17
REMARK   11  A    between atoms: C_24  and  O_26
REMARK   12  A    between atoms: O_26  and  C_27
REMARK   13  A    between atoms: C_27  and  C_28
REMARK   14  A    between atoms: C_27  and  C_29
REMARK   15  A    between atoms: C_27  and  C_30
REMARK                            x       y       z     vdW  Elec       q    Type
REMARK                         _______ _______ _______ _____ _____    ______ ____
ROOT
ATOM      1  C   UNL     1       0.301   1.784   0.527  0.00  0.00    +0.042 C 
ATOM      2  C   UNL     1       0.091   0.286   0.297  0.00  0.00    +0.080 C 
ATOM      3  C   UNL     1       0.692  -0.111  -1.054  0.00  0.00    +0.079 C 
ATOM      4  C   UNL     1       0.500  -1.608  -1.277  0.00  0.00    +0.116 C 
ATOM      5  C   UNL     1       1.166  -2.406  -0.160  0.00  0.00    +0.145 C 
ATOM      6  C   UNL     1       0.564  -2.001   1.188  0.00  0.00    +0.053 C 
ATOM      7  C   UNL     1       0.781  -0.502   1.412  0.00  0.00    +0.137 C 
ATOM      8  N   UNL     1      -0.929  -1.934  -1.356  0.00  0.00    -0.306 N 
ATOM      9  C   UNL     1      -1.139  -2.454  -2.581  0.00  0.00    +0.146 C 
ATOM     10  S   UNL     1      -2.662  -2.991  -3.149  0.00  0.00    -0.018 S 
ATOM     11  N   UNL     1      -0.009  -2.501  -3.299  0.00  0.00    -0.260 N 
ATOM     12  N   UNL     1       1.046  -2.005  -2.586  0.00  0.00    -0.217 NA
ATOM     13  H   UNL     1      -1.593  -1.801  -0.662  0.00  0.00    +0.150 HD
ATOM     14  H   UNL     1       0.052  -2.841  -4.205  0.00  0.00    +0.168 HD
ATOM     15  H   UNL     1       1.463  -1.216  -3.058  0.00  0.00    +0.147 HD
ENDROOT
BRANCH   6  16
ATOM     16  C   UNL     1      -0.912  -2.301   1.189  0.00  0.00    -0.042 A 
ATOM     17  C   UNL     1      -1.799  -1.405   1.756  0.00  0.00    +0.004 A 
ATOM     18  C   UNL     1      -3.154  -1.680   1.757  0.00  0.00    +0.000 A 
ATOM     19  C   UNL     1      -3.622  -2.852   1.192  0.00  0.00    +0.000 A 
ATOM     20  C   UNL     1      -2.735  -3.747   0.624  0.00  0.00    +0.000 A 
ATOM     21  C   UNL     1      -1.381  -3.470   0.619  0.00  0.00    +0.004 A 
ENDBRANCH   6  16
BRANCH   7  22
ATOM     22  C   UNL     1       0.197  -0.105   2.743  0.00  0.00    +0.314 C 
ATOM     23  O   UNL     1      -0.246  -0.949   3.485  0.00  0.00    -0.250 OA
BRANCH  22  24
ATOM     24  O   UNL     1       0.170   1.188   3.105  0.00  0.00    -0.459 OA
BRANCH  24  25
ATOM     25  C   UNL     1      -0.398   1.493   4.380  0.00  0.00    +0.105 C 
ATOM     26  C   UNL     1       0.395   0.776   5.475  0.00  0.00    +0.055 C 
ATOM     27  C   UNL     1      -0.342   3.003   4.615  0.00  0.00    +0.055 C 
ATOM     28  C   UNL     1      -1.854   1.025   4.415  0.00  0.00    +0.055 C 
ENDBRANCH  24  25
ENDBRANCH  22  24
ENDBRANCH   7  22
BRANCH   5  29
ATOM     29  C   UNL     1       0.938  -3.877  -0.390  0.00  0.00    +0.315 C 
ATOM     30  O   UNL     1       0.433  -4.257  -1.419  0.00  0.00    -0.250 OA
BRANCH  29  31
ATOM     31  O   UNL     1       1.296  -4.767   0.550  0.00  0.00    -0.459 OA
BRANCH  31  32
ATOM     32  C   UNL     1       1.050  -6.145   0.266  0.00  0.00    +0.105 C 
ATOM     33  C   UNL     1       1.815  -6.550  -0.996  0.00  0.00    +0.055 C 
ATOM     34  C   UNL     1       1.521  -7.001   1.444  0.00  0.00    +0.055 C 
ATOM     35  C   UNL     1      -0.448  -6.361   0.045  0.00  0.00    +0.055 C 
ENDBRANCH  31  32
ENDBRANCH  29  31
ENDBRANCH   5  29
BRANCH   2  36
ATOM     36  O   UNL     1      -1.307  -0.005   0.301  0.00  0.00    -0.388 OA
ATOM     37  H   UNL     1      -1.820   0.518  -0.330  0.00  0.00    +0.210 HD
ENDBRANCH   2  36
TORSDOF 8
