REMARK  Name = ZINC39722555
REMARK  9 active torsions:
REMARK  status: ('A' for Active; 'I' for Inactive)
REMARK    1  A    between atoms: C_1  and  C_2
REMARK    2  A    between atoms: C_2  and  N_3
REMARK    3  A    between atoms: C_4  and  C_27
REMARK    4  A    between atoms: C_8  and  S_10
REMARK    5  A    between atoms: S_10  and  C_11
REMARK    6  A    between atoms: C_11  and  C_12
REMARK    7  A    between atoms: C_20  and  C_24
REMARK    8  A    between atoms: C_31  and  O_33
REMARK    9  A    between atoms: O_33  and  C_34
REMARK                            x       y       z     vdW  Elec       q    Type
REMARK                         _______ _______ _______ _____ _____    ______ ____
ROOT
ATOM      1  N   UNL     1       0.743  -0.636   1.132  0.00  0.00    +0.410 N 
ATOM      2  C   UNL     1       0.895  -2.110   1.147  0.00  0.00    +0.049 C 
ATOM      3  N   UNL     1       0.874  -2.464   2.590  0.00  0.00    -0.267 NA
ATOM      4  N   UNL     1      -0.125  -1.538   3.145  0.00  0.00    -0.262 NA
ATOM      5  C   UNL     1       0.093  -0.273   2.408  0.00  0.00    +0.077 C 
ATOM      6  H   UNL     1       0.592  -3.423   2.723  0.00  0.00    +0.139 HD
ATOM      7  H   UNL     1      -1.061  -1.885   2.998  0.00  0.00    +0.140 HD
ATOM      8  H   UNL     1       1.648  -0.195   1.066  0.00  0.00    -0.075 HD
ENDROOT
BRANCH   2   9
ATOM      9  C   UNL     1       2.207  -2.511   0.521  0.00  0.00    -0.043 A 
ATOM     10  C   UNL     1       2.768  -1.726  -0.469  0.00  0.00    +0.003 A 
ATOM     11  C   UNL     1       3.971  -2.092  -1.045  0.00  0.00    +0.004 A 
ATOM     12  C   UNL     1       4.614  -3.243  -0.632  0.00  0.00    +0.045 A 
ATOM     13  C   UNL     1       4.053  -4.031   0.362  0.00  0.00    +0.120 A 
ATOM     14  C   UNL     1       2.849  -3.659   0.942  0.00  0.00    +0.049 A 
BRANCH  13  15
ATOM     15  O   UNL     1       4.684  -5.163   0.770  0.00  0.00    -0.495 OA
ATOM     16  C   UNL     1       5.923  -5.481   0.133  0.00  0.00    +0.277 C 
ENDBRANCH  13  15
ENDBRANCH   2   9
BRANCH   1  18
ATOM     17  C   UNL     1      -0.063   1.295  -0.140  0.00  0.00    -0.017 C 
ATOM     18  C   UNL     1      -0.101  -0.228   0.001  0.00  0.00    -0.076 C 
ENDBRANCH   1  18
BRANCH   5  19
ATOM     19  S   UNL     1      -1.496   0.542   2.086  0.00  0.00    -0.152 S 
BRANCH  19  20
ATOM     20  C   UNL     1      -1.937   1.288   3.680  0.00  0.00    +0.143 C 
BRANCH  20  21
ATOM     21  C   UNL     1      -3.201   2.093   3.524  0.00  0.00    +0.120 A 
ATOM     22  N   UNL     1      -3.692   2.738   4.614  0.00  0.00    -0.310 N 
ATOM     23  H   UNL     1      -3.228   2.670   5.463  0.00  0.00    +0.170 HD
ATOM     24  C   UNL     1      -4.824   3.474   4.527  0.00  0.00    +0.259 A 
ATOM     25  O   UNL     1      -5.275   4.057   5.496  0.00  0.00    -0.267 OA
ATOM     26  C   UNL     1      -5.489   3.544   3.215  0.00  0.00    +0.065 A 
ATOM     27  C   UNL     1      -6.659   4.276   3.022  0.00  0.00    +0.016 A 
ATOM     28  C   UNL     1      -7.243   4.313   1.787  0.00  0.00    +0.016 A 
ATOM     29  C   UNL     1      -6.675   3.621   0.710  0.00  0.00    +0.065 A 
ATOM     30  C   UNL     1      -5.508   2.884   0.881  0.00  0.00    +0.043 A 
ATOM     31  C   UNL     1      -4.904   2.840   2.139  0.00  0.00    +0.079 A 
ATOM     32  N   UNL     1      -3.762   2.140   2.354  0.00  0.00    -0.233 NA
BRANCH  29  33
ATOM     33  C   UNL     1      -7.321   3.674  -0.619  0.00  0.00    +0.387 C 
ATOM     34  O   UNL     1      -8.347   4.320  -0.774  0.00  0.00    -0.241 OA
ATOM     35  O   UNL     1      -6.829   3.071  -1.562  0.00  0.00    -0.241 OA
ENDBRANCH  29  33
ENDBRANCH  20  21
ENDBRANCH  19  20
ENDBRANCH   5  19
TORSDOF 7
