REMARK  Name = ZINC19170970
REMARK  12 active torsions:
REMARK  status: ('A' for Active; 'I' for Inactive)
REMARK    1  A    between atoms: C_1  and  C_2
REMARK    2  A    between atoms: C_2  and  C_3
REMARK    3  A    between atoms: C_2  and  O_4
REMARK    4  A    between atoms: O_4  and  C_5
REMARK    5  A    between atoms: C_9  and  C_11
REMARK    6  A    between atoms: C_15  and  S_29
REMARK    7  A    between atoms: N_17  and  N_18
REMARK    8  A    between atoms: N_18  and  C_19
REMARK    9  A    between atoms: C_19  and  C_20
REMARK   10  A    between atoms: C_24  and  O_27
REMARK   11  A    between atoms: C_25  and  O_26
REMARK   12  A    between atoms: O_27  and  C_28
REMARK                            x       y       z     vdW  Elec       q    Type
REMARK                         _______ _______ _______ _____ _____    ______ ____
ROOT
ATOM      1  C   UNL     1       5.497   4.349  -2.740  0.00  0.00    +0.186 C 
ATOM      2  N   UNL     1       6.484   4.319  -3.844  0.00  0.00    -0.232 NA
ATOM      3  N   UNL     1       7.649   3.622  -3.276  0.00  0.00    -0.228 NA
ATOM      4  C   UNL     1       7.031   2.572  -2.425  0.00  0.00    +0.211 C 
ATOM      5  N   UNL     1       5.845   3.233  -1.835  0.00  0.00    -0.193 NA
ATOM      6  H   UNL     1       6.728   5.253  -4.136  0.00  0.00    +0.143 HD
ATOM      7  H   UNL     1       8.215   3.212  -4.004  0.00  0.00    +0.143 HD
ENDROOT
BRANCH   1  12
ATOM      8  C   UNL     1       1.800   4.807  -3.371  0.00  0.00    +0.121 A 
ATOM      9  C   UNL     1       1.552   3.800  -4.293  0.00  0.00    +0.045 A 
ATOM     10  C   UNL     1       2.581   2.976  -4.707  0.00  0.00    +0.004 A 
ATOM     11  C   UNL     1       3.858   3.158  -4.208  0.00  0.00    +0.007 A 
ATOM     12  C   UNL     1       4.106   4.157  -3.286  0.00  0.00    -0.010 A 
ATOM     13  C   UNL     1       3.081   4.984  -2.868  0.00  0.00    +0.052 A 
BRANCH   8  14
ATOM     14  O   UNL     1       0.790   5.619  -2.962  0.00  0.00    -0.489 OA
BRANCH  14  16
ATOM     15  C   UNL     1      -1.250   4.323  -2.934  0.00  0.00    +0.051 C 
ATOM     16  C   UNL     1      -0.474   5.457  -3.608  0.00  0.00    +0.167 C 
ATOM     17  C   UNL     1      -1.273   6.757  -3.498  0.00  0.00    +0.051 C 
ENDBRANCH  14  16
ENDBRANCH   8  14
ENDBRANCH   1  12
BRANCH   5  18
ATOM     18  N   UNL     1       4.737   2.301  -1.708  0.00  0.00    -0.246 NA
ATOM     19  H   UNL     1       3.923   2.637  -2.200  0.00  0.00    +0.141 HD
BRANCH  18  20
ATOM     20  C   UNL     1       4.428   2.038  -0.296  0.00  0.00    +0.137 C 
BRANCH  20  21
ATOM     21  C   UNL     1       3.277   1.069  -0.206  0.00  0.00    +0.013 A 
ATOM     22  C   UNL     1       1.999   1.535   0.045  0.00  0.00    +0.009 A 
ATOM     23  C   UNL     1       0.942   0.649   0.129  0.00  0.00    +0.004 A 
ATOM     24  C   UNL     1       1.157  -0.707  -0.037  0.00  0.00    +0.049 A 
ATOM     25  C   UNL     1       2.434  -1.180  -0.289  0.00  0.00    +0.162 A 
ATOM     26  C   UNL     1       3.499  -0.287  -0.373  0.00  0.00    +0.163 A 
BRANCH  26  27
ATOM     27  O   UNL     1       4.755  -0.747  -0.619  0.00  0.00    -0.503 OA
ATOM     28  H   UNL     1       4.930  -1.825  -0.752  0.00  0.00    +0.292 HD
ENDBRANCH  26  27
BRANCH  25  29
ATOM     29  O   UNL     1       2.647  -2.513  -0.453  0.00  0.00    -0.491 OA
ATOM     30  C   UNL     1       1.507  -3.369  -0.353  0.00  0.00    +0.277 C 
ENDBRANCH  25  29
ENDBRANCH  20  21
ENDBRANCH  18  20
ENDBRANCH   5  18
BRANCH   4  31
ATOM     31  S   UNL     1       8.180   2.047  -1.123  0.00  0.00    -0.142 S 
ATOM     32  H   UNL     1       7.878   1.273  -0.403  0.00  0.00    +0.105 HD
ENDBRANCH   4  31
TORSDOF 9
