REMARK  Name = ZINC39315288
REMARK  5 active torsions:
REMARK  status: ('A' for Active; 'I' for Inactive)
REMARK    1  A    between atoms: C_1  and  C_2
REMARK    2  A    between atoms: C_3  and  N_22
REMARK    3  A    between atoms: C_4  and  C_21
REMARK    4  A    between atoms: N_5  and  C_7
REMARK    5  A    between atoms: C_10  and  C_15
REMARK                            x       y       z     vdW  Elec       q    Type
REMARK                         _______ _______ _______ _____ _____    ______ ____
ROOT
ATOM      1  C   UNL     1       0.051  -3.255   1.436  0.00  0.00    +0.142 A 
ATOM      2  C   UNL     1       0.987  -4.256   1.213  0.00  0.00    +0.187 A 
ATOM      3  C   UNL     1       1.003  -5.382   2.020  0.00  0.00    +0.175 A 
ATOM      4  C   UNL     1       0.085  -5.509   3.049  0.00  0.00    +0.131 A 
ATOM      5  C   UNL     1      -0.849  -4.513   3.274  0.00  0.00    +0.175 A 
ATOM      6  C   UNL     1      -0.865  -3.383   2.474  0.00  0.00    +0.187 A 
ATOM      7  F   UNL     1      -1.774  -2.408   2.697  0.00  0.00    -0.200 F 
ATOM      8  F   UNL     1      -1.743  -4.641   4.279  0.00  0.00    -0.202 F 
ATOM      9  F   UNL     1       1.913  -6.356   1.803  0.00  0.00    -0.202 F 
ATOM     10  F   UNL     1       1.882  -4.133   0.208  0.00  0.00    -0.200 F 
ENDROOT
BRANCH   1  15
ATOM     11  C   UNL     1       0.015   1.503   0.028  0.00  0.00    +0.070 C 
ATOM     12  C   UNL     1       0.017  -0.004   0.010  0.00  0.00    +0.091 A 
ATOM     13  C   UNL     1      -0.005  -0.810  -1.133  0.00  0.00    +0.170 A 
ATOM     14  C   UNL     1       0.005  -2.103  -0.732  0.00  0.00    +0.072 A 
ATOM     15  N   UNL     1       0.033  -2.114   0.620  0.00  0.00    -0.229 N 
ATOM     16  N   UNL     1       0.046  -0.784   1.061  0.00  0.00    -0.169 NA
ATOM     17  C   UNL     1      -0.011  -3.313  -1.630  0.00  0.00    +0.068 C 
BRANCH  13  18
ATOM     18  N   UNL     1      -0.034  -0.334  -2.534  0.00  0.00    +0.060 N 
ATOM     19  O   UNL     1       1.000  -0.139  -3.128  0.00  0.00    -0.126 OA
ATOM     20  O   UNL     1      -1.093  -0.141  -3.085  0.00  0.00    -0.126 OA
ENDBRANCH  13  18
ENDBRANCH   1  15
BRANCH   4  21
ATOM     21  C   UNL     1       0.104  -6.735   3.925  0.00  0.00    +0.423 C 
ATOM     22  F   UNL     1       0.948  -6.514   5.019  0.00  0.00    -0.166 F 
ATOM     23  F   UNL     1      -1.191  -7.001   4.383  0.00  0.00    -0.166 F 
ATOM     24  F   UNL     1       0.572  -7.828   3.188  0.00  0.00    -0.166 F 
ENDBRANCH   4  21
TORSDOF 3
