REMARK  Name = ZINC39568207
REMARK  6 active torsions:
REMARK  status: ('A' for Active; 'I' for Inactive)
REMARK    1  A    between atoms: C_1  and  C_2
REMARK    2  A    between atoms: C_3  and  C_13
REMARK    3  A    between atoms: C_4  and  C_12
REMARK    4  A    between atoms: C_6  and  C_8
REMARK    5  A    between atoms: N_10  and  N_11
REMARK    6  A    between atoms: C_14  and  C_15
REMARK                            x       y       z     vdW  Elec       q    Type
REMARK                         _______ _______ _______ _____ _____    ______ ____
ROOT
ATOM      1  C   UNL     1      -0.440   1.510  -0.022  0.00  0.00    +0.042 C 
ATOM      2  C   UNL     1      -0.203   0.022  -0.006  0.00  0.00    -0.031 C 
ATOM      3  C   UNL     1      -0.007  -0.786  -1.073  0.00  0.00    -0.003 C 
ATOM      4  C   UNL     1       0.183  -2.167  -0.599  0.00  0.00    +0.041 C 
ATOM      5  N   UNL     1       0.113  -2.229   0.686  0.00  0.00    -0.271 NA
ATOM      6  C   UNL     1      -0.129  -0.878   1.208  0.00  0.00    +0.218 C 
ATOM      7  C   UNL     1       0.428  -3.351  -1.498  0.00  0.00    +0.066 C 
ENDROOT
BRANCH   6   8
ATOM      8  C   UNL     1       1.005  -0.452   2.103  0.00  0.00    +0.255 C 
ATOM      9  O   UNL     1       2.061  -1.049   2.071  0.00  0.00    -0.272 OA
ATOM     10  N   UNL     1       0.847   0.592   2.941  0.00  0.00    -0.252 N 
ATOM     11  H   UNL     1       0.003   1.069   2.967  0.00  0.00    +0.169 HD
BRANCH  10  12
ATOM     12  N   UNL     1       1.876   0.978   3.752  0.00  0.00    -0.254 NA
ATOM     13  H   UNL     1       2.705   1.181   3.214  0.00  0.00    +0.140 HD
ATOM     14  H   UNL     1       1.611   1.770   4.320  0.00  0.00    +0.140 HD
ENDBRANCH  10  12
ENDBRANCH   6   8
BRANCH   3  15
ATOM     15  C   UNL     1       0.012  -0.355  -2.479  0.00  0.00    +0.017 C 
ATOM     16  C   UNL     1       0.831   0.648  -2.867  0.00  0.00    +0.096 C 
BRANCH  16  17
ATOM     17  C   UNL     1       0.752   1.155  -4.186  0.00  0.00    +0.380 C 
ATOM     18  O   UNL     1      -0.058   0.685  -4.975  0.00  0.00    -0.241 OA
ATOM     19  O   UNL     1       1.494   2.064  -4.537  0.00  0.00    -0.241 OA
ENDBRANCH  16  17
ENDBRANCH   3  15
TORSDOF 4
