REMARK  Name = ZINC09354796
REMARK  8 active torsions:
REMARK  status: ('A' for Active; 'I' for Inactive)
REMARK    1  A    between atoms: C_1  and  C_2
REMARK    2  A    between atoms: C_5  and  S_8
REMARK    3  A    between atoms: S_8  and  N_11
REMARK    4  A    between atoms: N_11  and  C_12
REMARK    5  A    between atoms: C_17  and  C_18
REMARK    6  A    between atoms: N_20  and  C_21
REMARK    7  A    between atoms: C_22  and  C_32
REMARK    8  A    between atoms: C_28  and  C_31
REMARK                            x       y       z     vdW  Elec       q    Type
REMARK                         _______ _______ _______ _____ _____    ______ ____
ROOT
ATOM      1  C   UNL     1      -2.747   3.863   0.242  0.00  0.00    +0.250 C 
ATOM      2  O   UNL     1      -3.741   3.176   0.101  0.00  0.00    -0.270 OA
ATOM      3  N   UNL     1      -2.862   5.201   0.345  0.00  0.00    -0.275 N 
ATOM      4  H   UNL     1      -2.069   5.749   0.458  0.00  0.00    +0.156 HD
ENDROOT
BRANCH   3   5
ATOM      5  C   UNL     1      -4.112   5.795   0.292  0.00  0.00    +0.085 A 
ATOM      6  C   UNL     1      -4.431   7.144   0.379  0.00  0.00    +0.068 A 
ATOM      7  C   UNL     1      -5.835   7.508   0.292  0.00  0.00    -0.023 A 
ATOM      8  C   UNL     1      -6.689   6.474   0.133  0.00  0.00    -0.004 A 
ATOM      9  S   UNL     1      -5.657   5.037   0.091  0.00  0.00    -0.077 S 
ATOM     10  C   UNL     1      -8.181   6.545   0.014  0.00  0.00    +0.043 C 
ATOM     11  C   UNL     1      -8.574   8.001  -0.278  0.00  0.00    +0.009 C 
ATOM     12  C   UNL     1      -7.838   8.916   0.704  0.00  0.00    -0.009 C 
ATOM     13  C   UNL     1      -6.345   8.942   0.372  0.00  0.00    +0.040 C 
ATOM     14  C   UNL     1      -8.406  10.333   0.602  0.00  0.00    +0.008 C 
BRANCH   6  15
ATOM     15  C   UNL     1      -3.390   8.161   0.553  0.00  0.00    +0.244 C 
ATOM     16  O   UNL     1      -2.871   8.673  -0.422  0.00  0.00    -0.270 OA
ATOM     17  N   UNL     1      -3.009   8.531   1.791  0.00  0.00    -0.325 N 
ATOM     18  H   UNL     1      -3.423   8.123   2.568  0.00  0.00    +0.145 HD
ATOM     19  H   UNL     1      -2.320   9.204   1.906  0.00  0.00    +0.145 HD
ENDBRANCH   6  15
ENDBRANCH   3   5
BRANCH   1  25
ATOM     20  C   UNL     1      -1.291   1.837   0.186  0.00  0.00    +0.060 A 
ATOM     21  C   UNL     1      -0.032   1.253   0.247  0.00  0.00    +0.025 A 
ATOM     22  C   UNL     1       1.088   2.042   0.408  0.00  0.00    +0.002 A 
ATOM     23  C   UNL     1       0.969   3.418   0.514  0.00  0.00    +0.001 A 
ATOM     24  C   UNL     1      -0.272   4.015   0.461  0.00  0.00    +0.015 A 
ATOM     25  C   UNL     1      -1.417   3.231   0.299  0.00  0.00    +0.059 A 
BRANCH  20  26
ATOM     26  N   UNL     1      -2.421   1.046   0.020  0.00  0.00    -0.216 N 
ATOM     27  H   UNL     1      -3.165   1.368  -0.512  0.00  0.00    +0.174 HD
BRANCH  26  28
ATOM     28  S   UNL     1      -2.497  -0.448   0.730  0.00  0.00    +0.072 S 
ATOM     29  O   UNL     1      -3.806  -0.946   0.490  0.00  0.00    -0.150 OA
ATOM     30  O   UNL     1      -1.329  -1.150   0.324  0.00  0.00    -0.150 OA
BRANCH  28  35
ATOM     31  C   UNL     1      -2.029   0.380   6.688  0.00  0.00    +0.044 C 
ATOM     32  C   UNL     1      -2.146   0.173   5.200  0.00  0.00    -0.050 A 
ATOM     33  C   UNL     1      -3.390   0.177   4.597  0.00  0.00    +0.005 A 
ATOM     34  C   UNL     1      -3.497  -0.013   3.232  0.00  0.00    +0.029 A 
ATOM     35  C   UNL     1      -2.360  -0.206   2.469  0.00  0.00    +0.109 A 
ATOM     36  C   UNL     1      -1.117  -0.215   3.073  0.00  0.00    +0.029 A 
ATOM     37  C   UNL     1      -1.009  -0.021   4.437  0.00  0.00    +0.005 A 
ENDBRANCH  28  35
ENDBRANCH  26  28
ENDBRANCH  20  26
ENDBRANCH   1  25
TORSDOF 6
