REMARK  Name = ZINC15449768
REMARK  14 active torsions:
REMARK  status: ('A' for Active; 'I' for Inactive)
REMARK    1  A    between atoms: C_1  and  C_2
REMARK    2  A    between atoms: C_2  and  C_3
REMARK    3  A    between atoms: C_3  and  C_4
REMARK    4  A    between atoms: C_4  and  N_5
REMARK    5  A    between atoms: C_6  and  N_34
REMARK    6  A    between atoms: C_7  and  N_14
REMARK    7  A    between atoms: N_14  and  C_15
REMARK    8  A    between atoms: C_20  and  C_22
REMARK    9  A    between atoms: C_22  and  N_68
REMARK   10  A    between atoms: C_23  and  N_68
REMARK   11  A    between atoms: C_24  and  C_25
REMARK   12  A    between atoms: C_24  and  N_68
REMARK   13  A    between atoms: C_25  and  O_26
REMARK   14  A    between atoms: O_26  and  C_27
REMARK                            x       y       z     vdW  Elec       q    Type
REMARK                         _______ _______ _______ _____ _____    ______ ____
ROOT
ATOM      1  N   UNL     1      -0.348   8.899   2.542  0.00  0.00    -0.263 N 
ATOM      2  C   UNL     1       0.022   7.612   2.378  0.00  0.00    +0.204 C 
ATOM      3  O   UNL     1       0.743   7.300   1.454  0.00  0.00    -0.277 OA
ENDROOT
BRANCH   1   6
ATOM      4  N   UNL     1      -1.366   9.548   6.012  0.00  0.00    -0.280 N 
ATOM      5  C   UNL     1      -0.594   9.173   4.938  0.00  0.00    +0.127 A 
ATOM      6  C   UNL     1      -1.115   9.275   3.664  0.00  0.00    +0.140 A 
ATOM      7  C   UNL     1      -2.424   9.768   3.504  0.00  0.00    +0.277 A 
ATOM      8  O   UNL     1      -2.908   9.873   2.390  0.00  0.00    -0.266 OA
ATOM      9  N   UNL     1      -3.141  10.117   4.590  0.00  0.00    -0.273 N 
ATOM     10  H   UNL     1      -4.074  10.459   4.478  0.00  0.00    +0.173 HD
ATOM     11  C   UNL     1      -2.616  10.010   5.824  0.00  0.00    +0.331 A 
ATOM     12  O   UNL     1      -3.283  10.336   6.787  0.00  0.00    -0.246 OA
BRANCH   5  13
ATOM     13  N   UNL     1       0.683   8.702   5.130  0.00  0.00    -0.343 N 
ATOM     14  H   UNL     1       1.252   8.515   4.367  0.00  0.00    +0.144 HD
ATOM     15  H   UNL     1       1.016   8.556   6.030  0.00  0.00    +0.144 HD
ENDBRANCH   5  13
BRANCH   4  16
ATOM     16  C   UNL     1      -0.825   9.444   7.370  0.00  0.00    +0.128 C 
BRANCH  16  17
ATOM     17  C   UNL     1      -0.124  10.753   7.741  0.00  0.00    +0.021 C 
BRANCH  17  19
ATOM     18  C   UNL     1       1.141  11.952   9.530  0.00  0.00    +0.004 C 
ATOM     19  C   UNL     1       0.441  10.644   9.159  0.00  0.00    -0.002 C 
ENDBRANCH  17  19
ENDBRANCH  16  17
ENDBRANCH   4  16
ENDBRANCH   1   6
BRANCH   1  20
ATOM     20  C   UNL     1       0.048   9.906   1.554  0.00  0.00    +0.082 C 
ATOM     21  C   UNL     1      -0.539   9.550   0.173  0.00  0.00    +0.023 C 
ATOM     22  C   UNL     1       0.571   9.958  -0.828  0.00  0.00    +0.002 C 
ATOM     23  C   UNL     1       1.868   9.562  -0.081  0.00  0.00    +0.002 C 
ATOM     24  C   UNL     1       1.578   9.914   1.393  0.00  0.00    +0.023 C 
ENDBRANCH   1  20
BRANCH   2  25
ATOM     25  C   UNL     1      -0.460   6.561   3.345  0.00  0.00    +0.019 C 
BRANCH  25  27
ATOM     26  C   UNL     1      -0.708   4.884   1.616  0.00  0.00    -0.095 C 
ATOM     27  N   UNL     1      -0.010   5.235   2.871  0.00  0.00    +0.386 N 
ATOM     28  H   UNL     1       1.000   5.270   2.692  0.00  0.00    -0.081 HD
BRANCH  27  29
ATOM     29  C   UNL     1      -0.281   4.211   3.902  0.00  0.00    -0.037 C 
BRANCH  29  30
ATOM     30  C   UNL     1       0.391   2.901   3.485  0.00  0.00    +0.210 C 
BRANCH  30  31
ATOM     31  O   UNL     1       1.808   3.080   3.457  0.00  0.00    -0.494 OA
BRANCH  31  32
ATOM     32  C   UNL     1       2.559   2.004   3.103  0.00  0.00    +0.120 A 
ATOM     33  C   UNL     1       3.942   2.108   3.055  0.00  0.00    +0.047 A 
ATOM     34  C   UNL     1       4.704   1.013   2.696  0.00  0.00    +0.023 A 
ATOM     35  C   UNL     1       4.088  -0.187   2.384  0.00  0.00    +0.041 A 
ATOM     36  C   UNL     1       2.709  -0.292   2.431  0.00  0.00    +0.023 A 
ATOM     37  C   UNL     1       1.944   0.801   2.789  0.00  0.00    +0.047 A 
ATOM     38 CL   UNL     1       5.048  -1.561   1.933  0.00  0.00    -0.084 Cl
ENDBRANCH  31  32
ENDBRANCH  30  31
ENDBRANCH  29  30
ENDBRANCH  27  29
ENDBRANCH  25  27
ENDBRANCH   2  25
TORSDOF 12
