REMARK  Name = ZINC40824655
REMARK  10 active torsions:
REMARK  status: ('A' for Active; 'I' for Inactive)
REMARK    1  A    between atoms: C_1  and  C_2
REMARK    2  A    between atoms: C_2  and  O_3
REMARK    3  A    between atoms: O_3  and  C_4
REMARK    4  A    between atoms: C_4  and  C_6
REMARK    5  A    between atoms: C_11  and  N_12
REMARK    6  A    between atoms: C_13  and  C_15
REMARK    7  A    between atoms: C_16  and  C_29
REMARK    8  A    between atoms: N_24  and  N_25
REMARK    9  A    between atoms: N_25  and  C_26
REMARK   10  A    between atoms: C_26  and  N_28
REMARK                            x       y       z     vdW  Elec       q    Type
REMARK                         _______ _______ _______ _____ _____    ______ ____
ROOT
ATOM      1  C   UNL     1       0.835  -6.714  -0.614  0.00  0.00    +0.193 A 
ATOM      2  C   UNL     1       1.020  -8.066  -0.528  0.00  0.00    +0.009 A 
ATOM      3  C   UNL     1       0.285  -8.492   0.585  0.00  0.00    +0.042 A 
ATOM      4  C   UNL     1      -0.318  -7.383   1.130  0.00  0.00    +0.115 A 
ATOM      5  O   UNL     1       0.030  -6.325   0.401  0.00  0.00    -0.454 OA
ATOM      6  C   UNL     1      -1.204  -7.447   2.349  0.00  0.00    +0.075 C 
ATOM      7  C   UNL     1      -1.716  -8.879   2.530  0.00  0.00    +0.014 C 
ATOM      8  C   UNL     1      -0.550  -9.873   2.537  0.00  0.00    +0.058 C 
ATOM      9  C   UNL     1       0.111  -9.841   1.167  0.00  0.00    +0.070 C 
ATOM     10  N   UNL     1       0.494 -10.919   0.554  0.00  0.00    -0.185 NA
ATOM     11  C   UNL     1       1.849  -8.925  -1.448  0.00  0.00    +0.048 C 
ENDROOT
BRANCH   1  13
ATOM     12  N   UNL     1       1.162  -4.509  -1.602  0.00  0.00    -0.278 N 
ATOM     13  C   UNL     1       1.418  -5.832  -1.631  0.00  0.00    +0.284 C 
ATOM     14  O   UNL     1       2.132  -6.295  -2.501  0.00  0.00    -0.266 OA
ATOM     15  H   UNL     1       0.643  -4.131  -0.875  0.00  0.00    +0.155 HD
BRANCH  12  21
ATOM     16  C   UNL     1       0.820  -2.688  -3.163  0.00  0.00    +0.080 A 
ATOM     17  C   UNL     1       1.317  -1.864  -4.176  0.00  0.00    +0.017 A 
ATOM     18  C   UNL     1       2.604  -2.039  -4.635  0.00  0.00    +0.001 A 
ATOM     19  C   UNL     1       3.411  -3.028  -4.096  0.00  0.00    +0.002 A 
ATOM     20  C   UNL     1       2.935  -3.850  -3.095  0.00  0.00    +0.024 A 
ATOM     21  C   UNL     1       1.642  -3.686  -2.615  0.00  0.00    +0.048 A 
BRANCH  16  22
ATOM     22  C   UNL     1      -0.556  -2.507  -2.667  0.00  0.00    +0.341 C 
ATOM     23  O   UNL     1      -1.018  -3.286  -1.857  0.00  0.00    -0.245 OA
BRANCH  22  24
ATOM     24  O   UNL     1      -1.302  -1.477  -3.113  0.00  0.00    -0.461 OA
BRANCH  24  26
ATOM     25  C   UNL     1      -3.315  -0.143  -3.208  0.00  0.00    +0.048 C 
ATOM     26  C   UNL     1      -2.627  -1.362  -2.590  0.00  0.00    +0.229 C 
ENDBRANCH  24  26
ENDBRANCH  22  24
ENDBRANCH  16  22
ENDBRANCH  12  21
ENDBRANCH   1  13
BRANCH  10  27
ATOM     27  N   UNL     1       0.304 -12.171   1.153  0.00  0.00    -0.218 N 
ATOM     28  H   UNL     1      -0.114 -12.232   2.026  0.00  0.00    +0.176 HD
BRANCH  27  29
ATOM     29  C   UNL     1       0.702 -13.290   0.516  0.00  0.00    +0.147 C 
ATOM     30  S   UNL     1       0.470 -14.820   1.248  0.00  0.00    -0.017 S 
BRANCH  29  31
ATOM     31  N   UNL     1       1.284 -13.205  -0.697  0.00  0.00    -0.339 N 
ATOM     32  H   UNL     1       1.415 -12.338  -1.111  0.00  0.00    +0.144 HD
ATOM     33  H   UNL     1       1.570 -14.010  -1.155  0.00  0.00    +0.144 HD
ENDBRANCH  29  31
ENDBRANCH  27  29
ENDBRANCH  10  27
TORSDOF 8
