REMARK  Name = ZINC67196087
REMARK  10 active torsions:
REMARK  status: ('A' for Active; 'I' for Inactive)
REMARK    1  A    between atoms: C_1  and  C_2
REMARK    2  A    between atoms: C_2  and  C_4
REMARK    3  A    between atoms: C_2  and  N_20
REMARK    4  A    between atoms: C_4  and  C_5
REMARK    5  A    between atoms: N_7  and  N_8
REMARK    6  A    between atoms: N_8  and  C_9
REMARK    7  A    between atoms: C_9  and  N_11
REMARK    8  A    between atoms: N_11  and  C_12
REMARK    9  A    between atoms: C_16  and  C_18
REMARK   10  A    between atoms: C_21  and  C_23
REMARK                            x       y       z     vdW  Elec       q    Type
REMARK                         _______ _______ _______ _____ _____    ______ ____
ROOT
ATOM      1  C   UNL     1      -1.368  -2.116  -0.087  0.00  0.00    +0.231 C 
ATOM      2  O   UNL     1      -0.343  -2.710   0.173  0.00  0.00    -0.274 OA
ATOM      3  N   UNL     1      -2.542  -2.778  -0.117  0.00  0.00    -0.235 N 
ATOM      4  H   UNL     1      -3.361  -2.303  -0.325  0.00  0.00    +0.173 HD
ENDROOT
BRANCH   3   5
ATOM      5  N   UNL     1      -2.578  -4.152   0.153  0.00  0.00    -0.246 N 
ATOM      6  H   UNL     1      -1.758  -4.628   0.361  0.00  0.00    +0.172 HD
BRANCH   5   7
ATOM      7  C   UNL     1      -3.752  -4.814   0.123  0.00  0.00    +0.151 C 
ATOM      8  S   UNL     1      -3.796  -6.494   0.452  0.00  0.00    -0.017 S 
BRANCH   7   9
ATOM      9  N   UNL     1      -4.891  -4.154  -0.166  0.00  0.00    -0.296 N 
ATOM     10  H   UNL     1      -4.875  -3.192  -0.291  0.00  0.00    +0.154 HD
BRANCH   9  11
ATOM     11  C   UNL     1      -6.095  -4.856  -0.286  0.00  0.00    +0.034 A 
ATOM     12  C   UNL     1      -6.441  -5.810   0.664  0.00  0.00    +0.023 A 
ATOM     13  C   UNL     1      -7.630  -6.505   0.551  0.00  0.00    +0.003 A 
ATOM     14  C   UNL     1      -8.482  -6.257  -0.507  0.00  0.00    +0.017 A 
ATOM     15  C   UNL     1      -8.143  -5.301  -1.465  0.00  0.00    +0.026 A 
ATOM     16  C   UNL     1      -6.946  -4.595  -1.348  0.00  0.00    +0.040 A 
BRANCH  15  17
ATOM     17  C   UNL     1      -9.025  -5.041  -2.563  0.00  0.00    -0.070 C 
ATOM     18  C   UNL     1      -9.748  -4.829  -3.463  0.00  0.00    +0.009 C 
ENDBRANCH  15  17
ENDBRANCH   9  11
ENDBRANCH   7   9
ENDBRANCH   5   7
ENDBRANCH   3   5
BRANCH   1  19
ATOM     19  C   UNL     1      -1.329  -0.638  -0.376  0.00  0.00    +0.119 C 
BRANCH  19  21
ATOM     20  C   UNL     1       0.171   1.335  -0.693  0.00  0.00    +0.028 C 
ATOM     21  C   UNL     1       0.113  -0.137  -0.277  0.00  0.00    +0.079 C 
BRANCH  21  22
ATOM     22  N   UNL     1       0.584  -0.274   1.103  0.00  0.00    -0.312 N 
ATOM     23  C   UNL     1       1.903  -0.388   1.357  0.00  0.00    +0.216 C 
ATOM     24  O   UNL     1       2.699  -0.377   0.443  0.00  0.00    -0.276 OA
ATOM     25  H   UNL     1      -0.053  -0.282   1.834  0.00  0.00    +0.149 HD
BRANCH  23  26
ATOM     26  C   UNL     1       2.387  -0.529   2.777  0.00  0.00    +0.075 C 
ATOM     27  C   UNL     1       1.960   0.698   3.586  0.00  0.00    +0.013 C 
ATOM     28  C   UNL     1       2.451   0.555   5.028  0.00  0.00    +0.001 C 
ATOM     29  C   UNL     1       3.977   0.444   5.037  0.00  0.00    +0.000 C 
ATOM     30  C   UNL     1       4.405  -0.783   4.229  0.00  0.00    +0.001 C 
ATOM     31  C   UNL     1       3.913  -0.640   2.787  0.00  0.00    +0.013 C 
ENDBRANCH  23  26
ENDBRANCH  21  22
ENDBRANCH  19  21
ENDBRANCH   1  19
TORSDOF 9
