REMARK  Name = ZINC66577061
REMARK  4 active torsions:
REMARK  status: ('A' for Active; 'I' for Inactive)
REMARK    1  A    between atoms: C_3  and  C_8
REMARK    2  A    between atoms: C_9  and  S_10
REMARK    3  A    between atoms: S_10  and  N_13
REMARK    4  A    between atoms: N_13  and  C_14
REMARK                            x       y       z     vdW  Elec       q    Type
REMARK                         _______ _______ _______ _____ _____    ______ ____
ROOT
ATOM      1  S   UNL     1       6.327   2.411  -0.046  0.00  0.00    +0.085 S 
ATOM      2  O   UNL     1       7.124   1.853  -1.083  0.00  0.00    -0.149 OA
ATOM      3  O   UNL     1       5.982   3.789  -0.009  0.00  0.00    -0.149 OA
ENDROOT
BRANCH   1   5
ATOM      4  C   UNL     1       3.656   2.162  -0.022  0.00  0.00    +0.029 C 
ATOM      5  C   UNL     1       4.812   1.512  -0.036  0.00  0.00    +0.159 C 
BRANCH   4   8
ATOM      6  C   UNL     1      -0.017   1.379   0.010  0.00  0.00    +0.002 A 
ATOM      7  C   UNL     1       1.167   2.088   0.002  0.00  0.00    +0.008 A 
ATOM      8  C   UNL     1       2.385   1.408  -0.013  0.00  0.00    -0.023 A 
ATOM      9  C   UNL     1       2.398   0.012  -0.021  0.00  0.00    +0.023 A 
ATOM     10  C   UNL     1       1.207  -0.686  -0.013  0.00  0.00    +0.018 A 
ATOM     11  C   UNL     1       0.002  -0.004   0.002  0.00  0.00    +0.015 A 
ATOM     12 BR   UNL     1       1.222  -2.577  -0.024  0.00  0.00    -0.050 Br
ENDBRANCH   4   8
ENDBRANCH   1   5
BRANCH   1  13
ATOM     13  N   UNL     1       7.104   2.079   1.378  0.00  0.00    -0.093 NA
BRANCH  13  14
ATOM     14  C   UNL     1       8.348   2.661   1.650  0.00  0.00    +0.144 A 
ATOM     15  C   UNL     1       8.930   3.523   0.728  0.00  0.00    +0.151 A 
ATOM     16  C   UNL     1      10.159   4.097   1.001  0.00  0.00    +0.040 A 
ATOM     17  C   UNL     1      10.808   3.813   2.188  0.00  0.00    +0.006 A 
ATOM     18  C   UNL     1      10.232   2.956   3.108  0.00  0.00    +0.040 A 
ATOM     19  C   UNL     1       9.000   2.383   2.845  0.00  0.00    +0.151 A 
ATOM     20  F   UNL     1       8.436   1.551   3.747  0.00  0.00    -0.203 F 
ATOM     21  F   UNL     1       8.297   3.800  -0.433  0.00  0.00    -0.203 F 
ENDBRANCH  13  14
ENDBRANCH   1  13
TORSDOF 4
