REMARK  Name = ZINC39338115
REMARK  4 active torsions:
REMARK  status: ('A' for Active; 'I' for Inactive)
REMARK    1  A    between atoms: C_6  and  C_7
REMARK    2  A    between atoms: C_11  and  C_24
REMARK    3  A    between atoms: C_13  and  C_15
REMARK    4  A    between atoms: N_25  and  O_26
REMARK                            x       y       z     vdW  Elec       q    Type
REMARK                         _______ _______ _______ _____ _____    ______ ____
ROOT
ATOM      1  C   UNL     1      -1.278  -0.728   0.241  0.00  0.00    +0.064 C 
ATOM      2  N   UNL     1      -2.401  -0.031   0.219  0.00  0.00    -0.180 NA
ATOM      3  C   UNL     1      -3.596  -0.597   0.067  0.00  0.00    +0.251 C 
ATOM      4  O   UNL     1      -4.606   0.080   0.051  0.00  0.00    -0.273 OA
ATOM      5  C   UNL     1      -3.670  -2.102  -0.089  0.00  0.00    +0.174 C 
ATOM      6  C   UNL     1      -2.355  -2.857  -0.057  0.00  0.00    -0.019 C 
ATOM      7  C   UNL     1      -1.220  -2.126   0.101  0.00  0.00    +0.031 C 
ENDROOT
BRANCH   6   8
ATOM      8  C   UNL     1      -2.310  -4.317  -0.198  0.00  0.00    -0.017 A 
ATOM      9  C   UNL     1      -1.691  -4.897  -1.313  0.00  0.00    +0.012 A 
ATOM     10  C   UNL     1      -1.650  -6.267  -1.441  0.00  0.00    +0.050 A 
ATOM     11  C   UNL     1      -2.222  -7.079  -0.469  0.00  0.00    +0.166 A 
ATOM     12  C   UNL     1      -2.841  -6.508   0.645  0.00  0.00    +0.167 A 
ATOM     13  C   UNL     1      -2.882  -5.136   0.785  0.00  0.00    +0.057 A 
ATOM     14  O   UNL     1      -3.317  -7.512   1.439  0.00  0.00    -0.453 OA
ATOM     15  C   UNL     1      -3.345  -8.683   0.603  0.00  0.00    +0.466 C 
ATOM     16  O   UNL     1      -2.311  -8.436  -0.368  0.00  0.00    -0.453 OA
ENDBRANCH   6   8
BRANCH   1  22
ATOM     17  C   UNL     1      -0.016   1.397   0.559  0.00  0.00    +0.011 A 
ATOM     18  C   UNL     1       1.172   2.076   0.723  0.00  0.00    +0.016 A 
ATOM     19  C   UNL     1       2.372   1.384   0.746  0.00  0.00    +0.018 A 
ATOM     20  C   UNL     1       2.386   0.006   0.604  0.00  0.00    +0.016 A 
ATOM     21  C   UNL     1       1.205  -0.685   0.440  0.00  0.00    +0.011 A 
ATOM     22  C   UNL     1      -0.009   0.007   0.417  0.00  0.00    -0.002 A 
ATOM     23 BR   UNL     1       3.997   2.324   0.971  0.00  0.00    -0.050 Br
ENDBRANCH   1  22
BRANCH   5  24
ATOM     24  C   UNL     1      -4.347  -2.401  -1.401  0.00  0.00    +0.148 C 
ATOM     25  N   UNL     1      -3.639  -2.580  -2.467  0.00  0.00    -0.076 NA
ATOM     26  N   UNL     1      -5.720  -2.484  -1.465  0.00  0.00    -0.343 N 
ATOM     27  H   UNL     1      -6.252  -2.350  -0.664  0.00  0.00    +0.144 HD
ATOM     28  H   UNL     1      -6.156  -2.677  -2.309  0.00  0.00    +0.144 HD
BRANCH  25  29
ATOM     29  O   UNL     1      -4.275  -2.862  -3.700  0.00  0.00    -0.408 OA
ATOM     30  H   UNL     1      -3.664  -2.980  -4.440  0.00  0.00    +0.328 HD
ENDBRANCH  25  29
ENDBRANCH   5  24
TORSDOF 4
