REMARK  Name = ZINC16957745
REMARK  8 active torsions:
REMARK  status: ('A' for Active; 'I' for Inactive)
REMARK    1  A    between atoms: C_1  and  O_2
REMARK    2  A    between atoms: O_2  and  C_3
REMARK    3  A    between atoms: C_3  and  C_5
REMARK    4  A    between atoms: C_5  and  C_7
REMARK    5  A    between atoms: C_5  and  C_19
REMARK    6  A    between atoms: C_19  and  C_22
REMARK    7  A    between atoms: N_20  and  O_21
REMARK    8  A    between atoms: N_24  and  C_25
REMARK                            x       y       z     vdW  Elec       q    Type
REMARK                         _______ _______ _______ _____ _____    ______ ____
ROOT
ATOM      1  C   UNL     1      -1.234  -2.231   0.050  0.00  0.00    +0.208 C 
ENDROOT
BRANCH   1   2
ATOM      2  C   UNL     1      -2.608  -2.810   0.271  0.00  0.00    +0.126 A 
ATOM      3  C   UNL     1      -3.466  -3.115  -0.879  0.00  0.00    +0.272 A 
ATOM      4  O   UNL     1      -3.076  -2.904  -2.013  0.00  0.00    -0.266 OA
ATOM      5  N   UNL     1      -4.696  -3.633  -0.665  0.00  0.00    -0.319 N 
ATOM      6  H   UNL     1      -5.279  -3.842  -1.411  0.00  0.00    +0.169 HD
ATOM      7  C   UNL     1      -5.108  -3.861   0.632  0.00  0.00    +0.068 A 
ATOM      8  C   UNL     1      -6.368  -4.395   0.886  0.00  0.00    +0.028 A 
ATOM      9  C   UNL     1      -6.769  -4.618   2.185  0.00  0.00    +0.002 A 
ATOM     10  C   UNL     1      -5.925  -4.315   3.245  0.00  0.00    +0.002 A 
ATOM     11  C   UNL     1      -4.686  -3.791   3.021  0.00  0.00    +0.030 A 
ATOM     12  C   UNL     1      -4.253  -3.554   1.707  0.00  0.00    +0.088 A 
ATOM     13  N   UNL     1      -3.027  -3.042   1.482  0.00  0.00    -0.244 NA
ENDBRANCH   1   2
BRANCH   1  14
ATOM     14  C   UNL     1      -1.360  -0.858  -0.559  0.00  0.00    +0.322 C 
ATOM     15  O   UNL     1      -2.282  -0.142  -0.249  0.00  0.00    -0.250 OA
BRANCH  14  17
ATOM     16  C   UNL     1      -0.627   0.880  -1.982  0.00  0.00    +0.280 C 
ATOM     17  O   UNL     1      -0.446  -0.431  -1.446  0.00  0.00    -0.467 OA
ENDBRANCH  14  17
ENDBRANCH   1  14
BRANCH   1  18
ATOM     18  C   UNL     1      -0.513  -2.132   1.369  0.00  0.00    +0.161 C 
ATOM     19  N   UNL     1      -1.146  -2.368   2.471  0.00  0.00    -0.086 NA
BRANCH  18  20
ATOM     20  C   UNL     1       0.916  -1.765   1.403  0.00  0.00    +0.267 C 
ATOM     21  O   UNL     1       1.465  -1.558   2.467  0.00  0.00    -0.268 OA
ATOM     22  N   UNL     1       1.612  -1.659   0.253  0.00  0.00    -0.280 N 
ATOM     23  H   UNL     1       1.157  -1.747  -0.599  0.00  0.00    +0.155 HD
BRANCH  22  24
ATOM     24  C   UNL     1       2.990  -1.425   0.289  0.00  0.00    +0.034 A 
ATOM     25  C   UNL     1       3.763  -1.976   1.303  0.00  0.00    +0.024 A 
ATOM     26  C   UNL     1       5.124  -1.742   1.336  0.00  0.00    +0.017 A 
ATOM     27  C   UNL     1       5.717  -0.959   0.361  0.00  0.00    +0.018 A 
ATOM     28  C   UNL     1       4.948  -0.408  -0.649  0.00  0.00    +0.017 A 
ATOM     29  C   UNL     1       3.588  -0.644  -0.691  0.00  0.00    +0.024 A 
ATOM     30 BR   UNL     1       7.580  -0.640   0.411  0.00  0.00    -0.050 Br
ENDBRANCH  22  24
ENDBRANCH  18  20
BRANCH  19  31
ATOM     31  O   UNL     1      -0.487  -2.209   3.714  0.00  0.00    -0.409 OA
ATOM     32  H   UNL     1      -1.040  -2.409   4.481  0.00  0.00    +0.328 HD
ENDBRANCH  19  31
ENDBRANCH   1  18
TORSDOF 7
