REMARK  Name = ZINC43144863
REMARK  6 active torsions:
REMARK  status: ('A' for Active; 'I' for Inactive)
REMARK    1  A    between atoms: C_6  and  C_7
REMARK    2  A    between atoms: C_7  and  C_9
REMARK    3  A    between atoms: C_7  and  N_22
REMARK    4  A    between atoms: C_9  and  N_10
REMARK    5  A    between atoms: N_13  and  N_14
REMARK    6  A    between atoms: N_14  and  C_15
REMARK                            x       y       z     vdW  Elec       q    Type
REMARK                         _______ _______ _______ _____ _____    ______ ____
ROOT
ATOM      1  C   UNL     1      -1.709  -1.221   1.443  0.00  0.00    +0.129 C 
ENDROOT
BRANCH   1   2
ATOM      2  N   UNL     1      -1.820  -0.038   2.300  0.00  0.00    -0.296 N 
ATOM      3  C   UNL     1      -2.074  -0.181   3.616  0.00  0.00    +0.316 C 
ATOM      4  O   UNL     1      -2.212  -1.292   4.092  0.00  0.00    -0.251 OA
ATOM      5  N   UNL     1      -2.175   0.907   4.405  0.00  0.00    -0.220 N 
ATOM      6  H   UNL     1      -1.710   0.848   1.921  0.00  0.00    +0.150 HD
ATOM      7  H   UNL     1      -2.359   0.804   5.352  0.00  0.00    +0.174 HD
BRANCH   5   8
ATOM      8  N   UNL     1      -2.017   2.187   3.857  0.00  0.00    -0.263 N 
ATOM      9  H   UNL     1      -1.834   2.290   2.910  0.00  0.00    +0.170 HD
BRANCH   8  10
ATOM     10  C   UNL     1      -2.122   3.316   4.676  0.00  0.00    +0.045 A 
ATOM     11  C   UNL     1      -2.378   3.169   6.033  0.00  0.00    +0.027 A 
ATOM     12  C   UNL     1      -2.482   4.286   6.839  0.00  0.00    +0.040 A 
ATOM     13  C   UNL     1      -2.331   5.550   6.296  0.00  0.00    +0.124 A 
ATOM     14  C   UNL     1      -2.075   5.698   4.943  0.00  0.00    +0.040 A 
ATOM     15  C   UNL     1      -1.965   4.585   4.134  0.00  0.00    +0.027 A 
ATOM     16  F   UNL     1      -2.433   6.641   7.087  0.00  0.00    -0.205 F 
ENDBRANCH   8  10
ENDBRANCH   5   8
ENDBRANCH   1   2
BRANCH   1  17
ATOM     17  C   UNL     1      -1.286  -0.793   0.036  0.00  0.00    +0.104 C 
BRANCH  17  23
ATOM     18  C   UNL     1       0.231   1.197   0.087  0.00  0.00    +0.008 A 
ATOM     19  C   UNL     1       1.491   1.762   0.137  0.00  0.00    +0.038 A 
ATOM     20  C   UNL     1       2.611   0.951   0.190  0.00  0.00    +0.123 A 
ATOM     21  C   UNL     1       2.468  -0.426   0.192  0.00  0.00    +0.038 A 
ATOM     22  C   UNL     1       1.207  -0.989   0.143  0.00  0.00    +0.008 A 
ATOM     23  C   UNL     1       0.089  -0.178   0.090  0.00  0.00    -0.029 A 
ATOM     24  F   UNL     1       3.844   1.502   0.238  0.00  0.00    -0.205 F 
ENDBRANCH  17  23
BRANCH  17  25
ATOM     25  N   UNL     1      -1.263  -1.967  -0.846  0.00  0.00    -0.290 NA
ATOM     26  C   UNL     1      -2.573  -2.634  -0.870  0.00  0.00    +0.113 C 
ATOM     27  C   UNL     1      -2.487  -3.883  -1.752  0.00  0.00    +0.175 C 
ATOM     28  O   UNL     1      -2.047  -3.507  -3.060  0.00  0.00    -0.377 OA
ATOM     29  C   UNL     1      -0.774  -2.855  -3.074  0.00  0.00    +0.175 C 
ATOM     30  C   UNL     1      -0.842  -1.596  -2.205  0.00  0.00    +0.113 C 
ENDBRANCH  17  25
ENDBRANCH   1  17
TORSDOF 6
