REMARK  Name = ZINC40801438
REMARK  5 active torsions:
REMARK  status: ('A' for Active; 'I' for Inactive)
REMARK    1  A    between atoms: C_5  and  C_7
REMARK    2  A    between atoms: C_7  and  N_8
REMARK    3  A    between atoms: C_10  and  N_23
REMARK    4  A    between atoms: C_11  and  O_15
REMARK    5  A    between atoms: O_15  and  C_16
REMARK                            x       y       z     vdW  Elec       q    Type
REMARK                         _______ _______ _______ _____ _____    ______ ____
ROOT
ATOM      1  N   UNL     1       1.414  -2.672   1.357  0.00  0.00    -0.323 N 
ATOM      2  C   UNL     1       1.479  -4.040   1.595  0.00  0.00    +0.147 A 
ATOM      3  C   UNL     1       1.760  -4.524   2.876  0.00  0.00    +0.128 A 
ATOM      4  C   UNL     1       1.813  -5.905   3.060  0.00  0.00    +0.246 A 
ATOM      5  N   UNL     1       1.596  -6.703   2.019  0.00  0.00    -0.199 NA
ATOM      6  C   UNL     1       1.334  -6.206   0.827  0.00  0.00    +0.227 A 
ATOM      7  N   UNL     1       1.270  -4.908   0.610  0.00  0.00    -0.219 NA
ATOM      8  H   UNL     1       1.568  -2.046   2.082  0.00  0.00    +0.148 HD
ENDROOT
BRANCH   3   9
ATOM      9  N   UNL     1       1.983  -3.645   3.947  0.00  0.00    -0.351 N 
ATOM     10  H   UNL     1       1.943  -2.687   3.804  0.00  0.00    +0.143 HD
ATOM     11  H   UNL     1       2.177  -3.996   4.830  0.00  0.00    +0.143 HD
ENDBRANCH   3   9
BRANCH   1  12
ATOM     12  C   UNL     1       1.113  -2.177   0.012  0.00  0.00    +0.139 C 
BRANCH  12  17
ATOM     13  C   UNL     1      -0.111   1.394   0.087  0.00  0.00    +0.000 A 
ATOM     14  C   UNL     1       1.080   2.095   0.041  0.00  0.00    +0.001 A 
ATOM     15  C   UNL     1       2.282   1.415  -0.014  0.00  0.00    +0.020 A 
ATOM     16  C   UNL     1       2.293   0.031  -0.024  0.00  0.00    +0.046 A 
ATOM     17  C   UNL     1       1.101  -0.670   0.023  0.00  0.00    -0.012 A 
ATOM     18  C   UNL     1      -0.100   0.012   0.077  0.00  0.00    +0.006 A 
ATOM     19 CL   UNL     1       3.802  -0.824  -0.094  0.00  0.00    -0.083 Cl
ENDBRANCH  12  17
ENDBRANCH   1  12
BRANCH   4  20
ATOM     20  O   UNL     1       2.083  -6.427   4.283  0.00  0.00    -0.436 OA
BRANCH  20  21
ATOM     21  C   UNL     1       2.023  -7.777   4.428  0.00  0.00    +0.130 A 
ATOM     22  C   UNL     1       3.059  -8.572   3.960  0.00  0.00    +0.047 A 
ATOM     23  C   UNL     1       2.996  -9.944   4.109  0.00  0.00    +0.019 A 
ATOM     24  C   UNL     1       1.902 -10.525   4.724  0.00  0.00    +0.018 A 
ATOM     25  C   UNL     1       0.868  -9.733   5.191  0.00  0.00    +0.019 A 
ATOM     26  C   UNL     1       0.929  -8.361   5.050  0.00  0.00    +0.047 A 
ATOM     27 BR   UNL     1       1.819 -12.403   4.927  0.00  0.00    -0.050 Br
ENDBRANCH  20  21
ENDBRANCH   4  20
TORSDOF 5
