REMARK  Name = ZINC17084591
REMARK  10 active torsions:
REMARK  status: ('A' for Active; 'I' for Inactive)
REMARK    1  A    between atoms: C_4  and  C_7
REMARK    2  A    between atoms: C_7  and  C_8
REMARK    3  A    between atoms: C_8  and  C_9
REMARK    4  A    between atoms: C_9  and  C_10
REMARK    5  A    between atoms: C_10  and  N_11
REMARK    6  A    between atoms: C_14  and  C_25
REMARK    7  A    between atoms: N_18  and  C_19
REMARK    8  A    between atoms: C_25  and  C_26
REMARK    9  A    between atoms: N_28  and  C_29
REMARK   10  A    between atoms: C_33  and  N_35
REMARK                            x       y       z     vdW  Elec       q    Type
REMARK                         _______ _______ _______ _____ _____    ______ ____
ROOT
ATOM      1  N   UNL     1       1.098   1.940   0.000  0.00  0.00    -0.250 N 
ATOM      2  C   UNL     1      -0.009   1.217   0.003  0.00  0.00    +0.235 C 
ATOM      3  O   UNL     1       0.013   0.004  -0.011  0.00  0.00    -0.274 OA
ATOM      4  C   UNL     1      -1.312   2.001   0.017  0.00  0.00    +0.149 C 
ATOM      5  S   UNL     1      -0.662   3.718   0.036  0.00  0.00    -0.077 S 
ATOM      6  C   UNL     1       1.079   3.318   0.015  0.00  0.00    +0.164 C 
ATOM      7  N   UNL     1       2.099   4.143   0.014  0.00  0.00    -0.226 NA
ENDROOT
BRANCH   7   8
ATOM      8  C   UNL     1       1.887   5.496   0.031  0.00  0.00    +0.067 A 
ATOM      9  C   UNL     1       0.931   6.066  -0.812  0.00  0.00    +0.028 A 
ATOM     10  C   UNL     1       0.718   7.429  -0.786  0.00  0.00    +0.002 A 
ATOM     11  C   UNL     1       1.458   8.232   0.064  0.00  0.00    +0.000 A 
ATOM     12  C   UNL     1       2.411   7.674   0.898  0.00  0.00    +0.002 A 
ATOM     13  C   UNL     1       2.630   6.312   0.886  0.00  0.00    +0.028 A 
ENDBRANCH   7   8
BRANCH   1  14
ATOM     14  C   UNL     1       2.391   1.251  -0.019  0.00  0.00    +0.115 C 
BRANCH  14  15
ATOM     15  C   UNL     1       2.827   1.028  -1.469  0.00  0.00    +0.020 C 
BRANCH  15  16
ATOM     16  C   UNL     1       4.178   0.309  -1.490  0.00  0.00    +0.006 C 
BRANCH  16  17
ATOM     17  C   UNL     1       4.614   0.085  -2.939  0.00  0.00    +0.035 C 
BRANCH  17  21
ATOM     18  C   UNL     1       8.384  -1.922  -2.998  0.00  0.00    +0.000 A 
ATOM     19  C   UNL     1       7.212  -2.654  -2.994  0.00  0.00    +0.000 A 
ATOM     20  C   UNL     1       5.992  -2.005  -2.975  0.00  0.00    +0.003 A 
ATOM     21  C   UNL     1       5.944  -0.623  -2.959  0.00  0.00    -0.047 A 
ATOM     22  C   UNL     1       7.117   0.109  -2.968  0.00  0.00    +0.003 A 
ATOM     23  C   UNL     1       8.337  -0.541  -2.982  0.00  0.00    +0.000 A 
ENDBRANCH  17  21
ENDBRANCH  16  17
ENDBRANCH  15  16
ENDBRANCH  14  15
ENDBRANCH   1  14
BRANCH   4  24
ATOM     24  C   UNL     1      -2.135   1.731  -1.244  0.00  0.00    +0.120 C 
BRANCH  24  25
ATOM     25  C   UNL     1      -3.466   2.428  -1.133  0.00  0.00    +0.219 C 
ATOM     26  O   UNL     1      -3.731   3.076  -0.143  0.00  0.00    -0.275 OA
ATOM     27  N   UNL     1      -4.363   2.331  -2.134  0.00  0.00    -0.285 N 
ATOM     28  H   UNL     1      -4.127   1.869  -2.954  0.00  0.00    +0.155 HD
BRANCH  27  29
ATOM     29  C   UNL     1      -5.635   2.896  -1.992  0.00  0.00    +0.036 A 
ATOM     30  C   UNL     1      -5.795   4.082  -1.286  0.00  0.00    +0.023 A 
ATOM     31  C   UNL     1      -7.051   4.637  -1.147  0.00  0.00    +0.004 A 
ATOM     32  C   UNL     1      -8.151   4.014  -1.709  0.00  0.00    +0.033 A 
ATOM     33  C   UNL     1      -7.995   2.834  -2.413  0.00  0.00    +0.128 A 
ATOM     34  C   UNL     1      -6.740   2.276  -2.560  0.00  0.00    +0.056 A 
BRANCH  33  35
ATOM     35  N   UNL     1      -9.174   2.170  -3.013  0.00  0.00    +0.056 N 
ATOM     36  O   UNL     1     -10.280   2.663  -2.887  0.00  0.00    -0.126 OA
ATOM     37  O   UNL     1      -9.038   1.130  -3.633  0.00  0.00    -0.126 OA
ENDBRANCH  33  35
ENDBRANCH  27  29
ENDBRANCH  24  25
ENDBRANCH   4  24
TORSDOF 10
