REMARK  Name = ZINC19770138
REMARK  6 active torsions:
REMARK  status: ('A' for Active; 'I' for Inactive)
REMARK    1  A    between atoms: C_1  and  C_2
REMARK    2  A    between atoms: C_3  and  C_24
REMARK    3  A    between atoms: C_4  and  C_14
REMARK    4  A    between atoms: C_16  and  O_22
REMARK    5  A    between atoms: C_17  and  O_21
REMARK    6  A    between atoms: O_22  and  C_23
REMARK                            x       y       z     vdW  Elec       q    Type
REMARK                         _______ _______ _______ _____ _____    ______ ____
ROOT
ATOM      1  C   UNL     1       3.194   3.122   0.725  0.00  0.00    +0.061 C 
ATOM      2  C   UNL     1       1.769   2.633   0.766  0.00  0.00    +0.019 C 
ATOM      3  C   UNL     1       1.398   1.598  -0.003  0.00  0.00    +0.058 C 
ATOM      4  C   UNL     1      -0.013   1.086   0.008  0.00  0.00    +0.096 C 
ATOM      5  C   UNL     1      -0.753   1.564   1.232  0.00  0.00    +0.024 C 
ATOM      6  C   UNL     1      -0.294   2.611   1.951  0.00  0.00    +0.015 C 
ATOM      7  N   UNL     1       0.861   3.248   1.588  0.00  0.00    -0.320 N 
ATOM      8  C   UNL     1      -1.040   3.108   3.164  0.00  0.00    +0.051 C 
ATOM      9  C   UNL     1      -1.762   1.938   3.837  0.00  0.00    +0.014 C 
ATOM     10  C   UNL     1      -2.715   1.304   2.817  0.00  0.00    +0.080 C 
ATOM     11  C   UNL     1      -1.929   0.890   1.604  0.00  0.00    +0.162 C 
ATOM     12  O   UNL     1      -2.318  -0.045   0.932  0.00  0.00    -0.292 OA
ATOM     13  H   UNL     1       1.058   4.264   1.963  0.00  0.00    +0.152 HD
ENDROOT
BRANCH   4  14
ATOM     14  C   UNL     1      -0.727   1.577  -1.225  0.00  0.00    -0.030 A 
ATOM     15  C   UNL     1      -1.234   0.670  -2.136  0.00  0.00    +0.054 A 
ATOM     16  C   UNL     1      -1.891   1.120  -3.270  0.00  0.00    +0.163 A 
ATOM     17  C   UNL     1      -2.040   2.486  -3.489  0.00  0.00    +0.177 A 
ATOM     18  C   UNL     1      -1.529   3.391  -2.571  0.00  0.00    +0.086 A 
ATOM     19  C   UNL     1      -0.878   2.934  -1.438  0.00  0.00    +0.028 A 
ATOM     20 CL   UNL     1      -1.712   5.096  -2.840  0.00  0.00    -0.080 Cl
BRANCH  17  21
ATOM     21  O   UNL     1      -2.684   2.932  -4.600  0.00  0.00    -0.502 OA
ATOM     22  H   UNL     1      -2.801   4.012  -4.772  0.00  0.00    +0.292 HD
ENDBRANCH  17  21
BRANCH  16  23
ATOM     23  O   UNL     1      -2.391   0.228  -4.167  0.00  0.00    -0.491 OA
ATOM     24  C   UNL     1      -2.202  -1.159  -3.877  0.00  0.00    +0.277 C 
ENDBRANCH  16  23
ENDBRANCH   4  14
BRANCH   3  25
ATOM     25  C   UNL     1       2.366   0.969  -0.850  0.00  0.00    +0.097 C 
ATOM     26  N   UNL     1       3.134   0.471  -1.522  0.00  0.00    -0.191 NA
ENDBRANCH   3  25
TORSDOF 4
