REMARK  Name = ZINC39884079
REMARK  5 active torsions:
REMARK  status: ('A' for Active; 'I' for Inactive)
REMARK    1  A    between atoms: C_1  and  C_2
REMARK    2  A    between atoms: C_5  and  N_8
REMARK    3  A    between atoms: C_9  and  C_11
REMARK    4  A    between atoms: C_11  and  N_12
REMARK    5  A    between atoms: C_18  and  C_33
REMARK                            x       y       z     vdW  Elec       q    Type
REMARK                         _______ _______ _______ _____ _____    ______ ____
ROOT
ATOM      1  N   UNL     1       0.538  -6.910   2.382  0.00  0.00    -0.288 N 
ATOM      2  C   UNL     1       1.749  -7.001   3.030  0.00  0.00    +0.091 A 
ATOM      3  C   UNL     1       1.681  -7.452   4.296  0.00  0.00    +0.033 A 
ATOM      4  S   UNL     1      -0.053  -7.749   4.533  0.00  0.00    -0.030 S 
ATOM      5  C   UNL     1      -0.595  -7.261   3.017  0.00  0.00    +0.292 A 
ATOM      6  O   UNL     1      -1.738  -7.234   2.595  0.00  0.00    -0.259 OA
ATOM      7  C   UNL     1       2.782  -7.639   5.277  0.00  0.00    +0.072 C 
ATOM      8  C   UNL     1       4.154  -7.531   4.729  0.00  0.00    +0.110 C 
ATOM      9  C   UNL     1       4.439  -6.432   3.697  0.00  0.00    +0.152 C 
ATOM     10  S   UNL     1       3.304  -6.588   2.282  0.00  0.00    -0.093 S 
ATOM     11  C   UNL     1       5.798  -6.943   3.187  0.00  0.00    +0.244 C 
ATOM     12  O   UNL     1       6.687  -6.272   2.719  0.00  0.00    -0.273 OA
ATOM     13  N   UNL     1       5.813  -8.280   3.361  0.00  0.00    -0.162 N 
ATOM     14  C   UNL     1       4.800  -8.739   4.127  0.00  0.00    +0.235 C 
ATOM     15  O   UNL     1       4.486  -9.893   4.296  0.00  0.00    -0.274 OA
ATOM     16  C   UNL     1       6.745  -9.084   2.811  0.00  0.00    +0.313 C 
ATOM     17  O   UNL     1       6.704 -10.282   3.004  0.00  0.00    -0.252 OA
ATOM     18  N   UNL     1       7.722  -8.557   2.046  0.00  0.00    -0.313 N 
ATOM     19  H   UNL     1       7.754  -7.600   1.892  0.00  0.00    +0.147 HD
ATOM     20  H   UNL     1       8.393  -9.135   1.650  0.00  0.00    +0.147 HD
ENDROOT
BRANCH   7  21
ATOM     21  C   UNL     1       2.632  -9.003   5.899  0.00  0.00    -0.039 A 
ATOM     22  C   UNL     1       2.108 -10.047   5.159  0.00  0.00    +0.004 A 
ATOM     23  C   UNL     1       1.971 -11.298   5.730  0.00  0.00    +0.000 A 
ATOM     24  C   UNL     1       2.359 -11.506   7.041  0.00  0.00    +0.000 A 
ATOM     25  C   UNL     1       2.884 -10.463   7.780  0.00  0.00    +0.000 A 
ATOM     26  C   UNL     1       3.025  -9.212   7.208  0.00  0.00    +0.004 A 
ENDBRANCH   7  21
BRANCH   1  27
ATOM     27  C   UNL     1       0.482  -6.423   1.001  0.00  0.00    +0.222 C 
BRANCH  27  29
ATOM     28  N   UNL     1       0.240  -4.255  -0.164  0.00  0.00    -0.284 N 
ATOM     29  C   UNL     1       0.316  -4.926   1.002  0.00  0.00    +0.237 C 
ATOM     30  O   UNL     1       0.251  -4.324   2.054  0.00  0.00    -0.274 OA
ATOM     31  H   UNL     1       0.217  -4.742  -1.003  0.00  0.00    +0.155 HD
BRANCH  28  36
ATOM     32  C   UNL     1       0.053   1.415  -0.171  0.00  0.00    +0.044 C 
ATOM     33  C   UNL     1       0.102  -0.091  -0.169  0.00  0.00    -0.050 A 
ATOM     34  C   UNL     1       0.824  -0.756   0.805  0.00  0.00    +0.005 A 
ATOM     35  C   UNL     1       0.872  -2.137   0.809  0.00  0.00    +0.023 A 
ATOM     36  C   UNL     1       0.193  -2.856  -0.165  0.00  0.00    +0.033 A 
ATOM     37  C   UNL     1      -0.531  -2.185  -1.142  0.00  0.00    +0.023 A 
ATOM     38  C   UNL     1      -0.579  -0.805  -1.138  0.00  0.00    +0.005 A 
ENDBRANCH  28  36
ENDBRANCH  27  29
ENDBRANCH   1  27
TORSDOF 4
