REMARK  Name = ZINC09479203
REMARK  5 active torsions:
REMARK  status: ('A' for Active; 'I' for Inactive)
REMARK    1  A    between atoms: C_1  and  C_2
REMARK    2  A    between atoms: N_20  and  C_23
REMARK    3  A    between atoms: C_25  and  C_32
REMARK    4  A    between atoms: C_28  and  O_29
REMARK    5  A    between atoms: O_29  and  C_30
REMARK                            x       y       z     vdW  Elec       q    Type
REMARK                         _______ _______ _______ _____ _____    ______ ____
ROOT
ATOM      1  C   UNL     1      -3.031  -0.942  -4.050  0.00  0.00    +0.044 C 
ATOM      2  C   UNL     1      -2.624  -1.085  -2.606  0.00  0.00    -0.050 A 
ATOM      3  C   UNL     1      -3.372  -1.873  -1.751  0.00  0.00    +0.005 A 
ATOM      4  C   UNL     1      -3.003  -2.009  -0.428  0.00  0.00    +0.024 A 
ATOM      5  C   UNL     1      -1.874  -1.353   0.056  0.00  0.00    +0.036 A 
ATOM      6  C   UNL     1      -1.130  -0.562  -0.815  0.00  0.00    -0.027 A 
ATOM      7  C   UNL     1      -1.500  -0.430  -2.134  0.00  0.00    +0.008 A 
ATOM      8  C   UNL     1       0.002  -0.004   0.002  0.00  0.00    +0.053 C 
ATOM      9  C   UNL     1      -0.019   1.529   0.010  0.00  0.00    +0.089 C 
ATOM     10  C   UNL     1       1.478   1.943  -0.002  0.00  0.00    +0.074 C 
ATOM     11  C   UNL     1       2.263   0.619  -0.014  0.00  0.00    -0.054 C 
ATOM     12  C   UNL     1       1.319  -0.185  -2.018  0.00  0.00    -0.076 C 
ATOM     13  C   UNL     1       2.781   0.161  -2.367  0.00  0.00    -0.020 C 
ATOM     14  C   UNL     1       3.390   0.704  -1.060  0.00  0.00    -0.016 C 
ATOM     15  C   UNL     1       1.638   2.635  -1.337  0.00  0.00    +0.229 C 
ATOM     16  O   UNL     1       2.668   3.117  -1.757  0.00  0.00    -0.275 OA
ATOM     17  N   UNL     1       0.466   2.632  -1.982  0.00  0.00    -0.206 N 
ATOM     18  C   UNL     1      -0.532   2.039  -1.317  0.00  0.00    +0.230 C 
ATOM     19  O   UNL     1      -1.671   1.927  -1.717  0.00  0.00    -0.275 OA
ATOM     20  C   UNL     1      -0.202  -0.563   1.384  0.00  0.00    +0.212 C 
ATOM     21  O   UNL     1       0.494  -0.361   2.357  0.00  0.00    -0.277 OA
ATOM     22  N   UNL     1      -1.306  -1.332   1.332  0.00  0.00    -0.286 N 
ATOM     23  H   UNL     1      -1.666  -1.815   2.092  0.00  0.00    +0.155 HD
ATOM     24  N   UNL     1       1.320  -0.337  -0.548  0.00  0.00    +0.395 N 
ATOM     25  H   UNL     1       1.582  -1.295  -0.289  0.00  0.00    -0.079 HD
ENDROOT
BRANCH  17  26
ATOM     26  C   UNL     1       0.297   3.205  -3.252  0.00  0.00    +0.086 A 
ATOM     27  C   UNL     1       0.503   2.442  -4.392  0.00  0.00    +0.032 A 
ATOM     28  C   UNL     1       0.331   3.005  -5.642  0.00  0.00    -0.030 A 
ATOM     29  C   UNL     1      -0.035   4.335  -5.760  0.00  0.00    +0.047 A 
ATOM     30  C   UNL     1      -0.237   5.103  -4.628  0.00  0.00    +0.067 A 
ATOM     31  C   UNL     1      -0.072   4.542  -3.371  0.00  0.00    +0.143 A 
ATOM     32 CL   UNL     1      -0.242   5.039  -7.333  0.00  0.00    -0.083 Cl
ATOM     33  C   UNL     1       0.550   2.173  -6.878  0.00  0.00    +0.045 C 
BRANCH  31  34
ATOM     34  O   UNL     1      -0.271   5.296  -2.257  0.00  0.00    -0.493 OA
ATOM     35  C   UNL     1      -0.648   6.660  -2.456  0.00  0.00    +0.277 C 
ENDBRANCH  31  34
ENDBRANCH  17  26
TORSDOF 2
