REMARK  Name = ZINC12465437
REMARK  12 active torsions:
REMARK  status: ('A' for Active; 'I' for Inactive)
REMARK    1  A    between atoms: C_1  and  C_2
REMARK    2  A    between atoms: C_2  and  O_3
REMARK    3  A    between atoms: O_3  and  C_4
REMARK    4  A    between atoms: C_4  and  C_6
REMARK    5  A    between atoms: C_6  and  N_7
REMARK    6  A    between atoms: C_11  and  C_33
REMARK    7  A    between atoms: N_16  and  C_17
REMARK    8  A    between atoms: C_17  and  C_19
REMARK    9  A    between atoms: N_24  and  S_25
REMARK   10  A    between atoms: S_25  and  C_28
REMARK   11  A    between atoms: C_33  and  C_34
REMARK   12  A    between atoms: C_33  and  C_35
REMARK                            x       y       z     vdW  Elec       q    Type
REMARK                         _______ _______ _______ _____ _____    ______ ____
ROOT
ATOM      1  N   UNL     1       5.910   7.909   2.265  0.00  0.00    -0.310 N 
ATOM      2  C   UNL     1       6.675   8.824   1.565  0.00  0.00    +0.058 A 
ATOM      3  C   UNL     1       6.915  10.173   1.871  0.00  0.00    +0.027 A 
ATOM      4  C   UNL     1       7.710  10.946   1.058  0.00  0.00    +0.006 A 
ATOM      5  C   UNL     1       8.296  10.422  -0.082  0.00  0.00    -0.044 A 
ATOM      6  C   UNL     1       8.076   9.096  -0.407  0.00  0.00    +0.021 A 
ATOM      7  C   UNL     1       7.281   8.321   0.405  0.00  0.00    +0.039 A 
ATOM      8  S   UNL     1       6.755   6.626   0.373  0.00  0.00    -0.052 S 
ATOM      9  C   UNL     1       5.791   6.633   1.814  0.00  0.00    +0.167 A 
ATOM     10  N   UNL     1       5.104   5.627   2.353  0.00  0.00    -0.155 NA
ENDROOT
BRANCH   5  11
ATOM     11  C   UNL     1       9.165  11.287  -0.959  0.00  0.00    +0.013 C 
ATOM     12  C   UNL     1       8.345  12.470  -1.480  0.00  0.00    +0.012 C 
ATOM     13  C   UNL     1      10.351  11.808  -0.145  0.00  0.00    +0.012 C 
ENDBRANCH   5  11
BRANCH  10  14
ATOM     14  C   UNL     1       5.103   4.435   1.767  0.00  0.00    +0.257 C 
ATOM     15  O   UNL     1       5.729   4.262   0.739  0.00  0.00    -0.272 OA
BRANCH  14  16
ATOM     16  C   UNL     1       4.325   3.297   2.376  0.00  0.00    +0.168 C 
ATOM     17  C   UNL     1       4.882   2.968   3.777  0.00  0.00    +0.031 C 
ATOM     18  C   UNL     1       4.808   1.419   3.828  0.00  0.00    +0.019 C 
ATOM     19  C   UNL     1       5.130   1.044   2.360  0.00  0.00    +0.110 C 
ATOM     20  N   UNL     1       4.477   2.089   1.552  0.00  0.00    -0.164 NA
BRANCH  20  21
ATOM     21  S   UNL     1       4.001   1.932  -0.027  0.00  0.00    +0.068 S 
ATOM     22  O   UNL     1       4.798   0.900  -0.591  0.00  0.00    -0.152 OA
ATOM     23  O   UNL     1       3.956   3.244  -0.570  0.00  0.00    -0.152 OA
BRANCH  21  24
ATOM     24  C   UNL     1       2.343   1.336  -0.013  0.00  0.00    +0.143 A 
ATOM     25  C   UNL     1       1.183   2.038   0.002  0.00  0.00    +0.036 A 
ATOM     26  C   UNL     1      -0.016   1.351   0.009  0.00  0.00    +0.010 A 
ATOM     27  C   UNL     1       0.002  -0.004   0.002  0.00  0.00    +0.047 A 
ATOM     28  S   UNL     1       1.754  -0.349  -0.017  0.00  0.00    -0.077 S 
ENDBRANCH  21  24
ENDBRANCH  20  21
ENDBRANCH  14  16
ENDBRANCH  10  14
BRANCH   1  29
ATOM     29  C   UNL     1       5.226   8.317   3.495  0.00  0.00    +0.244 C 
BRANCH  29  30
ATOM     30  C   UNL     1       6.133   8.082   4.675  0.00  0.00    +0.327 C 
ATOM     31  O   UNL     1       7.237   7.621   4.507  0.00  0.00    -0.249 OA
BRANCH  30  32
ATOM     32  O   UNL     1       5.714   8.385   5.914  0.00  0.00    -0.464 OA
BRANCH  32  34
ATOM     33  C   UNL     1       5.991   8.536   8.329  0.00  0.00    +0.048 C 
ATOM     34  C   UNL     1       6.640   8.132   7.003  0.00  0.00    +0.229 C 
ENDBRANCH  32  34
ENDBRANCH  30  32
ENDBRANCH  29  30
ENDBRANCH   1  29
TORSDOF 9
