REMARK  Name = ZINC31002074
REMARK  10 active torsions:
REMARK  status: ('A' for Active; 'I' for Inactive)
REMARK    1  A    between atoms: C_1  and  C_2
REMARK    2  A    between atoms: C_5  and  N_8
REMARK    3  A    between atoms: N_8  and  S_9
REMARK    4  A    between atoms: S_9  and  C_12
REMARK    5  A    between atoms: C_15  and  C_18
REMARK    6  A    between atoms: N_20  and  C_21
REMARK    7  A    between atoms: C_24  and  N_27
REMARK    8  A    between atoms: N_30  and  C_31
REMARK    9  A    between atoms: C_31  and  C_32
REMARK   10  A    between atoms: C_31  and  C_33
REMARK                            x       y       z     vdW  Elec       q    Type
REMARK                         _______ _______ _______ _____ _____    ______ ____
ROOT
ATOM      1  C   UNL     1       5.710   3.811   0.224  0.00  0.00    +0.248 C 
ATOM      2  O   UNL     1       6.229   4.110  -0.833  0.00  0.00    -0.270 OA
ATOM      3  N   UNL     1       6.397   3.950   1.375  0.00  0.00    -0.282 N 
ATOM      4  H   UNL     1       5.904   3.747   2.338  0.00  0.00    +0.155 HD
ENDROOT
BRANCH   1   8
ATOM      5  C   UNL     1       1.729   2.330   0.293  0.00  0.00    +0.109 A 
ATOM      6  C   UNL     1       2.430   2.476   1.477  0.00  0.00    +0.029 A 
ATOM      7  C   UNL     1       3.725   2.952   1.461  0.00  0.00    +0.015 A 
ATOM      8  C   UNL     1       4.324   3.296   0.248  0.00  0.00    +0.037 A 
ATOM      9  C   UNL     1       3.610   3.151  -0.942  0.00  0.00    +0.015 A 
ATOM     10  C   UNL     1       2.317   2.670  -0.913  0.00  0.00    +0.029 A 
BRANCH   5  11
ATOM     11  S   UNL     1       0.078   1.716   0.321  0.00  0.00    +0.072 S 
ATOM     12  O   UNL     1      -0.518   2.096  -0.912  0.00  0.00    -0.150 OA
ATOM     13  O   UNL     1      -0.471   2.087   1.578  0.00  0.00    -0.150 OA
BRANCH  11  14
ATOM     14  N   UNL     1       0.170   0.063   0.313  0.00  0.00    -0.216 N 
ATOM     15  H   UNL     1      -0.250  -0.507  -0.528  0.00  0.00    +0.174 HD
BRANCH  14  20
ATOM     16  C   UNL     1       2.650  -2.660   4.626  0.00  0.00    +0.044 C 
ATOM     17  C   UNL     1       1.991  -1.937   3.479  0.00  0.00    -0.050 A 
ATOM     18  C   UNL     1       0.732  -1.389   3.642  0.00  0.00    +0.005 A 
ATOM     19  C   UNL     1       0.125  -0.725   2.594  0.00  0.00    +0.025 A 
ATOM     20  C   UNL     1       0.781  -0.608   1.376  0.00  0.00    +0.048 A 
ATOM     21  C   UNL     1       2.043  -1.164   1.214  0.00  0.00    +0.025 A 
ATOM     22  C   UNL     1       2.647  -1.822   2.268  0.00  0.00    +0.005 A 
ENDBRANCH  14  20
ENDBRANCH  11  14
ENDBRANCH   5  11
ENDBRANCH   1   8
BRANCH   3  23
ATOM     23  C   UNL     1       7.738   4.351   1.346  0.00  0.00    +0.034 A 
ATOM     24  C   UNL     1       8.636   3.843   2.276  0.00  0.00    +0.025 A 
ATOM     25  C   UNL     1       9.959   4.235   2.244  0.00  0.00    +0.025 A 
ATOM     26  C   UNL     1      10.390   5.146   1.288  0.00  0.00    +0.035 A 
ATOM     27  C   UNL     1       9.491   5.658   0.362  0.00  0.00    +0.025 A 
ATOM     28  C   UNL     1       8.169   5.262   0.390  0.00  0.00    +0.025 A 
BRANCH  26  29
ATOM     29  N   UNL     1      11.732   5.549   1.259  0.00  0.00    -0.269 N 
ATOM     30  C   UNL     1      12.704   4.677   1.594  0.00  0.00    +0.304 C 
ATOM     31  O   UNL     1      12.427   3.516   1.823  0.00  0.00    -0.253 OA
ATOM     32  N   UNL     1      13.983   5.094   1.675  0.00  0.00    -0.297 N 
ATOM     33  H   UNL     1      11.992   6.576   0.963  0.00  0.00    +0.156 HD
ATOM     34  H   UNL     1      14.234   6.144   1.468  0.00  0.00    +0.151 HD
BRANCH  32  35
ATOM     35  C   UNL     1      15.040   4.146   2.039  0.00  0.00    +0.068 C 
ATOM     36  C   UNL     1      15.514   3.406   0.787  0.00  0.00    +0.027 C 
ATOM     37  C   UNL     1      16.215   4.906   2.658  0.00  0.00    +0.027 C 
ENDBRANCH  32  35
ENDBRANCH  26  29
ENDBRANCH   3  23
TORSDOF 7
