REMARK  Name = ZINC08636464
REMARK  7 active torsions:
REMARK  status: ('A' for Active; 'I' for Inactive)
REMARK    1  A    between atoms: C_4  and  N_7
REMARK    2  A    between atoms: C_8  and  C_10
REMARK    3  A    between atoms: C_13  and  O_37
REMARK    4  A    between atoms: C_15  and  O_36
REMARK    5  A    between atoms: N_21  and  C_25
REMARK    6  A    between atoms: C_28  and  O_31
REMARK    7  A    between atoms: O_31  and  C_32
REMARK                            x       y       z     vdW  Elec       q    Type
REMARK                         _______ _______ _______ _____ _____    ______ ____
ROOT
ATOM      1  C   UNL     1       3.039  -1.469   4.990  0.00  0.00    +0.100 C 
ATOM      2  C   UNL     1       2.790  -2.941   5.220  0.00  0.00    +0.048 C 
ATOM      3  C   UNL     1       3.303  -3.396   6.571  0.00  0.00    +0.146 C 
ATOM      4  C   UNL     1       2.726  -2.591   7.707  0.00  0.00    +0.165 C 
ATOM      5  C   UNL     1       2.822  -1.093   7.545  0.00  0.00    +0.124 C 
ATOM      6  C   UNL     1       2.707  -0.573   6.130  0.00  0.00    +0.115 C 
ATOM      7  N   UNL     1       1.390   0.058   6.051  0.00  0.00    -0.277 N 
ATOM      8  C   UNL     1       0.879   0.109   7.294  0.00  0.00    +0.138 C 
ATOM      9  S   UNL     1      -0.617   0.855   7.662  0.00  0.00    -0.018 S 
ATOM     10  N   UNL     1       1.650  -0.483   8.219  0.00  0.00    -0.319 N 
ATOM     11  H   UNL     1       1.472  -0.506   9.172  0.00  0.00    +0.148 HD
ENDROOT
BRANCH   7  12
ATOM     12  C   UNL     1       0.771   0.531   4.887  0.00  0.00    +0.036 A 
ATOM     13  C   UNL     1      -0.418  -0.038   4.452  0.00  0.00    +0.027 A 
ATOM     14  C   UNL     1      -1.028   0.430   3.304  0.00  0.00    +0.048 A 
ATOM     15  C   UNL     1      -0.452   1.468   2.586  0.00  0.00    +0.130 A 
ATOM     16  C   UNL     1       0.739   2.033   3.017  0.00  0.00    +0.048 A 
ATOM     17  C   UNL     1       1.347   1.570   4.168  0.00  0.00    +0.027 A 
BRANCH  15  18
ATOM     18  O   UNL     1      -1.053   1.927   1.456  0.00  0.00    -0.406 OA
BRANCH  18  19
ATOM     19  C   UNL     1      -0.344   2.910   0.699  0.00  0.00    +0.575 C 
ATOM     20  F   UNL     1       0.889   2.387   0.293  0.00  0.00    -0.133 F 
ATOM     21  F   UNL     1      -0.131   4.045   1.490  0.00  0.00    -0.133 F 
ATOM     22  F   UNL     1      -1.095   3.262  -0.428  0.00  0.00    -0.133 F 
ENDBRANCH  18  19
ENDBRANCH  15  18
ENDBRANCH   7  12
BRANCH   1  24
ATOM     23  N   UNL     1       1.161  -1.758   3.407  0.00  0.00    -0.285 N 
ATOM     24  C   UNL     1       2.229  -1.034   3.796  0.00  0.00    +0.222 C 
ATOM     25  O   UNL     1       2.537  -0.032   3.186  0.00  0.00    -0.275 OA
ATOM     26  H   UNL     1       0.862  -2.508   3.944  0.00  0.00    +0.155 HD
BRANCH  23  30
ATOM     27  C   UNL     1      -0.855  -0.775  -0.104  0.00  0.00    +0.000 A 
ATOM     28  C   UNL     1      -1.475  -1.559   0.851  0.00  0.00    +0.002 A 
ATOM     29  C   UNL     1      -0.810  -1.887   2.016  0.00  0.00    +0.023 A 
ATOM     30  C   UNL     1       0.484  -1.428   2.228  0.00  0.00    +0.033 A 
ATOM     31  C   UNL     1       1.102  -0.636   1.269  0.00  0.00    +0.023 A 
ATOM     32  C   UNL     1       0.433  -0.317   0.104  0.00  0.00    +0.002 A 
ENDBRANCH  23  30
ENDBRANCH   1  24
BRANCH   4  33
ATOM     33  O   UNL     1       1.347  -2.937   7.848  0.00  0.00    -0.387 OA
ATOM     34  H   UNL     1       1.194  -3.873   8.041  0.00  0.00    +0.210 HD
ENDBRANCH   4  33
BRANCH   3  35
ATOM     35  O   UNL     1       4.726  -3.269   6.592  0.00  0.00    -0.389 OA
ATOM     36  H   UNL     1       5.178  -3.795   5.917  0.00  0.00    +0.210 HD
ENDBRANCH   3  35
TORSDOF 7
