REMARK  Name = ZINC18471573
REMARK  8 active torsions:
REMARK  status: ('A' for Active; 'I' for Inactive)
REMARK    1  A    between atoms: C_4  and  C_7
REMARK    2  A    between atoms: N_9  and  N_28
REMARK    3  A    between atoms: C_10  and  S_12
REMARK    4  A    between atoms: S_12  and  C_13
REMARK    5  A    between atoms: C_13  and  C_14
REMARK    6  A    between atoms: N_16  and  C_17
REMARK    7  A    between atoms: C_17  and  C_18
REMARK    8  A    between atoms: N_20  and  C_21
REMARK                            x       y       z     vdW  Elec       q    Type
REMARK                         _______ _______ _______ _____ _____    ______ ____
ROOT
ATOM      1  C   UNL     1       4.829   0.544  -0.004  0.00  0.00    +0.173 C 
ENDROOT
BRANCH   1   2
ATOM      2  C   UNL     1       3.671   1.508   0.008  0.00  0.00    +0.224 C 
ATOM      3  O   UNL     1       3.877   2.703   0.018  0.00  0.00    -0.275 OA
ATOM      4  N   UNL     1       2.406   1.042   0.007  0.00  0.00    -0.306 N 
ATOM      5  H   UNL     1       2.242   0.086  -0.001  0.00  0.00    +0.149 HD
BRANCH   4   6
ATOM      6  C   UNL     1       1.280   1.979   0.018  0.00  0.00    +0.200 C 
BRANCH   6   7
ATOM      7  C   UNL     1      -0.015   1.208   0.015  0.00  0.00    +0.234 C 
ATOM      8  O   UNL     1       0.001  -0.004   0.004  0.00  0.00    -0.274 OA
ATOM      9  N   UNL     1      -1.191   1.867   0.018  0.00  0.00    -0.283 N 
ATOM     10  H   UNL     1      -1.205   2.834   0.092  0.00  0.00    +0.155 HD
BRANCH   9  11
ATOM     11  C   UNL     1      -2.391   1.155  -0.086  0.00  0.00    +0.047 A 
ATOM     12  C   UNL     1      -2.510  -0.099   0.499  0.00  0.00    +0.024 A 
ATOM     13  C   UNL     1      -3.698  -0.796   0.399  0.00  0.00    +0.002 A 
ATOM     14  C   UNL     1      -4.765  -0.252  -0.291  0.00  0.00    +0.001 A 
ATOM     15  C   UNL     1      -4.649   0.994  -0.880  0.00  0.00    +0.017 A 
ATOM     16  C   UNL     1      -3.465   1.699  -0.779  0.00  0.00    +0.039 A 
ATOM     17 BR   UNL     1      -3.307   3.402  -1.585  0.00  0.00    -0.048 Br
ENDBRANCH   9  11
ENDBRANCH   6   7
ENDBRANCH   4   6
ENDBRANCH   1   2
BRANCH   1  18
ATOM     18  S   UNL     1       6.385   1.469   0.000  0.00  0.00    -0.077 S 
BRANCH  18  22
ATOM     19  C   UNL     1       8.368  -1.873  -0.035  0.00  0.00    +0.092 A 
ATOM     20  C   UNL     1       9.416  -1.013  -0.030  0.00  0.00    +0.138 A 
ATOM     21  N   UNL     1       8.891   0.256  -0.022  0.00  0.00    -0.251 N 
ATOM     22  C   UNL     1       7.535   0.135  -0.014  0.00  0.00    +0.187 A 
ATOM     23  N   UNL     1       7.226  -1.140  -0.025  0.00  0.00    -0.221 NA
BRANCH  19  27
ATOM     24  C   UNL     1       8.613  -6.118  -0.074  0.00  0.00    +0.000 A 
ATOM     25  C   UNL     1       7.376  -5.499  -0.065  0.00  0.00    +0.001 A 
ATOM     26  C   UNL     1       7.290  -4.122  -0.052  0.00  0.00    +0.010 A 
ATOM     27  C   UNL     1       8.453  -3.354  -0.048  0.00  0.00    +0.002 A 
ATOM     28  C   UNL     1       9.697  -3.983  -0.063  0.00  0.00    +0.010 A 
ATOM     29  C   UNL     1       9.771  -5.361  -0.070  0.00  0.00    +0.001 A 
ENDBRANCH  19  27
BRANCH  21  30
ATOM     30  N   UNL     1       9.599   1.425  -0.020  0.00  0.00    -0.296 N 
ATOM     31  H   UNL     1       9.792   1.729   0.922  0.00  0.00    +0.163 HD
ATOM     32  H   UNL     1      10.451   1.332  -0.552  0.00  0.00    +0.163 HD
ENDBRANCH  21  30
ENDBRANCH  18  22
ENDBRANCH   1  18
TORSDOF 8
