REMARK  Name = ZINC40486465
REMARK  3 active torsions:
REMARK  status: ('A' for Active; 'I' for Inactive)
REMARK    1  A    between atoms: C_3  and  C_18
REMARK    2  A    between atoms: C_4  and  N_8
REMARK    3  A    between atoms: C_9  and  C_11
REMARK                            x       y       z     vdW  Elec       q    Type
REMARK                         _______ _______ _______ _____ _____    ______ ____
ROOT
ATOM      1  N   UNL     1       3.378  -0.875  -0.039  0.00  0.00    -0.285 N 
ATOM      2  C   UNL     1       3.218  -2.209  -0.140  0.00  0.00    +0.218 C 
ATOM      3  O   UNL     1       2.111  -2.677  -0.305  0.00  0.00    -0.275 OA
ATOM      4  H   UNL     1       4.269  -0.495   0.009  0.00  0.00    +0.155 HD
ENDROOT
BRANCH   2   5
ATOM      5  C   UNL     1       4.415  -3.120  -0.048  0.00  0.00    +0.058 C 
ATOM      6  C   UNL     1       5.402  -2.782  -1.169  0.00  0.00    +0.009 C 
ATOM      7  C   UNL     1       6.577  -3.763  -1.114  0.00  0.00    -0.018 C 
ATOM      8  C   UNL     1       6.044  -5.194  -1.223  0.00  0.00    -0.083 C 
ATOM      9  N   UNL     1       5.127  -5.464  -0.110  0.00  0.00    +0.380 N 
ATOM     10  C   UNL     1       3.962  -4.575  -0.195  0.00  0.00    -0.070 C 
ATOM     11  H   UNL     1       4.819  -6.424  -0.154  0.00  0.00    -0.086 HD
ATOM     12  H   UNL     1       5.605  -5.306   0.765  0.00  0.00    -0.086 HD
ENDBRANCH   2   5
BRANCH   1  16
ATOM     13  C   UNL     1       0.039   1.623   0.069  0.00  0.00    +0.016 A 
ATOM     14  C   UNL     1       1.119   1.905   0.876  0.00  0.00    +0.018 A 
ATOM     15  C   UNL     1       2.244   1.075   0.850  0.00  0.00    +0.084 A 
ATOM     16  C   UNL     1       2.264  -0.042  -0.003  0.00  0.00    +0.049 A 
ATOM     17  C   UNL     1       1.166  -0.309  -0.808  0.00  0.00    +0.039 A 
ATOM     18  C   UNL     1       0.061   0.519  -0.771  0.00  0.00    +0.020 A 
ATOM     19 BR   UNL     1      -1.430   0.147  -1.872  0.00  0.00    -0.050 Br
BRANCH  15  20
ATOM     20  C   UNL     1       3.401   1.371   1.708  0.00  0.00    +0.388 C 
ATOM     21  O   UNL     1       3.402   2.372   2.411  0.00  0.00    -0.241 OA
ATOM     22  O   UNL     1       4.364   0.615   1.720  0.00  0.00    -0.241 OA
ENDBRANCH  15  20
ENDBRANCH   1  16
TORSDOF 3
