REMARK  Name = ZINC04663688
REMARK  11 active torsions:
REMARK  status: ('A' for Active; 'I' for Inactive)
REMARK    1  A    between atoms: C_1  and  C_2
REMARK    2  A    between atoms: C_6  and  C_30
REMARK    3  A    between atoms: C_6  and  C_31
REMARK    4  A    between atoms: C_11  and  C_28
REMARK    5  A    between atoms: C_11  and  O_29
REMARK    6  A    between atoms: C_12  and  C_14
REMARK    7  A    between atoms: C_14  and  C_15
REMARK    8  A    between atoms: N_17  and  N_18
REMARK    9  A    between atoms: N_18  and  C_19
REMARK   10  A    between atoms: C_19  and  N_21
REMARK   11  A    between atoms: N_21  and  C_22
REMARK                            x       y       z     vdW  Elec       q    Type
REMARK                         _______ _______ _______ _____ _____    ______ ____
ROOT
ATOM      1  C   UNL     1      -2.209  -1.952   0.286  0.00  0.00    +0.104 C 
ENDROOT
BRANCH   1  12
ATOM      2  C   UNL     1       0.744   0.225   1.414  0.00  0.00    +0.012 C 
ATOM      3  C   UNL     1       0.038  -1.091   1.055  0.00  0.00    -0.023 C 
ATOM      4  C   UNL     1       0.582  -1.556  -0.301  0.00  0.00    +0.007 C 
ATOM      5  C   UNL     1       2.081  -1.839  -0.174  0.00  0.00    +0.001 C 
ATOM      6  C   UNL     1       2.297  -2.982   0.811  0.00  0.00    +0.007 C 
ATOM      7  C   UNL     1       1.706  -2.675   2.186  0.00  0.00    -0.032 C 
ATOM      8  C   UNL     1       0.279  -2.168   2.101  0.00  0.00    +0.001 C 
ATOM      9  C   UNL     1      -0.246  -1.702   3.458  0.00  0.00    +0.007 C 
ATOM     10  C   UNL     1      -1.756  -1.478   3.354  0.00  0.00    +0.035 C 
ATOM     11  C   UNL     1      -2.099  -0.458   2.277  0.00  0.00    +0.067 C 
ATOM     12  C   UNL     1      -1.457  -0.791   0.935  0.00  0.00    +0.035 C 
ATOM     13  C   UNL     1      -3.629  -0.457   2.087  0.00  0.00    +0.041 C 
ATOM     14  C   UNL     1       2.630  -1.734   2.956  0.00  0.00    +0.011 C 
ATOM     15  C   UNL     1       1.684  -4.018   2.959  0.00  0.00    +0.011 C 
BRANCH  11  16
ATOM     16  O   UNL     1      -1.718   0.851   2.711  0.00  0.00    -0.389 OA
ATOM     17  H   UNL     1      -2.158   1.139   3.523  0.00  0.00    +0.210 HD
ENDBRANCH  11  16
ENDBRANCH   1  12
BRANCH   1  18
ATOM     18  C   UNL     1      -1.958  -1.946  -1.200  0.00  0.00    +0.229 C 
ATOM     19  O   UNL     1      -1.457  -0.975  -1.726  0.00  0.00    -0.274 OA
ATOM     20  N   UNL     1      -2.289  -3.020  -1.944  0.00  0.00    -0.235 N 
ATOM     21  H   UNL     1      -2.689  -3.797  -1.523  0.00  0.00    +0.173 HD
BRANCH  20  22
ATOM     22  N   UNL     1      -2.055  -3.015  -3.325  0.00  0.00    -0.246 N 
ATOM     23  H   UNL     1      -1.654  -2.238  -3.746  0.00  0.00    +0.172 HD
BRANCH  22  24
ATOM     24  C   UNL     1      -2.386  -4.089  -4.069  0.00  0.00    +0.151 C 
ATOM     25  S   UNL     1      -2.100  -4.082  -5.757  0.00  0.00    -0.017 S 
BRANCH  24  26
ATOM     26  N   UNL     1      -2.943  -5.168  -3.484  0.00  0.00    -0.296 N 
ATOM     27  H   UNL     1      -3.168  -5.146  -2.541  0.00  0.00    +0.154 HD
BRANCH  26  28
ATOM     28  C   UNL     1      -3.196  -6.319  -4.237  0.00  0.00    +0.033 A 
ATOM     29  C   UNL     1      -2.213  -6.835  -5.072  0.00  0.00    +0.023 A 
ATOM     30  C   UNL     1      -2.466  -7.971  -5.815  0.00  0.00    +0.002 A 
ATOM     31  C   UNL     1      -3.697  -8.596  -5.728  0.00  0.00    +0.000 A 
ATOM     32  C   UNL     1      -4.678  -8.085  -4.897  0.00  0.00    +0.002 A 
ATOM     33  C   UNL     1      -4.429  -6.952  -4.148  0.00  0.00    +0.023 A 
ENDBRANCH  26  28
ENDBRANCH  24  26
ENDBRANCH  22  24
ENDBRANCH  20  22
ENDBRANCH   1  18
TORSDOF 7
