REMARK  Name = ZINC20918457
REMARK  10 active torsions:
REMARK  status: ('A' for Active; 'I' for Inactive)
REMARK    1  A    between atoms: C_1  and  C_2
REMARK    2  A    between atoms: C_5  and  C_8
REMARK    3  A    between atoms: N_9  and  N_10
REMARK    4  A    between atoms: C_14  and  S_17
REMARK    5  A    between atoms: N_15  and  N_16
REMARK    6  A    between atoms: S_17  and  C_18
REMARK    7  A    between atoms: C_18  and  C_19
REMARK    8  A    between atoms: C_19  and  C_20
REMARK    9  A    between atoms: N_22  and  C_23
REMARK   10  A    between atoms: C_27  and  C_29
REMARK                            x       y       z     vdW  Elec       q    Type
REMARK                         _______ _______ _______ _____ _____    ______ ____
ROOT
ATOM      1  N   UNL     1      -2.018   6.756  13.751  0.00  0.00    -0.204 N 
ATOM      2  C   UNL     1      -1.841   6.219  12.483  0.00  0.00    +0.254 A 
ATOM      3  N   UNL     1      -2.783   6.015  11.595  0.00  0.00    -0.109 NA
ATOM      4  N   UNL     1      -2.188   5.466  10.451  0.00  0.00    -0.119 NA
ATOM      5  C   UNL     1      -0.902   5.346  10.682  0.00  0.00    +0.210 A 
ATOM      6  N   UNL     1      -0.654   5.810  11.943  0.00  0.00    -0.211 N 
ATOM      7  H   UNL     1      -1.154   6.885  14.419  0.00  0.00    +0.177 HD
ENDROOT
BRANCH   6   8
ATOM      8  N   UNL     1       0.566   5.858  12.555  0.00  0.00    -0.294 N 
ATOM      9  H   UNL     1       1.462   5.501  12.025  0.00  0.00    +0.163 HD
ATOM     10  H   UNL     1       0.653   6.254  13.577  0.00  0.00    +0.163 HD
ENDBRANCH   6   8
BRANCH   1  12
ATOM     11  C   UNL     1      -3.463   7.637  15.365  0.00  0.00    +0.138 C 
ATOM     12  N   UNL     1      -3.297   7.135  14.179  0.00  0.00    -0.188 NA
BRANCH  11  17
ATOM     13  C   UNL     1      -8.714   9.191  17.122  0.00  0.00    +0.044 C 
ATOM     14  C   UNL     1      -7.338   8.784  16.661  0.00  0.00    -0.050 A 
ATOM     15  C   UNL     1      -6.253   8.947  17.505  0.00  0.00    +0.004 A 
ATOM     16  C   UNL     1      -4.991   8.576  17.090  0.00  0.00    +0.010 A 
ATOM     17  C   UNL     1      -4.809   8.035  15.815  0.00  0.00    -0.005 A 
ATOM     18  C   UNL     1      -5.908   7.879  14.967  0.00  0.00    +0.010 A 
ATOM     19  C   UNL     1      -7.165   8.249  15.397  0.00  0.00    +0.004 A 
ENDBRANCH  11  17
ENDBRANCH   1  12
BRANCH   5  20
ATOM     20  S   UNL     1       0.296   4.703   9.561  0.00  0.00    -0.084 S 
BRANCH  20  21
ATOM     21  C   UNL     1      -0.670   4.269   8.088  0.00  0.00    +0.086 C 
BRANCH  21  22
ATOM     22  C   UNL     1       0.260   3.691   7.020  0.00  0.00    +0.107 C 
BRANCH  22  23
ATOM     23  C   UNL     1      -0.542   3.330   5.797  0.00  0.00    +0.218 C 
ATOM     24  O   UNL     1      -1.740   3.517   5.781  0.00  0.00    -0.275 OA
ATOM     25  N   UNL     1       0.072   2.800   4.720  0.00  0.00    -0.285 N 
ATOM     26  H   UNL     1       1.144   2.560   4.761  0.00  0.00    +0.155 HD
BRANCH  25  27
ATOM     27  C   UNL     1      -0.656   2.555   3.550  0.00  0.00    +0.034 A 
ATOM     28  C   UNL     1      -1.981   2.146   3.627  0.00  0.00    +0.023 A 
ATOM     29  C   UNL     1      -2.696   1.905   2.471  0.00  0.00    +0.002 A 
ATOM     30  C   UNL     1      -2.095   2.076   1.236  0.00  0.00    +0.012 A 
ATOM     31  C   UNL     1      -0.775   2.478   1.157  0.00  0.00    +0.057 A 
ATOM     32  C   UNL     1      -0.054   2.721   2.310  0.00  0.00    +0.035 A 
BRANCH  31  33
ATOM     33  C   UNL     1      -0.123   2.659  -0.190  0.00  0.00    +0.417 C 
ATOM     34  F   UNL     1       0.469   1.455  -0.587  0.00  0.00    -0.166 F 
ATOM     35  F   UNL     1       0.856   3.654  -0.105  0.00  0.00    -0.166 F 
ATOM     36  F   UNL     1      -1.090   3.034  -1.130  0.00  0.00    -0.166 F 
ENDBRANCH  31  33
ENDBRANCH  25  27
ENDBRANCH  22  23
ENDBRANCH  21  22
ENDBRANCH  20  21
ENDBRANCH   5  20
TORSDOF 9
