REMARK  Name = ZINC63386282
REMARK  6 active torsions:
REMARK  status: ('A' for Active; 'I' for Inactive)
REMARK    1  A    between atoms: C_1  and  C_2
REMARK    2  A    between atoms: C_3  and  O_30
REMARK    3  A    between atoms: C_11  and  C_16
REMARK    4  A    between atoms: C_13  and  C_15
REMARK    5  A    between atoms: C_16  and  C_17
REMARK    6  A    between atoms: N_19  and  C_20
REMARK                            x       y       z     vdW  Elec       q    Type
REMARK                         _______ _______ _______ _____ _____    ______ ____
ROOT
ATOM      1  C   UNL     1      -0.221   1.571  -0.103  0.00  0.00    +0.051 C 
ATOM      2  C   UNL     1      -0.141   0.066  -0.090  0.00  0.00    +0.034 A 
ATOM      3  C   UNL     1      -0.135  -0.636  -1.284  0.00  0.00    +0.123 A 
ATOM      4  C   UNL     1      -0.060  -2.022  -1.268  0.00  0.00    +0.046 A 
ATOM      5  C   UNL     1       0.013  -2.694  -0.066  0.00  0.00    +0.011 A 
ATOM      6  C   UNL     1       0.009  -1.996   1.131  0.00  0.00    -0.001 A 
ATOM      7  C   UNL     1      -0.067  -0.614   1.120  0.00  0.00    +0.141 A 
ATOM      8  O   UNL     1      -0.089   0.113   2.271  0.00  0.00    -0.425 OA
ATOM      9  C   UNL     1       0.191  -0.532   3.421  0.00  0.00    +0.317 C 
ATOM     10  O   UNL     1       0.874  -0.026   4.280  0.00  0.00    -0.250 OA
ATOM     11  C   UNL     1      -0.391  -1.922   3.585  0.00  0.00    +0.114 C 
ATOM     12  C   UNL     1       0.101  -2.777   2.418  0.00  0.00    +0.034 C 
ATOM     13  C   UNL     1      -0.750  -4.043   2.306  0.00  0.00    +0.013 C 
ENDROOT
BRANCH   3  14
ATOM     14  O   UNL     1      -0.204   0.030  -2.467  0.00  0.00    -0.506 OA
ATOM     15  H   UNL     1       0.658   0.270  -2.833  0.00  0.00    +0.292 HD
ENDBRANCH   3  14
BRANCH  11  16
ATOM     16  C   UNL     1      -1.919  -1.851   3.555  0.00  0.00    +0.111 C 
BRANCH  16  17
ATOM     17  C   UNL     1      -2.409  -1.074   4.750  0.00  0.00    +0.218 C 
ATOM     18  O   UNL     1      -1.614  -0.622   5.547  0.00  0.00    -0.275 OA
ATOM     19  N   UNL     1      -3.731  -0.882   4.934  0.00  0.00    -0.285 N 
ATOM     20  H   UNL     1      -4.362  -1.181   4.261  0.00  0.00    +0.155 HD
BRANCH  19  21
ATOM     21  C   UNL     1      -4.187  -0.257   6.085  0.00  0.00    +0.033 C 
ATOM     22  C   UNL     1      -5.088  -0.898   6.907  0.00  0.00    +0.029 C 
ATOM     23  C   UNL     1      -5.435  -0.198   8.069  0.00  0.00    -0.016 C 
ATOM     24  C   UNL     1      -6.559  -0.159   8.813  0.00  0.00    +0.025 C 
ATOM     25  C   UNL     1      -6.485   0.922   9.712  0.00  0.00    +0.106 C 
ATOM     26  N   UNL     1      -5.331   1.530   9.659  0.00  0.00    -0.279 NA
ATOM     27  C   UNL     1      -4.489   0.791   8.730  0.00  0.00    +0.158 C 
ATOM     28  C   UNL     1      -3.861   1.615   7.646  0.00  0.00    +0.006 C 
ATOM     29  C   UNL     1      -3.708   1.084   6.433  0.00  0.00    +0.021 C 
ENDBRANCH  19  21
ENDBRANCH  16  17
ENDBRANCH  11  16
TORSDOF 4
