REMARK  Name = ZINC35937807
REMARK  3 active torsions:
REMARK  status: ('A' for Active; 'I' for Inactive)
REMARK    1  A    between atoms: C_14  and  C_16
REMARK    2  A    between atoms: C_16  and  C_17
REMARK    3  A    between atoms: C_17  and  C_18
REMARK                            x       y       z     vdW  Elec       q    Type
REMARK                         _______ _______ _______ _____ _____    ______ ____
ROOT
ATOM      1  C   UNL     1      -0.017   1.379   0.010  0.00  0.00    +0.025 A 
ATOM      2  C   UNL     1       1.175   2.080   0.002  0.00  0.00    +0.023 A 
ATOM      3  C   UNL     1       2.388   1.410  -0.013  0.00  0.00    +0.060 A 
ATOM      4  C   UNL     1       2.425   0.028  -0.018  0.00  0.00    +0.073 A 
ATOM      5  C   UNL     1       1.230  -0.690  -0.009  0.00  0.00    +0.077 A 
ATOM      6  C   UNL     1       0.002  -0.004   0.002  0.00  0.00    +0.042 A 
ATOM      7  N   UNL     1      -1.168  -0.757   0.000  0.00  0.00    -0.323 N 
ATOM      8  C   UNL     1      -1.154  -2.073  -0.650  0.00  0.00    +0.102 C 
ATOM      9  C   UNL     1      -1.191  -1.884  -2.169  0.00  0.00    +0.064 C 
ATOM     10  C   UNL     1      -2.442  -1.086  -2.550  0.00  0.00    +0.111 C 
ATOM     11  N   UNL     1      -3.622  -1.766  -1.999  0.00  0.00    -0.301 N 
ATOM     12  C   UNL     1      -3.651  -2.080  -0.564  0.00  0.00    +0.111 C 
ATOM     13  C   UNL     1      -2.386  -2.866  -0.206  0.00  0.00    +0.064 C 
ATOM     14  C   UNL     1      -4.659  -2.096  -2.795  0.00  0.00    +0.216 C 
ATOM     15  O   UNL     1      -4.623  -1.831  -3.978  0.00  0.00    -0.276 OA
ATOM     16  N   UNL     1       0.057  -2.807  -0.280  0.00  0.00    -0.290 N 
ATOM     17  C   UNL     1       1.210  -2.163  -0.009  0.00  0.00    +0.249 C 
ATOM     18  O   UNL     1       2.223  -2.792   0.231  0.00  0.00    -0.270 OA
ATOM     19 CL   UNL     1       3.947  -0.807  -0.037  0.00  0.00    -0.081 Cl
ATOM     20 CL   UNL     1       3.871   2.312  -0.025  0.00  0.00    -0.082 Cl
ATOM     21  H   UNL     1      -1.974  -0.420   0.420  0.00  0.00    +0.148 HD
ATOM     22  H   UNL     1       0.029  -3.776  -0.228  0.00  0.00    +0.151 HD
ENDROOT
BRANCH  14  23
ATOM     23  C   UNL     1      -5.862  -2.793  -2.215  0.00  0.00    +0.096 C 
BRANCH  23  24
ATOM     24  C   UNL     1      -6.886  -3.051  -3.322  0.00  0.00    +0.013 C 
BRANCH  24  25
ATOM     25  C   UNL     1      -8.107  -3.759  -2.733  0.00  0.00    -0.011 C 
ATOM     26  C   UNL     1      -7.726  -5.185  -2.285  0.00  0.00    +0.003 C 
ATOM     27  C   UNL     1      -8.972  -6.038  -2.632  0.00  0.00    +0.000 C 
ATOM     28  C   UNL     1      -9.440  -5.427  -3.976  0.00  0.00    +0.000 C 
ATOM     29  C   UNL     1      -9.197  -3.913  -3.809  0.00  0.00    +0.003 C 
ENDBRANCH  24  25
ENDBRANCH  23  24
ENDBRANCH  14  23
TORSDOF 3
