REMARK  Name = ZINC61165597
REMARK  8 active torsions:
REMARK  status: ('A' for Active; 'I' for Inactive)
REMARK    1  A    between atoms: C_1  and  C_2
REMARK    2  A    between atoms: C_4  and  C_27
REMARK    3  A    between atoms: C_5  and  N_9
REMARK    4  A    between atoms: C_6  and  C_8
REMARK    5  A    between atoms: C_10  and  C_12
REMARK    6  A    between atoms: C_12  and  N_13
REMARK    7  A    between atoms: N_16  and  C_17
REMARK    8  A    between atoms: C_17  and  C_18
REMARK                            x       y       z     vdW  Elec       q    Type
REMARK                         _______ _______ _______ _____ _____    ______ ____
ROOT
ATOM      1  N   UNL     1       0.858  -6.983   2.265  0.00  0.00    -0.291 N 
ATOM      2  C   UNL     1       0.984  -8.311   2.462  0.00  0.00    +0.300 C 
ATOM      3  O   UNL     1       0.718  -9.087   1.565  0.00  0.00    -0.253 OA
ATOM      4  N   UNL     1       1.407  -8.778   3.654  0.00  0.00    -0.292 N 
ATOM      5  H   UNL     1       1.071  -6.364   2.981  0.00  0.00    +0.151 HD
ATOM      6  H   UNL     1       1.619  -8.159   4.369  0.00  0.00    +0.151 HD
ENDROOT
BRANCH   1   7
ATOM      7  C   UNL     1       0.399  -6.476   0.969  0.00  0.00    +0.202 C 
BRANCH   7   9
ATOM      8  N   UNL     1      -0.052  -4.280  -0.077  0.00  0.00    -0.284 N 
ATOM      9  C   UNL     1       0.345  -4.970   1.011  0.00  0.00    +0.234 C 
ATOM     10  O   UNL     1       0.659  -4.380   2.022  0.00  0.00    -0.274 OA
ATOM     11  H   UNL     1      -0.370  -4.753  -0.862  0.00  0.00    +0.155 HD
BRANCH   8  16
ATOM     12  C   UNL     1       0.136   1.390  -0.065  0.00  0.00    +0.044 C 
ATOM     13  C   UNL     1       0.086  -0.116  -0.068  0.00  0.00    -0.050 A 
ATOM     14  C   UNL     1       0.759  -0.827  -1.045  0.00  0.00    +0.008 A 
ATOM     15  C   UNL     1       0.715  -2.207  -1.051  0.00  0.00    -0.029 A 
ATOM     16  C   UNL     1      -0.005  -2.882  -0.074  0.00  0.00    +0.039 A 
ATOM     17  C   UNL     1      -0.679  -2.165   0.906  0.00  0.00    -0.029 A 
ATOM     18  C   UNL     1      -0.628  -0.785   0.909  0.00  0.00    +0.008 A 
ATOM     19  C   UNL     1      -1.463  -2.893   1.968  0.00  0.00    +0.045 C 
ATOM     20  C   UNL     1       1.448  -2.981  -2.117  0.00  0.00    +0.045 C 
ENDBRANCH   8  16
ENDBRANCH   7   9
ENDBRANCH   1   7
BRANCH   4  21
ATOM     21  C   UNL     1       1.544 -10.221   3.868  0.00  0.00    +0.180 C 
BRANCH  21  22
ATOM     22  C   UNL     1       2.028 -10.476   5.272  0.00  0.00    +0.123 A 
ATOM     23  C   UNL     1       1.234 -10.658   6.336  0.00  0.00    +0.055 A 
ATOM     24  C   UNL     1       2.127 -10.872   7.481  0.00  0.00    +0.020 A 
ATOM     25  C   UNL     1       1.929 -11.113   8.840  0.00  0.00    +0.011 A 
ATOM     26  C   UNL     1       3.008 -11.271   9.664  0.00  0.00    +0.001 A 
ATOM     27  C   UNL     1       4.297 -11.192   9.157  0.00  0.00    +0.004 A 
ATOM     28  C   UNL     1       4.512 -10.955   7.816  0.00  0.00    +0.047 A 
ATOM     29  C   UNL     1       3.429 -10.792   6.961  0.00  0.00    +0.135 A 
ATOM     30  O   UNL     1       3.319 -10.560   5.638  0.00  0.00    -0.458 OA
ENDBRANCH  21  22
ENDBRANCH   4  21
TORSDOF 5
