REMARK  Name = ZINC35689408
REMARK  13 active torsions:
REMARK  status: ('A' for Active; 'I' for Inactive)
REMARK    1  A    between atoms: C_1  and  C_2
REMARK    2  A    between atoms: C_2  and  C_3
REMARK    3  A    between atoms: C_6  and  N_9
REMARK    4  A    between atoms: C_19  and  C_20
REMARK    5  A    between atoms: C_20  and  C_22
REMARK    6  A    between atoms: C_20  and  N_24
REMARK    7  A    between atoms: C_22  and  C_23
REMARK    8  A    between atoms: N_24  and  C_25
REMARK    9  A    between atoms: C_25  and  C_26
REMARK   10  A    between atoms: C_26  and  N_27
REMARK   11  A    between atoms: N_27  and  C_28
REMARK   12  A    between atoms: N_27  and  C_29
REMARK   13  A    between atoms: C_30  and  C_32
REMARK                            x       y       z     vdW  Elec       q    Type
REMARK                         _______ _______ _______ _____ _____    ______ ____
ROOT
ATOM      1  C   UNL     1       4.597  -1.685  -3.484  0.00  0.00    +0.143 C 
ENDROOT
BRANCH   1  12
ATOM      2  N   UNL     1       2.956  -3.260  -4.431  0.00  0.00    -0.263 N 
ATOM      3  C   UNL     1       2.163  -3.726  -5.424  0.00  0.00    +0.266 A 
ATOM      4  O   UNL     1       1.453  -4.701  -5.261  0.00  0.00    -0.267 OA
ATOM      5  C   UNL     1       2.193  -3.009  -6.707  0.00  0.00    +0.065 A 
ATOM      6  C   UNL     1       1.415  -3.408  -7.792  0.00  0.00    +0.015 A 
ATOM      7  C   UNL     1       1.481  -2.699  -8.971  0.00  0.00    +0.001 A 
ATOM      8  C   UNL     1       2.315  -1.595  -9.086  0.00  0.00    +0.002 A 
ATOM      9  C   UNL     1       3.092  -1.185  -8.026  0.00  0.00    +0.028 A 
ATOM     10  C   UNL     1       3.042  -1.886  -6.820  0.00  0.00    +0.078 A 
ATOM     11  N   UNL     1       3.790  -1.516  -5.750  0.00  0.00    -0.231 NA
ATOM     12  C   UNL     1       3.740  -2.165  -4.627  0.00  0.00    +0.138 A 
BRANCH   2  16
ATOM     13  C   UNL     1       2.985  -5.184  -0.734  0.00  0.00    -0.047 A 
ATOM     14  C   UNL     1       3.568  -5.790  -1.832  0.00  0.00    +0.005 A 
ATOM     15  C   UNL     1       3.560  -5.155  -3.058  0.00  0.00    +0.026 A 
ATOM     16  C   UNL     1       2.965  -3.906  -3.188  0.00  0.00    +0.051 A 
ATOM     17  C   UNL     1       2.381  -3.300  -2.084  0.00  0.00    +0.026 A 
ATOM     18  C   UNL     1       2.387  -3.943  -0.862  0.00  0.00    +0.005 A 
BRANCH  13  20
ATOM     19  C   UNL     1       1.745  -6.752   0.734  0.00  0.00    +0.009 C 
ATOM     20  C   UNL     1       2.995  -5.879   0.603  0.00  0.00    +0.032 C 
ENDBRANCH  13  20
ENDBRANCH   2  16
ENDBRANCH   1  12
BRANCH   1  21
ATOM     21  N   UNL     1       6.011  -1.836  -3.838  0.00  0.00    -0.289 N 
ATOM     22  C   UNL     1       6.813  -2.619  -3.090  0.00  0.00    +0.247 C 
ATOM     23  O   UNL     1       6.358  -3.221  -2.137  0.00  0.00    -0.270 OA
BRANCH  22  24
ATOM     24  C   UNL     1       8.245  -2.745  -3.428  0.00  0.00    +0.041 A 
ATOM     25  C   UNL     1       8.868  -1.771  -4.211  0.00  0.00    +0.017 A 
ATOM     26  C   UNL     1      10.204  -1.890  -4.524  0.00  0.00    +0.050 A 
ATOM     27  C   UNL     1      10.936  -2.976  -4.064  0.00  0.00    +0.166 A 
ATOM     28  C   UNL     1      10.319  -3.953  -3.281  0.00  0.00    +0.167 A 
ATOM     29  C   UNL     1       8.981  -3.836  -2.959  0.00  0.00    +0.062 A 
ATOM     30  O   UNL     1      11.246  -4.904  -2.961  0.00  0.00    -0.453 OA
ATOM     31  C   UNL     1      12.328  -4.713  -3.892  0.00  0.00    +0.466 C 
ATOM     32  O   UNL     1      12.246  -3.317  -4.232  0.00  0.00    -0.453 OA
ENDBRANCH  22  24
BRANCH  21  33
ATOM     33  C   UNL     1       6.552  -1.136  -5.006  0.00  0.00    +0.090 C 
BRANCH  33  34
ATOM     34  C   UNL     1       6.891   0.306  -4.623  0.00  0.00    -0.060 C 
BRANCH  34  35
ATOM     35  N   UNL     1       7.341   1.037  -5.816  0.00  0.00    +0.377 N 
ATOM     36  C   UNL     1       7.529   2.454  -5.481  0.00  0.00    -0.097 C 
ATOM     37  C   UNL     1       8.612   0.471  -6.286  0.00  0.00    -0.097 C 
ATOM     38  H   UNL     1       6.646   0.953  -6.544  0.00  0.00    -0.083 HD
ENDBRANCH  34  35
ENDBRANCH  33  34
ENDBRANCH  21  33
ENDBRANCH   1  21
BRANCH   1  39
ATOM     39  C   UNL     1       4.296  -0.212  -3.204  0.00  0.00    +0.027 C 
ATOM     40  C   UNL     1       5.163   0.274  -2.041  0.00  0.00    +0.006 C 
ENDBRANCH   1  39
TORSDOF 9
