REMARK  Name = ZINC51122721
REMARK  5 active torsions:
REMARK  status: ('A' for Active; 'I' for Inactive)
REMARK    1  A    between atoms: C_6  and  N_7
REMARK    2  A    between atoms: C_8  and  C_10
REMARK    3  A    between atoms: C_12  and  N_18
REMARK    4  A    between atoms: C_15  and  N_16
REMARK    5  A    between atoms: N_16  and  N_17
REMARK                            x       y       z     vdW  Elec       q    Type
REMARK                         _______ _______ _______ _____ _____    ______ ____
ROOT
ATOM      1  C   UNL     1      -2.450  -2.812  -0.188  0.00  0.00    +0.061 A 
ATOM      2  C   UNL     1      -3.664  -2.128  -0.283  0.00  0.00    +0.047 A 
ATOM      3  C   UNL     1      -4.843  -2.832  -0.392  0.00  0.00    +0.127 A 
ATOM      4  C   UNL     1      -4.832  -4.218  -0.408  0.00  0.00    +0.034 A 
ATOM      5  C   UNL     1      -3.642  -4.908  -0.314  0.00  0.00    +0.027 A 
ATOM      6  C   UNL     1      -2.442  -4.216  -0.210  0.00  0.00    +0.053 A 
ENDROOT
BRANCH   1   8
ATOM      7  N   UNL     1      -1.203  -0.724   0.061  0.00  0.00    -0.281 N 
ATOM      8  C   UNL     1      -1.184  -2.065  -0.071  0.00  0.00    +0.250 C 
ATOM      9  O   UNL     1      -0.123  -2.659  -0.094  0.00  0.00    -0.270 OA
ATOM     10  H   UNL     1      -2.049  -0.258   0.155  0.00  0.00    +0.155 HD
BRANCH   7  16
ATOM     11  C   UNL     1       1.071  -0.441  -0.701  0.00  0.00    +0.024 A 
ATOM     12  C   UNL     1       2.253   0.272  -0.697  0.00  0.00    +0.016 A 
ATOM     13  C   UNL     1       2.369   1.419   0.067  0.00  0.00    +0.013 A 
ATOM     14  C   UNL     1       1.300   1.857   0.829  0.00  0.00    +0.016 A 
ATOM     15  C   UNL     1       0.115   1.148   0.829  0.00  0.00    +0.024 A 
ATOM     16  C   UNL     1      -0.004  -0.004   0.063  0.00  0.00    +0.034 A 
ATOM     17  I   UNL     1       4.165   2.497   0.071  0.00  0.00    -0.044 I 
ENDBRANCH   7  16
ENDBRANCH   1   8
BRANCH   3  18
ATOM     18  N   UNL     1      -6.128  -2.104  -0.493  0.00  0.00    +0.056 N 
ATOM     19  O   UNL     1      -6.141  -0.895  -0.480  0.00  0.00    -0.126 OA
ATOM     20  O   UNL     1      -7.165  -2.719  -0.589  0.00  0.00    -0.126 OA
ENDBRANCH   3  18
BRANCH   6  21
ATOM     21  N   UNL     1      -1.241  -4.908  -0.122  0.00  0.00    -0.282 N 
ATOM     22  H   UNL     1      -0.401  -4.425  -0.128  0.00  0.00    +0.166 HD
BRANCH  21  23
ATOM     23  N   UNL     1      -1.244  -6.271  -0.027  0.00  0.00    -0.256 NA
ATOM     24  H   UNL     1      -1.745  -6.686  -0.799  0.00  0.00    +0.140 HD
ATOM     25  H   UNL     1      -0.304  -6.632   0.029  0.00  0.00    +0.140 HD
ENDBRANCH  21  23
ENDBRANCH   6  21
TORSDOF 5
