REMARK  Name = ZINC67324676
REMARK  6 active torsions:
REMARK  status: ('A' for Active; 'I' for Inactive)
REMARK    1  A    between atoms: C_1  and  O_2
REMARK    2  A    between atoms: O_2  and  C_3
REMARK    3  A    between atoms: N_5  and  C_6
REMARK    4  A    between atoms: C_8  and  N_13
REMARK    5  A    between atoms: N_16  and  C_17
REMARK    6  A    between atoms: N_26  and  C_28
REMARK                            x       y       z     vdW  Elec       q    Type
REMARK                         _______ _______ _______ _____ _____    ______ ____
ROOT
ATOM      1  N   UNL     1       2.808  -1.749  -5.373  0.00  0.00    -0.269 N 
ATOM      2  C   UNL     1       3.214  -2.385  -6.490  0.00  0.00    +0.304 C 
ATOM      3  O   UNL     1       3.173  -3.599  -6.547  0.00  0.00    -0.253 OA
ATOM      4  N   UNL     1       3.666  -1.675  -7.543  0.00  0.00    -0.296 N 
ATOM      5  H   UNL     1       2.910  -0.788  -5.298  0.00  0.00    +0.156 HD
ATOM      6  H   UNL     1       3.699  -0.707  -7.497  0.00  0.00    +0.151 HD
ENDROOT
BRANCH   4   7
ATOM      7  C   UNL     1       4.106  -2.365  -8.754  0.00  0.00    +0.077 C 
ATOM      8  C   UNL     1       2.917  -2.622  -9.682  0.00  0.00    -0.007 C 
ATOM      9  C   UNL     1       3.380  -3.440 -10.882  0.00  0.00    +0.003 C 
ATOM     10  C   UNL     1       4.529  -2.785 -11.633  0.00  0.00    +0.001 C 
ATOM     11  C   UNL     1       5.637  -2.285 -10.720  0.00  0.00    +0.003 C 
ATOM     12  C   UNL     1       5.107  -1.500  -9.524  0.00  0.00    -0.007 C 
ATOM     13  C   UNL     1       4.456  -0.195  -9.954  0.00  0.00    -0.073 C 
ATOM     14  N   UNL     1       3.235  -0.385 -10.730  0.00  0.00    +0.382 N 
ATOM     15  C   UNL     1       2.288  -1.305 -10.110  0.00  0.00    -0.073 C 
ATOM     16  H   UNL     1       3.459  -0.690 -11.665  0.00  0.00    -0.081 HD
BRANCH  14  17
ATOM     17  C   UNL     1       2.577   0.920 -10.870  0.00  0.00    -0.069 C 
ATOM     18  C   UNL     1       2.180   1.364 -12.279  0.00  0.00    -0.017 C 
ATOM     19  C   UNL     1       3.358   2.034 -11.569  0.00  0.00    -0.017 C 
ENDBRANCH  14  17
ENDBRANCH   4   7
BRANCH   1  22
ATOM     20  C   UNL     1       1.886  -2.803  -1.967  0.00  0.00    +0.073 A 
ATOM     21  C   UNL     1       2.451  -2.081  -3.008  0.00  0.00    +0.049 A 
ATOM     22  C   UNL     1       2.240  -2.478  -4.320  0.00  0.00    +0.037 A 
ATOM     23  C   UNL     1       1.463  -3.597  -4.590  0.00  0.00    +0.026 A 
ATOM     24  C   UNL     1       0.900  -4.316  -3.553  0.00  0.00    +0.042 A 
ATOM     25  C   UNL     1       1.113  -3.926  -2.243  0.00  0.00    +0.145 A 
ATOM     26  F   UNL     1       0.567  -4.634  -1.230  0.00  0.00    -0.204 F 
BRANCH  20  29
ATOM     27  C   UNL     1       2.239  -1.099  -0.344  0.00  0.00    +0.404 C 
ATOM     28  O   UNL     1       2.265  -0.273  -1.234  0.00  0.00    -0.226 OA
ATOM     29  N   UNL     1       2.098  -2.406  -0.641  0.00  0.00    -0.248 N 
ATOM     30  H   UNL     1       2.144  -3.071   0.063  0.00  0.00    +0.158 HD
BRANCH  27  32
ATOM     31  C   UNL     1       2.496   0.692   1.183  0.00  0.00    +0.282 C 
ATOM     32  O   UNL     1       2.350  -0.709   0.941  0.00  0.00    -0.453 OA
ENDBRANCH  27  32
ENDBRANCH  20  29
ENDBRANCH   1  22
TORSDOF 5
