REMARK  Name = ZINC66122551
REMARK  8 active torsions:
REMARK  status: ('A' for Active; 'I' for Inactive)
REMARK    1  A    between atoms: C_1  and  C_2
REMARK    2  A    between atoms: C_2  and  C_3
REMARK    3  A    between atoms: C_2  and  C_4
REMARK    4  A    between atoms: C_9  and  N_10
REMARK    5  A    between atoms: N_10  and  C_11
REMARK    6  A    between atoms: C_11  and  N_13
REMARK    7  A    between atoms: N_13  and  N_14
REMARK    8  A    between atoms: C_15  and  C_17
REMARK                            x       y       z     vdW  Elec       q    Type
REMARK                         _______ _______ _______ _____ _____    ______ ____
ROOT
ATOM      1  N   UNL     1      -0.595  -2.329  -4.249  0.00  0.00    -0.245 N 
ATOM      2  H   UNL     1      -0.919  -2.775  -5.047  0.00  0.00    +0.172 HD
ENDROOT
BRANCH   1   3
ATOM      3  N   UNL     1       0.764  -2.014  -4.125  0.00  0.00    -0.231 N 
ATOM      4  C   UNL     1       1.623  -2.330  -5.115  0.00  0.00    +0.265 C 
ATOM      5  O   UNL     1       1.235  -2.969  -6.075  0.00  0.00    -0.268 OA
ATOM      6  H   UNL     1       1.088  -1.568  -3.326  0.00  0.00    +0.173 HD
BRANCH   4   7
ATOM      7  C   UNL     1       3.028  -1.903  -5.034  0.00  0.00    +0.103 A 
ATOM      8  C   UNL     1       3.896  -2.114  -6.101  0.00  0.00    +0.023 A 
ATOM      9  C   UNL     1       5.226  -1.696  -5.994  0.00  0.00    -0.027 A 
ATOM     10  C   UNL     1       5.660  -1.091  -4.858  0.00  0.00    +0.022 A 
ATOM     11  N   UNL     1       4.813  -0.883  -3.815  0.00  0.00    -0.325 N 
ATOM     12  H   UNL     1       5.145  -0.449  -3.014  0.00  0.00    +0.169 HD
ATOM     13  C   UNL     1       3.524  -1.261  -3.870  0.00  0.00    +0.261 A 
ATOM     14  O   UNL     1       2.786  -1.058  -2.922  0.00  0.00    -0.267 OA
ATOM     15  C   UNL     1       7.128  -0.736  -4.989  0.00  0.00    +0.054 C 
ATOM     16  C   UNL     1       7.644  -1.588  -6.168  0.00  0.00    +0.011 C 
ATOM     17  C   UNL     1       6.358  -1.807  -6.994  0.00  0.00    +0.037 C 
ENDBRANCH   4   7
ENDBRANCH   1   3
BRANCH   1  18
ATOM     18  C   UNL     1      -1.453  -2.013  -3.259  0.00  0.00    +0.151 C 
ATOM     19  S   UNL     1      -3.114  -2.398  -3.410  0.00  0.00    -0.017 S 
BRANCH  18  20
ATOM     20  N   UNL     1      -1.004  -1.393  -2.149  0.00  0.00    -0.296 N 
ATOM     21  H   UNL     1      -0.079  -1.107  -2.095  0.00  0.00    +0.154 HD
BRANCH  20  27
ATOM     22  C   UNL     1      -1.438  -1.374   0.226  0.00  0.00    -0.024 A 
ATOM     23  C   UNL     1      -2.296  -1.140   1.284  0.00  0.00    +0.006 A 
ATOM     24  C   UNL     1      -3.585  -0.702   1.046  0.00  0.00    +0.000 A 
ATOM     25  C   UNL     1      -4.021  -0.496  -0.250  0.00  0.00    +0.002 A 
ATOM     26  C   UNL     1      -3.169  -0.729  -1.312  0.00  0.00    +0.023 A 
ATOM     27  C   UNL     1      -1.871  -1.163  -1.077  0.00  0.00    +0.036 A 
BRANCH  22  29
ATOM     28  C   UNL     1       0.743  -0.769   1.239  0.00  0.00    +0.012 C 
ATOM     29  C   UNL     1      -0.033  -1.852   0.486  0.00  0.00    +0.015 C 
ATOM     30  C   UNL     1      -0.076  -3.128   1.328  0.00  0.00    +0.012 C 
ENDBRANCH  22  29
ENDBRANCH  20  27
ENDBRANCH  18  20
ENDBRANCH   1  18
TORSDOF 6
