REMARK  Name = ZINC02316713
REMARK  7 active torsions:
REMARK  status: ('A' for Active; 'I' for Inactive)
REMARK    1  A    between atoms: C_1  and  O_2
REMARK    2  A    between atoms: O_2  and  C_3
REMARK    3  A    between atoms: C_6  and  C_9
REMARK    4  A    between atoms: N_11  and  C_12
REMARK    5  A    between atoms: C_12  and  N_14
REMARK    6  A    between atoms: N_14  and  C_15
REMARK    7  A    between atoms: C_16  and  C_26
REMARK                            x       y       z     vdW  Elec       q    Type
REMARK                         _______ _______ _______ _____ _____    ______ ____
ROOT
ATOM      1  N   UNL     1       0.002  -0.004   0.002  0.00  0.00    -0.291 N 
ATOM      2  H   UNL     1      -0.831  -0.500   0.007  0.00  0.00    +0.154 HD
ENDROOT
BRANCH   1   3
ATOM      3  C   UNL     1       1.211  -0.680  -0.013  0.00  0.00    +0.084 A 
ATOM      4  C   UNL     1       1.435  -2.044  -0.017  0.00  0.00    +0.068 A 
ATOM      5  C   UNL     1       2.823  -2.522  -0.057  0.00  0.00    -0.023 A 
ATOM      6  C   UNL     1       3.738  -1.540  -0.038  0.00  0.00    -0.004 A 
ATOM      7  S   UNL     1       2.813  -0.025  -0.024  0.00  0.00    -0.077 S 
ATOM      8  C   UNL     1       5.236  -1.652   0.026  0.00  0.00    +0.043 C 
ATOM      9  C   UNL     1       5.598  -1.907   1.500  0.00  0.00    +0.005 C 
ATOM     10  C   UNL     1       4.795  -3.118   1.989  0.00  0.00    +0.000 C 
ATOM     11  C   UNL     1       5.253  -4.277   1.131  0.00  0.00    +0.000 C 
ATOM     12  C   UNL     1       4.560  -4.362  -0.218  0.00  0.00    +0.005 C 
ATOM     13  C   UNL     1       3.076  -4.028  -0.135  0.00  0.00    +0.037 C 
BRANCH   4  14
ATOM     14  C   UNL     1       0.315  -2.990   0.013  0.00  0.00    +0.244 C 
ATOM     15  O   UNL     1      -0.177  -3.384  -1.028  0.00  0.00    -0.270 OA
ATOM     16  N   UNL     1      -0.170  -3.422   1.194  0.00  0.00    -0.325 N 
ATOM     17  H   UNL     1       0.222  -3.108   2.024  0.00  0.00    +0.145 HD
ATOM     18  H   UNL     1      -0.911  -4.048   1.214  0.00  0.00    +0.145 HD
ENDBRANCH   4  14
ENDBRANCH   1   3
BRANCH   1  19
ATOM     19  C   UNL     1      -0.016   1.344   0.009  0.00  0.00    +0.141 C 
ATOM     20  S   UNL     1       1.455   2.220   0.000  0.00  0.00    -0.018 S 
BRANCH  19  23
ATOM     21  C   UNL     1      -1.211   3.349   0.026  0.00  0.00    +0.250 C 
ATOM     22  O   UNL     1      -0.166   3.971   0.024  0.00  0.00    -0.270 OA
ATOM     23  N   UNL     1      -1.192   2.002   0.019  0.00  0.00    -0.264 N 
ATOM     24  H   UNL     1      -2.026   1.505   0.020  0.00  0.00    +0.157 HD
BRANCH  21  28
ATOM     25  C   UNL     1      -4.916   5.422   0.054  0.00  0.00    +0.120 A 
ATOM     26  C   UNL     1      -3.723   6.135   0.053  0.00  0.00    +0.046 A 
ATOM     27  C   UNL     1      -2.519   5.467   0.044  0.00  0.00    +0.016 A 
ATOM     28  C   UNL     1      -2.498   4.069   0.036  0.00  0.00    +0.037 A 
ATOM     29  C   UNL     1      -3.700   3.356   0.032  0.00  0.00    +0.016 A 
ATOM     30  C   UNL     1      -4.900   4.032   0.047  0.00  0.00    +0.046 A 
BRANCH  25  32
ATOM     31  C   UNL     1      -7.288   5.290   0.064  0.00  0.00    +0.277 C 
ATOM     32  O   UNL     1      -6.101   6.084   0.063  0.00  0.00    -0.495 OA
ENDBRANCH  25  32
ENDBRANCH  21  28
ENDBRANCH  19  23
ENDBRANCH   1  19
TORSDOF 6
