REMARK  Name = ZINC24875279
REMARK  12 active torsions:
REMARK  status: ('A' for Active; 'I' for Inactive)
REMARK    1  A    between atoms: C_1  and  C_2
REMARK    2  A    between atoms: C_2  and  C_23
REMARK    3  A    between atoms: N_5  and  C_9
REMARK    4  A    between atoms: C_9  and  C_10
REMARK    5  A    between atoms: C_10  and  C_12
REMARK    6  A    between atoms: C_13  and  N_22
REMARK    7  A    between atoms: N_14  and  C_21
REMARK    8  A    between atoms: N_17  and  C_20
REMARK    9  A    between atoms: C_26  and  C_29
REMARK   10  A    between atoms: C_29  and  C_30
REMARK   11  A    between atoms: C_29  and  C_31
REMARK   12  A    between atoms: C_29  and  C_32
REMARK                            x       y       z     vdW  Elec       q    Type
REMARK                         _______ _______ _______ _____ _____    ______ ____
ROOT
ATOM      1  C   UNL     1      -0.623   2.738   4.351  0.00  0.00    +0.047 C 
ATOM      2  C   UNL     1      -1.394   2.722   3.030  0.00  0.00    +0.135 C 
ATOM      3  C   UNL     1      -0.438   2.655   1.856  0.00  0.00    +0.251 C 
ATOM      4  O   UNL     1       0.412   3.465   1.556  0.00  0.00    -0.272 OA
ATOM      5  N   UNL     1      -0.730   1.506   1.214  0.00  0.00    -0.216 N 
ATOM      6  C   UNL     1      -1.723   0.843   1.817  0.00  0.00    +0.310 C 
ATOM      7  O   UNL     1      -2.160  -0.222   1.425  0.00  0.00    -0.252 OA
ATOM      8  N   UNL     1      -2.184   1.485   2.905  0.00  0.00    -0.281 N 
ATOM      9  H   UNL     1      -2.971   1.258   3.639  0.00  0.00    +0.152 HD
ENDROOT
BRANCH   2  10
ATOM     10  C   UNL     1      -2.286   3.933   2.924  0.00  0.00    -0.015 A 
ATOM     11  C   UNL     1      -1.796   5.106   2.381  0.00  0.00    +0.006 A 
ATOM     12  C   UNL     1      -2.615   6.215   2.280  0.00  0.00    +0.004 A 
ATOM     13  C   UNL     1      -3.921   6.154   2.730  0.00  0.00    -0.042 A 
ATOM     14  C   UNL     1      -4.409   4.982   3.277  0.00  0.00    +0.004 A 
ATOM     15  C   UNL     1      -3.591   3.871   3.375  0.00  0.00    +0.006 A 
BRANCH  13  16
ATOM     16  C   UNL     1      -4.812   7.364   2.624  0.00  0.00    -0.013 C 
ATOM     17  C   UNL     1      -5.281   7.776   4.021  0.00  0.00    +0.015 C 
ATOM     18  C   UNL     1      -4.033   8.517   1.987  0.00  0.00    +0.015 C 
ATOM     19  C   UNL     1      -6.027   7.029   1.756  0.00  0.00    +0.015 C 
ENDBRANCH  13  16
ENDBRANCH   2  10
BRANCH   5  20
ATOM     20  C   UNL     1      -0.041   1.040   0.008  0.00  0.00    +0.197 C 
BRANCH  20  21
ATOM     21  C   UNL     1      -0.753   1.565  -1.212  0.00  0.00    +0.189 C 
ATOM     22  O   UNL     1      -1.740   2.262  -1.087  0.00  0.00    -0.290 OA
BRANCH  21  23
ATOM     23  C   UNL     1      -0.273   1.248  -2.501  0.00  0.00    +0.121 A 
ATOM     24  C   UNL     1      -0.985   1.622  -3.653  0.00  0.00    +0.116 A 
ATOM     25  N   UNL     1      -0.477   1.297  -4.878  0.00  0.00    -0.284 N 
ATOM     26  C   UNL     1       0.676   0.622  -4.999  0.00  0.00    +0.333 A 
ATOM     27  O   UNL     1       1.083   0.353  -6.112  0.00  0.00    -0.246 OA
ATOM     28  N   UNL     1       1.397   0.233  -3.934  0.00  0.00    -0.263 N 
ATOM     29  C   UNL     1       0.985   0.510  -2.680  0.00  0.00    +0.269 A 
ATOM     30  O   UNL     1       1.641   0.157  -1.718  0.00  0.00    -0.267 OA
ATOM     31  C   UNL     1       2.649  -0.501  -4.138  0.00  0.00    +0.157 C 
ATOM     32  C   UNL     1      -1.210   1.688  -6.086  0.00  0.00    +0.155 C 
BRANCH  24  33
ATOM     33  N   UNL     1      -2.159   2.302  -3.549  0.00  0.00    -0.344 N 
ATOM     34  H   UNL     1      -2.710   2.591  -4.457  0.00  0.00    +0.144 HD
ATOM     35  H   UNL     1      -2.558   2.563  -2.558  0.00  0.00    +0.144 HD
ENDBRANCH  24  33
ENDBRANCH  21  23
ENDBRANCH  20  21
ENDBRANCH   5  20
TORSDOF 6
