REMARK  Name = ZINC66983368
REMARK  6 active torsions:
REMARK  status: ('A' for Active; 'I' for Inactive)
REMARK    1  A    between atoms: C_1  and  C_2
REMARK    2  A    between atoms: C_2  and  C_3
REMARK    3  A    between atoms: C_2  and  C_4
REMARK    4  A    between atoms: C_2  and  N_5
REMARK    5  A    between atoms: C_6  and  C_8
REMARK    6  A    between atoms: C_8  and  N_9
REMARK                            x       y       z     vdW  Elec       q    Type
REMARK                         _______ _______ _______ _____ _____    ______ ____
ROOT
ATOM      1  N   UNL     1       4.051  -0.110  -2.678  0.00  0.00    -0.290 N 
ATOM      2  C   UNL     1       4.876  -0.420  -3.698  0.00  0.00    +0.307 C 
ATOM      3  O   UNL     1       4.510  -1.193  -4.562  0.00  0.00    -0.252 OA
ATOM      4  N   UNL     1       6.106   0.127  -3.759  0.00  0.00    -0.255 N 
ATOM      5  C   UNL     1       6.699   0.980  -2.725  0.00  0.00    +0.120 C 
ATOM      6  C   UNL     1       8.095   1.344  -3.256  0.00  0.00    +0.056 C 
ATOM      7  C   UNL     1       8.189   0.647  -4.594  0.00  0.00    -0.023 A 
ATOM      8  C   UNL     1       7.006  -0.041  -4.817  0.00  0.00    +0.041 A 
ATOM      9  C   UNL     1       6.859  -0.771  -5.997  0.00  0.00    +0.025 A 
ATOM     10  C   UNL     1       7.879  -0.809  -6.924  0.00  0.00    +0.017 A 
ATOM     11  C   UNL     1       9.057  -0.123  -6.691  0.00  0.00    +0.018 A 
ATOM     12  C   UNL     1       9.207   0.610  -5.527  0.00  0.00    +0.020 A 
ATOM     13 BR   UNL     1      10.454  -0.177  -7.964  0.00  0.00    -0.050 Br
ATOM     14  H   UNL     1       4.367   0.448  -1.951  0.00  0.00    +0.151 HD
ENDROOT
BRANCH   1  15
ATOM     15  C   UNL     1       2.676  -0.617  -2.668  0.00  0.00    +0.201 C 
BRANCH  15  17
ATOM     16  N   UNL     1       0.686  -0.474  -1.205  0.00  0.00    -0.309 N 
ATOM     17  C   UNL     1       1.970  -0.130  -1.429  0.00  0.00    +0.231 C 
ATOM     18  O   UNL     1       2.558   0.571  -0.632  0.00  0.00    -0.274 OA
ATOM     19  H   UNL     1       0.217  -1.035  -1.842  0.00  0.00    +0.149 HD
BRANCH  16  21
ATOM     20  C   UNL     1      -0.020   1.530   0.006  0.00  0.00    +0.031 C 
ATOM     21  C   UNL     1       0.000  -0.000  -0.001  0.00  0.00    +0.026 C 
ATOM     22  C   UNL     1       0.740  -0.506   1.240  0.00  0.00    +0.031 C 
ATOM     23  C   UNL     1      -1.435  -0.530   0.010  0.00  0.00    +0.031 C 
ENDBRANCH  16  21
ENDBRANCH  15  17
ENDBRANCH   1  15
TORSDOF 3
