REMARK  Name = ZINC49309166
REMARK  12 active torsions:
REMARK  status: ('A' for Active; 'I' for Inactive)
REMARK    1  A    between atoms: C_1  and  C_2
REMARK    2  A    between atoms: C_2  and  C_4
REMARK    3  A    between atoms: C_2  and  N_23
REMARK    4  A    between atoms: C_4  and  C_5
REMARK    5  A    between atoms: C_10  and  O_11
REMARK    6  A    between atoms: O_11  and  C_12
REMARK    7  A    between atoms: C_12  and  C_13
REMARK    8  A    between atoms: N_15  and  C_16
REMARK    9  A    between atoms: C_16  and  C_18
REMARK   10  A    between atoms: C_16  and  C_19
REMARK   11  A    between atoms: C_19  and  C_20
REMARK   12  A    between atoms: C_19  and  C_21
REMARK                            x       y       z     vdW  Elec       q    Type
REMARK                         _______ _______ _______ _____ _____    ______ ____
ROOT
ATOM      1  C   UNL     1       0.632  -2.000  -1.327  0.00  0.00    -0.006 A 
ATOM      2  C   UNL     1       1.661  -2.776  -0.831  0.00  0.00    +0.022 A 
ATOM      3  C   UNL     1       1.582  -4.156  -0.895  0.00  0.00    +0.018 A 
ATOM      4  C   UNL     1       0.472  -4.761  -1.457  0.00  0.00    +0.019 A 
ATOM      5  C   UNL     1      -0.559  -3.990  -1.955  0.00  0.00    +0.047 A 
ATOM      6  C   UNL     1      -0.484  -2.606  -1.886  0.00  0.00    +0.124 A 
ATOM      7 BR   UNL     1       2.993  -5.215  -0.215  0.00  0.00    -0.050 Br
ENDROOT
BRANCH   1   8
ATOM      8  C   UNL     1       0.718  -0.497  -1.257  0.00  0.00    +0.022 C 
BRANCH   8  10
ATOM      9  C   UNL     1      -0.019   1.526   0.010  0.00  0.00    -0.014 C 
ATOM     10  C   UNL     1       0.002  -0.004   0.002  0.00  0.00    -0.074 C 
BRANCH  10  11
ATOM     11  N   UNL     1       0.713  -0.491   1.192  0.00  0.00    +0.380 N 
ATOM     12  H   UNL     1       0.240  -0.165   2.022  0.00  0.00    -0.090 HD
ATOM     13  H   UNL     1       0.726  -1.500   1.187  0.00  0.00    -0.090 HD
ATOM     14  H   UNL     1       1.659  -0.141   1.185  0.00  0.00    -0.090 HD
ENDBRANCH  10  11
ENDBRANCH   8  10
ENDBRANCH   1   8
BRANCH   6  15
ATOM     15  O   UNL     1      -1.500  -1.844  -2.371  0.00  0.00    -0.483 OA
BRANCH  15  16
ATOM     16  C   UNL     1      -2.618  -2.535  -2.932  0.00  0.00    +0.324 C 
BRANCH  16  17
ATOM     17  C   UNL     1      -3.637  -1.535  -3.414  0.00  0.00    +0.251 C 
ATOM     18  O   UNL     1      -3.427  -0.347  -3.289  0.00  0.00    -0.272 OA
ATOM     19  N   UNL     1      -4.782  -1.960  -3.984  0.00  0.00    -0.310 N 
ATOM     20  H   UNL     1      -4.950  -2.910  -4.084  0.00  0.00    +0.149 HD
BRANCH  19  21
ATOM     21  C   UNL     1      -5.773  -0.988  -4.452  0.00  0.00    +0.073 C 
ATOM     22  C   UNL     1      -5.410  -0.531  -5.867  0.00  0.00    +0.028 C 
BRANCH  21  23
ATOM     23  C   UNL     1      -7.158  -1.637  -4.465  0.00  0.00    +0.003 C 
ATOM     24  C   UNL     1      -7.521  -2.093  -3.050  0.00  0.00    +0.009 C 
ATOM     25  C   UNL     1      -8.193  -0.621  -4.954  0.00  0.00    +0.009 C 
ENDBRANCH  21  23
ENDBRANCH  19  21
ENDBRANCH  16  17
ENDBRANCH  15  16
ENDBRANCH   6  15
TORSDOF 8
