REMARK  Name = ZINC42068362
REMARK  5 active torsions:
REMARK  status: ('A' for Active; 'I' for Inactive)
REMARK    1  A    between atoms: C_1  and  C_2
REMARK    2  A    between atoms: C_7  and  C_8
REMARK    3  A    between atoms: N_9  and  C_15
REMARK    4  A    between atoms: C_12  and  N_14
REMARK    5  A    between atoms: C_15  and  C_16
REMARK                            x       y       z     vdW  Elec       q    Type
REMARK                         _______ _______ _______ _____ _____    ______ ____
ROOT
ATOM      1  C   UNL     1      -0.440   1.365   0.123  0.00  0.00    +0.044 C 
ATOM      2  C   UNL     1      -0.425  -0.142   0.089  0.00  0.00    -0.046 A 
ATOM      3  C   UNL     1      -0.351  -0.801  -1.124  0.00  0.00    +0.004 A 
ATOM      4  C   UNL     1      -0.338  -2.185  -1.156  0.00  0.00    +0.008 A 
ATOM      5  C   UNL     1      -0.399  -2.899   0.020  0.00  0.00    -0.000 A 
ATOM      6  C   UNL     1      -0.474  -2.248   1.245  0.00  0.00    +0.045 A 
ATOM      7  C   UNL     1      -0.481  -0.855   1.269  0.00  0.00    -0.026 A 
ATOM      8  C   UNL     1      -0.556  -0.126   2.586  0.00  0.00    +0.046 C 
ATOM      9  N   UNL     1      -0.525  -3.179   2.283  0.00  0.00    -0.260 N 
ATOM     10  C   UNL     1      -0.489  -4.445   1.834  0.00  0.00    +0.242 C 
ATOM     11  O   UNL     1      -0.519  -5.450   2.511  0.00  0.00    -0.273 OA
ATOM     12  C   UNL     1      -0.404  -4.380   0.324  0.00  0.00    +0.171 C 
ENDROOT
BRANCH  12  13
ATOM     13  N   UNL     1       0.838  -5.006  -0.149  0.00  0.00    -0.316 NA
ATOM     14  H   UNL     1       0.842  -5.995   0.051  0.00  0.00    +0.119 HD
ATOM     15  H   UNL     1       0.977  -4.835  -1.133  0.00  0.00    +0.119 HD
ENDBRANCH  12  13
BRANCH   9  16
ATOM     16  C   UNL     1      -0.609  -2.817   3.700  0.00  0.00    +0.209 C 
BRANCH  16  17
ATOM     17  C   UNL     1      -2.042  -2.521   4.060  0.00  0.00    +0.228 C 
ATOM     18  O   UNL     1      -2.908  -2.604   3.215  0.00  0.00    -0.274 OA
ATOM     19  N   UNL     1      -2.361  -2.164   5.320  0.00  0.00    -0.328 N 
ATOM     20  H   UNL     1      -1.668  -2.098   5.995  0.00  0.00    +0.145 HD
ATOM     21  H   UNL     1      -3.283  -1.974   5.551  0.00  0.00    +0.145 HD
ENDBRANCH  16  17
ENDBRANCH   9  16
TORSDOF 3
