REMARK  Name = ZINC01628084
REMARK  6 active torsions:
REMARK  status: ('A' for Active; 'I' for Inactive)
REMARK    1  A    between atoms: C_1  and  C_2
REMARK    2  A    between atoms: C_3  and  N_17
REMARK    3  A    between atoms: C_4  and  S_13
REMARK    4  A    between atoms: C_6  and  S_9
REMARK    5  A    between atoms: S_9  and  N_12
REMARK    6  A    between atoms: S_13  and  N_16
REMARK                            x       y       z     vdW  Elec       q    Type
REMARK                         _______ _______ _______ _____ _____    ______ ____
ROOT
ATOM      1  C   UNL     1       0.043   3.810   0.035  0.00  0.00    +0.047 C 
ATOM      2  C   UNL     1      -1.250   3.037   0.030  0.00  0.00    -0.008 A 
ATOM      3  C   UNL     1      -1.230   1.648   0.017  0.00  0.00    +0.056 A 
ATOM      4  C   UNL     1      -2.424   0.938   0.019  0.00  0.00    +0.128 A 
ATOM      5  C   UNL     1      -3.628   1.615   0.028  0.00  0.00    +0.060 A 
ATOM      6  C   UNL     1      -3.646   2.997   0.035  0.00  0.00    +0.125 A 
ATOM      7  C   UNL     1      -2.458   3.708   0.034  0.00  0.00    +0.072 A 
ATOM      8 CL   UNL     1      -2.486   5.444   0.043  0.00  0.00    -0.081 Cl
ENDROOT
BRANCH   6   9
ATOM      9  S   UNL     1      -5.185   3.857   0.047  0.00  0.00    +0.057 S 
ATOM     10  O   UNL     1      -5.107   4.842  -0.974  0.00  0.00    -0.153 OA
ATOM     11  O   UNL     1      -6.203   2.866   0.073  0.00  0.00    -0.153 OA
BRANCH   9  12
ATOM     12  N   UNL     1      -5.280   4.671   1.486  0.00  0.00    -0.203 NA
ATOM     13  H   UNL     1      -5.775   5.504   1.540  0.00  0.00    +0.144 HD
ATOM     14  H   UNL     1      -4.841   4.316   2.274  0.00  0.00    +0.144 HD
ENDBRANCH   9  12
ENDBRANCH   6   9
BRANCH   4  15
ATOM     15  S   UNL     1      -2.403  -0.824   0.008  0.00  0.00    +0.058 S 
ATOM     16  O   UNL     1      -1.498  -1.225   1.027  0.00  0.00    -0.153 OA
ATOM     17  O   UNL     1      -3.760  -1.246  -0.014  0.00  0.00    -0.153 OA
BRANCH  15  18
ATOM     18  N   UNL     1      -1.736  -1.297  -1.431  0.00  0.00    -0.203 NA
ATOM     19  H   UNL     1      -1.446  -0.631  -2.074  0.00  0.00    +0.144 HD
ATOM     20  H   UNL     1      -1.635  -2.240  -1.632  0.00  0.00    +0.144 HD
ENDBRANCH  15  18
ENDBRANCH   4  15
BRANCH   3  21
ATOM     21  N   UNL     1      -0.011   0.966   0.007  0.00  0.00    -0.356 N 
ATOM     22  H   UNL     1       0.002  -0.004   0.002  0.00  0.00    +0.142 HD
ATOM     23  H   UNL     1       0.822   1.462   0.002  0.00  0.00    +0.142 HD
ENDBRANCH   3  21
TORSDOF 5
