REMARK  Name = ZINC36635899
REMARK  5 active torsions:
REMARK  status: ('A' for Active; 'I' for Inactive)
REMARK    1  A    between atoms: C_1  and  C_2
REMARK    2  A    between atoms: C_6  and  C_25
REMARK    3  A    between atoms: C_7  and  N_8
REMARK    4  A    between atoms: N_8  and  C_9
REMARK    5  A    between atoms: N_14  and  C_17
REMARK                            x       y       z     vdW  Elec       q    Type
REMARK                         _______ _______ _______ _____ _____    ______ ____
ROOT
ATOM      1  C   UNL     1      -0.341  -0.940   3.656  0.00  0.00    +0.166 C 
ATOM      2  C   UNL     1       0.089   0.155   4.652  0.00  0.00    +0.128 C 
ATOM      3  C   UNL     1      -1.172   0.431   5.442  0.00  0.00    +0.228 C 
ATOM      4  O   UNL     1      -1.275   1.238   6.341  0.00  0.00    -0.275 OA
ATOM      5  N   UNL     1      -2.155  -0.357   4.991  0.00  0.00    -0.209 N 
ATOM      6  C   UNL     1      -1.799  -1.173   3.986  0.00  0.00    +0.247 C 
ATOM      7  O   UNL     1      -2.527  -1.967   3.430  0.00  0.00    -0.273 OA
ENDROOT
BRANCH   5   8
ATOM      8  C   UNL     1      -3.452  -0.335   5.526  0.00  0.00    +0.045 A 
ATOM      9  C   UNL     1      -3.677  -0.778   6.822  0.00  0.00    +0.025 A 
ATOM     10  C   UNL     1      -4.954  -0.755   7.347  0.00  0.00    +0.023 A 
ATOM     11  C   UNL     1      -6.010  -0.290   6.582  0.00  0.00    +0.059 A 
ATOM     12  C   UNL     1      -5.788   0.153   5.289  0.00  0.00    +0.061 A 
ATOM     13  C   UNL     1      -4.510   0.136   4.762  0.00  0.00    +0.045 A 
ATOM     14 CL   UNL     1      -7.114   0.736   4.333  0.00  0.00    -0.082 Cl
ATOM     15 CL   UNL     1      -7.614  -0.263   7.245  0.00  0.00    -0.082 Cl
ENDBRANCH   5   8
BRANCH   1  16
ATOM     16  N   UNL     1      -0.193  -0.469   2.276  0.00  0.00    -0.332 N 
ATOM     17  H   UNL     1      -0.868   0.108   1.886  0.00  0.00    +0.147 HD
BRANCH  16  24
ATOM     18  C   UNL     1      -0.066  -3.151   1.337  0.00  0.00    +0.045 C 
ATOM     19  C   UNL     1       1.022  -2.151   1.044  0.00  0.00    -0.029 A 
ATOM     20  C   UNL     1       2.121  -2.524   0.296  0.00  0.00    +0.005 A 
ATOM     21  C   UNL     1       3.121  -1.607   0.027  0.00  0.00    +0.001 A 
ATOM     22  C   UNL     1       3.023  -0.313   0.506  0.00  0.00    +0.005 A 
ATOM     23  C   UNL     1       1.927   0.066   1.256  0.00  0.00    -0.029 A 
ATOM     24  C   UNL     1       0.919  -0.851   1.523  0.00  0.00    +0.034 A 
ATOM     25  C   UNL     1       1.822   1.476   1.778  0.00  0.00    +0.045 C 
ENDBRANCH  16  24
ENDBRANCH   1  16
TORSDOF 3
