REMARK  Name = ZINC26919596
REMARK  8 active torsions:
REMARK  status: ('A' for Active; 'I' for Inactive)
REMARK    1  A    between atoms: C_1  and  O_2
REMARK    2  A    between atoms: O_2  and  C_3
REMARK    3  A    between atoms: C_6  and  C_9
REMARK    4  A    between atoms: C_11  and  C_23
REMARK    5  A    between atoms: C_13  and  C_18
REMARK    6  A    between atoms: C_13  and  O_22
REMARK    7  A    between atoms: C_23  and  S_25
REMARK    8  A    between atoms: S_25  and  C_26
REMARK                            x       y       z     vdW  Elec       q    Type
REMARK                         _______ _______ _______ _____ _____    ______ ____
ROOT
ATOM      1  C   UNL     1      -0.995   5.755   1.905  0.00  0.00    +0.120 C 
ATOM      2  C   UNL     1      -1.340   4.311   2.285  0.00  0.00    +0.150 C 
ATOM      3  C   UNL     1      -0.732   4.009   3.659  0.00  0.00    +0.244 C 
ATOM      4  N   UNL     1      -1.209   5.002   4.623  0.00  0.00    -0.264 N 
ATOM      5  C   UNL     1      -1.535   6.246   4.240  0.00  0.00    +0.302 C 
ATOM      6  O   UNL     1      -1.915   7.035   5.083  0.00  0.00    -0.253 OA
ATOM      7  N   UNL     1      -1.457   6.653   2.965  0.00  0.00    -0.292 N 
ATOM      8  H   UNL     1      -1.305   4.735   5.686  0.00  0.00    +0.153 HD
ATOM      9  H   UNL     1      -1.749   7.686   2.722  0.00  0.00    +0.151 HD
ENDROOT
BRANCH   1  13
ATOM     10  C   UNL     1      -2.928   6.766  -1.769  0.00  0.00    +0.120 A 
ATOM     11  C   UNL     1      -1.587   6.409  -1.764  0.00  0.00    +0.046 A 
ATOM     12  C   UNL     1      -0.965   6.083  -0.575  0.00  0.00    +0.009 A 
ATOM     13  C   UNL     1      -1.676   6.112   0.610  0.00  0.00    -0.026 A 
ATOM     14  C   UNL     1      -3.014   6.461   0.607  0.00  0.00    +0.009 A 
ATOM     15  C   UNL     1      -3.640   6.794  -0.579  0.00  0.00    +0.046 A 
BRANCH  10  17
ATOM     16  C   UNL     1      -4.924   7.444  -2.867  0.00  0.00    +0.277 C 
ATOM     17  O   UNL     1      -3.543   7.087  -2.938  0.00  0.00    -0.495 OA
ENDBRANCH  10  17
ENDBRANCH   1  13
BRANCH   3  18
ATOM     18  C   UNL     1      -1.160   2.611   4.112  0.00  0.00    +0.436 C 
ATOM     19  F   UNL     1      -0.605   1.654   3.255  0.00  0.00    -0.166 F 
ATOM     20  F   UNL     1      -0.710   2.386   5.417  0.00  0.00    -0.166 F 
ATOM     21  F   UNL     1      -2.555   2.516   4.076  0.00  0.00    -0.166 F 
ENDBRANCH   3  18
BRANCH   3  22
ATOM     22  O   UNL     1       0.693   4.070   3.575  0.00  0.00    -0.364 OA
ATOM     23  H   UNL     1       1.305   3.881   4.469  0.00  0.00    +0.212 HD
ENDBRANCH   3  22
BRANCH   2  24
ATOM     24  C   UNL     1      -0.765   3.367   1.260  0.00  0.00    +0.199 C 
ATOM     25  O   UNL     1       0.419   3.401   1.000  0.00  0.00    -0.285 OA
BRANCH  24  26
ATOM     26  S   UNL     1      -1.785   2.248   0.461  0.00  0.00    -0.091 S 
ATOM     27  C   UNL     1      -0.575   1.426  -0.606  0.00  0.00    +0.093 C 
ENDBRANCH  24  26
ENDBRANCH   2  24
TORSDOF 6
