REMARK  Name = ZINC36203007
REMARK  10 active torsions:
REMARK  status: ('A' for Active; 'I' for Inactive)
REMARK    1  A    between atoms: C_1  and  C_2
REMARK    2  A    between atoms: C_2  and  C_28
REMARK    3  A    between atoms: N_5  and  N_9
REMARK    4  A    between atoms: C_10  and  C_12
REMARK    5  A    between atoms: C_12  and  S_13
REMARK    6  A    between atoms: S_13  and  C_14
REMARK    7  A    between atoms: C_17  and  C_20
REMARK    8  A    between atoms: N_18  and  N_19
REMARK    9  A    between atoms: C_25  and  O_26
REMARK   10  A    between atoms: O_26  and  C_27
REMARK                            x       y       z     vdW  Elec       q    Type
REMARK                         _______ _______ _______ _____ _____    ______ ____
ROOT
ATOM      1  N   UNL     1       2.808  -1.855  -1.420  0.00  0.00    -0.223 N 
ATOM      2  C   UNL     1       4.020  -1.285  -1.566  0.00  0.00    +0.240 C 
ATOM      3  O   UNL     1       4.230  -0.181  -1.111  0.00  0.00    -0.273 OA
ATOM      4  H   UNL     1       2.640  -2.738  -1.784  0.00  0.00    +0.174 HD
ENDROOT
BRANCH   1   9
ATOM      5  C   UNL     1      -0.176   1.543  -0.389  0.00  0.00    +0.047 C 
ATOM      6  C   UNL     1      -0.089   0.024  -0.232  0.00  0.00    +0.137 C 
ATOM      7  C   UNL     1       0.741  -0.582  -1.347  0.00  0.00    +0.267 C 
ATOM      8  O   UNL     1       0.509  -0.542  -2.537  0.00  0.00    -0.271 OA
ATOM      9  N   UNL     1       1.790  -1.172  -0.742  0.00  0.00    -0.137 N 
ATOM     10  C   UNL     1       1.739  -1.026   0.587  0.00  0.00    +0.327 C 
ATOM     11  O   UNL     1       2.574  -1.472   1.349  0.00  0.00    -0.251 OA
ATOM     12  N   UNL     1       0.659  -0.329   0.987  0.00  0.00    -0.280 N 
ATOM     13  H   UNL     1       0.420  -0.104   1.899  0.00  0.00    +0.152 HD
BRANCH   6  14
ATOM     14  C   UNL     1      -1.468  -0.585  -0.203  0.00  0.00    -0.015 A 
ATOM     15  C   UNL     1      -2.063  -1.004  -1.377  0.00  0.00    +0.006 A 
ATOM     16  C   UNL     1      -3.328  -1.562  -1.351  0.00  0.00    +0.000 A 
ATOM     17  C   UNL     1      -3.996  -1.701  -0.148  0.00  0.00    +0.000 A 
ATOM     18  C   UNL     1      -3.400  -1.283   1.026  0.00  0.00    +0.000 A 
ATOM     19  C   UNL     1      -2.134  -0.729   1.000  0.00  0.00    +0.006 A 
ENDBRANCH   6  14
ENDBRANCH   1   9
BRANCH   2  20
ATOM     20  C   UNL     1       5.115  -2.020  -2.296  0.00  0.00    +0.174 C 
BRANCH  20  21
ATOM     21  S   UNL     1       6.614  -0.999  -2.325  0.00  0.00    -0.075 S 
BRANCH  21  22
ATOM     22  C   UNL     1       7.784  -1.983  -3.200  0.00  0.00    +0.209 A 
ATOM     23  N   UNL     1       7.574  -3.178  -3.705  0.00  0.00    -0.121 NA
ATOM     24  N   UNL     1       8.641  -3.608  -4.278  0.00  0.00    -0.127 NA
ATOM     25  C   UNL     1       9.598  -2.715  -4.173  0.00  0.00    +0.185 A 
ATOM     26  N   UNL     1       9.076  -1.644  -3.485  0.00  0.00    -0.224 N 
BRANCH  25  27
ATOM     27  C   UNL     1      10.973  -2.835  -4.701  0.00  0.00    +0.062 A 
ATOM     28  C   UNL     1      12.064  -2.512  -3.893  0.00  0.00    +0.015 A 
ATOM     29  C   UNL     1      13.346  -2.626  -4.391  0.00  0.00    +0.001 A 
ATOM     30  C   UNL     1      13.554  -3.060  -5.689  0.00  0.00    +0.004 A 
ATOM     31  C   UNL     1      12.481  -3.383  -6.498  0.00  0.00    +0.046 A 
ATOM     32  C   UNL     1      11.188  -3.280  -6.011  0.00  0.00    +0.131 A 
BRANCH  32  33
ATOM     33  O   UNL     1      10.133  -3.603  -6.803  0.00  0.00    -0.494 OA
ATOM     34  C   UNL     1      10.429  -4.049  -8.128  0.00  0.00    +0.277 C 
ENDBRANCH  32  33
ENDBRANCH  25  27
BRANCH  26  35
ATOM     35  N   UNL     1       9.718  -0.485  -3.152  0.00  0.00    -0.295 N 
ATOM     36  H   UNL     1      10.239  -0.594  -2.294  0.00  0.00    +0.163 HD
ATOM     37  H   UNL     1      10.318  -0.176  -3.902  0.00  0.00    +0.163 HD
ENDBRANCH  26  35
ENDBRANCH  21  22
ENDBRANCH  20  21
ENDBRANCH   2  20
TORSDOF 8
