REMARK  Name = ZINC54095209
REMARK  5 active torsions:
REMARK  status: ('A' for Active; 'I' for Inactive)
REMARK    1  A    between atoms: C_1  and  C_2
REMARK    2  A    between atoms: C_9  and  C_11
REMARK    3  A    between atoms: N_13  and  N_14
REMARK    4  A    between atoms: C_19  and  C_26
REMARK    5  A    between atoms: C_22  and  C_25
REMARK                            x       y       z     vdW  Elec       q    Type
REMARK                         _______ _______ _______ _____ _____    ______ ____
ROOT
ATOM      1  C   UNL     1       1.619  -5.257   2.944  0.00  0.00    +0.267 C 
ATOM      2  O   UNL     1       1.790  -5.003   4.122  0.00  0.00    -0.268 OA
ATOM      3  N   UNL     1       1.702  -6.531   2.511  0.00  0.00    -0.229 N 
ATOM      4  H   UNL     1       1.566  -6.734   1.572  0.00  0.00    +0.173 HD
ENDROOT
BRANCH   3   5
ATOM      5  N   UNL     1       1.983  -7.562   3.417  0.00  0.00    -0.218 N 
ATOM      6  C   UNL     1       1.966  -8.845   3.005  0.00  0.00    +0.319 C 
ATOM      7  O   UNL     1       1.799  -9.103   1.828  0.00  0.00    -0.251 OA
ATOM      8  N   UNL     1       2.134  -9.841   3.896  0.00  0.00    -0.280 N 
ATOM      9  C   UNL     1       2.240 -11.242   3.455  0.00  0.00    +0.140 C 
ATOM     10  C   UNL     1       1.256 -12.082   4.276  0.00  0.00    +0.133 C 
ATOM     11  O   UNL     1       1.473 -11.836   5.668  0.00  0.00    -0.371 OA
ATOM     12  C   UNL     1       1.235 -10.485   6.067  0.00  0.00    +0.133 C 
ATOM     13  C   UNL     1       2.224  -9.561   5.338  0.00  0.00    +0.140 C 
ATOM     14  C   UNL     1       1.436 -10.355   7.579  0.00  0.00    +0.039 C 
ATOM     15  C   UNL     1       1.478 -13.566   3.978  0.00  0.00    +0.039 C 
ATOM     16  H   UNL     1       2.190  -7.352   4.341  0.00  0.00    +0.174 HD
ENDBRANCH   3   5
BRANCH   1  24
ATOM     17  C   UNL     1      -0.012   1.528   0.016  0.00  0.00    +0.008 C 
ATOM     18  C   UNL     1       0.005  -0.001   0.008  0.00  0.00    -0.009 C 
ATOM     19  C   UNL     1       0.711  -0.496  -1.258  0.00  0.00    +0.009 C 
ATOM     20  C   UNL     1       0.486  -2.008  -1.390  0.00  0.00    +0.043 C 
ATOM     21  C   UNL     1       0.787  -2.651  -0.068  0.00  0.00    -0.006 A 
ATOM     22  C   UNL     1       0.914  -2.020   1.135  0.00  0.00    -0.036 A 
ATOM     23  C   UNL     1       1.199  -2.822   2.231  0.00  0.00    +0.024 A 
ATOM     24  C   UNL     1       1.325  -4.178   1.996  0.00  0.00    +0.076 A 
ATOM     25  S   UNL     1       1.037  -4.273   0.239  0.00  0.00    -0.088 S 
ATOM     26  C   UNL     1       0.747  -0.507   1.245  0.00  0.00    +0.039 C 
ENDBRANCH   1  24
TORSDOF 2
