REMARK  Name = ZINC36559481
REMARK  4 active torsions:
REMARK  status: ('A' for Active; 'I' for Inactive)
REMARK    1  A    between atoms: C_12  and  C_14
REMARK    2  A    between atoms: N_21  and  C_22
REMARK    3  A    between atoms: C_22  and  C_23
REMARK    4  A    between atoms: C_23  and  C_24
REMARK                            x       y       z     vdW  Elec       q    Type
REMARK                         _______ _______ _______ _____ _____    ______ ____
ROOT
ATOM      1  C   UNL     1      -0.016   1.337   0.009  0.00  0.00    +0.033 C 
ATOM      2  C   UNL     1       0.002  -0.004   0.002  0.00  0.00    +0.031 C 
ATOM      3  C   UNL     1      -1.248  -0.784   0.004  0.00  0.00    +0.090 C 
ATOM      4  C   UNL     1      -1.182  -2.118   0.207  0.00  0.00    +0.249 C 
ATOM      5  O   UNL     1      -2.320  -2.851   0.244  0.00  0.00    -0.270 OA
ATOM      6  N   UNL     1       0.039  -2.738   0.376  0.00  0.00    -0.215 N 
ATOM      7  C   UNL     1       1.196  -2.006   0.452  0.00  0.00    +0.199 C 
ATOM      8  N   UNL     1       1.214  -0.716  -0.013  0.00  0.00    -0.287 N 
ATOM      9  N   UNL     1       2.268  -2.534   1.006  0.00  0.00    -0.186 NA
ATOM     10  C   UNL     1       2.231  -3.771   1.532  0.00  0.00    +0.193 C 
ATOM     11  N   UNL     1       1.228  -4.580   1.327  0.00  0.00    -0.335 N 
ATOM     12  C   UNL     1       0.124  -4.202   0.440  0.00  0.00    +0.211 C 
ATOM     13  N   UNL     1       3.287  -4.197   2.313  0.00  0.00    -0.315 N 
ATOM     14  H   UNL     1       3.275  -5.087   2.700  0.00  0.00    +0.149 HD
ATOM     15  H   UNL     1       2.032  -0.308  -0.338  0.00  0.00    +0.155 HD
ATOM     16  H   UNL     1       1.213  -5.445   1.767  0.00  0.00    +0.164 HD
ENDROOT
BRANCH  12  17
ATOM     17  C   UNL     1       0.376  -4.752  -0.940  0.00  0.00    -0.007 A 
ATOM     18  C   UNL     1      -0.097  -4.077  -2.050  0.00  0.00    +0.009 A 
ATOM     19  C   UNL     1       0.134  -4.582  -3.316  0.00  0.00    +0.020 A 
ATOM     20  C   UNL     1       0.838  -5.763  -3.472  0.00  0.00    +0.041 A 
ATOM     21  C   UNL     1       1.310  -6.438  -2.361  0.00  0.00    +0.020 A 
ATOM     22  C   UNL     1       1.084  -5.929  -1.095  0.00  0.00    +0.009 A 
ATOM     23 CL   UNL     1       1.127  -6.397  -5.062  0.00  0.00    -0.084 Cl
ENDBRANCH  12  17
BRANCH  13  24
ATOM     24  C   UNL     1       4.424  -3.307   2.557  0.00  0.00    +0.109 C 
BRANCH  24  25
ATOM     25  C   UNL     1       5.447  -4.018   3.445  0.00  0.00    +0.056 C 
BRANCH  25  26
ATOM     26  C   UNL     1       6.617  -3.102   3.696  0.00  0.00    -0.021 A 
ATOM     27  C   UNL     1       7.766  -3.066   3.003  0.00  0.00    +0.087 A 
ATOM     28  N   UNL     1       8.593  -2.106   3.521  0.00  0.00    -0.360 N 
ATOM     29  H   UNL     1       9.478  -1.895   3.186  0.00  0.00    +0.165 HD
ATOM     30  C   UNL     1       7.980  -1.485   4.586  0.00  0.00    +0.047 A 
ATOM     31  C   UNL     1       6.713  -2.077   4.739  0.00  0.00    +0.003 A 
ATOM     32  C   UNL     1       5.857  -1.639   5.750  0.00  0.00    +0.010 A 
ATOM     33  C   UNL     1       6.253  -0.632   6.586  0.00  0.00    +0.001 A 
ATOM     34  C   UNL     1       7.500  -0.042   6.437  0.00  0.00    +0.002 A 
ATOM     35  C   UNL     1       8.365  -0.466   5.451  0.00  0.00    +0.026 A 
ENDBRANCH  25  26
ENDBRANCH  24  25
ENDBRANCH  13  24
TORSDOF 4
