REMARK  Name = ZINC20412124
REMARK  4 active torsions:
REMARK  status: ('A' for Active; 'I' for Inactive)
REMARK    1  A    between atoms: C_11  and  C_16
REMARK    2  A    between atoms: N_22  and  C_25
REMARK    3  A    between atoms: C_25  and  C_26
REMARK    4  A    between atoms: C_26  and  C_27
REMARK                            x       y       z     vdW  Elec       q    Type
REMARK                         _______ _______ _______ _____ _____    ______ ____
ROOT
ATOM      1  C   UNL     1       4.878  -3.327  -1.027  0.00  0.00    +0.073 A 
ATOM      2  C   UNL     1       4.636  -3.162  -2.402  0.00  0.00    +0.260 A 
ATOM      3  N   UNL     1       5.678  -3.067  -3.253  0.00  0.00    -0.275 N 
ATOM      4  H   UNL     1       5.514  -2.952  -4.202  0.00  0.00    +0.173 HD
ATOM      5  C   UNL     1       6.941  -3.128  -2.795  0.00  0.00    +0.332 A 
ATOM      6  O   UNL     1       7.867  -3.040  -3.578  0.00  0.00    -0.246 OA
ATOM      7  N   UNL     1       7.196  -3.286  -1.483  0.00  0.00    -0.260 N 
ATOM      8  C   UNL     1       6.165  -3.383  -0.582  0.00  0.00    +0.262 A 
ATOM      9  O   UNL     1       6.425  -3.536   0.734  0.00  0.00    -0.267 OA
ATOM     10  O   UNL     1       3.494  -3.105  -2.822  0.00  0.00    -0.267 OA
ENDROOT
BRANCH   1  21
ATOM     11  C   UNL     1      -0.016   1.361   0.009  0.00  0.00    +0.001 A 
ATOM     12  C   UNL     1       1.169   2.083   0.002  0.00  0.00    +0.002 A 
ATOM     13  C   UNL     1       2.385   1.435  -0.013  0.00  0.00    +0.026 A 
ATOM     14  C   UNL     1       2.428   0.045  -0.021  0.00  0.00    +0.047 A 
ATOM     15  C   UNL     1       1.222  -0.684  -0.013  0.00  0.00    +0.003 A 
ATOM     16  C   UNL     1       0.002  -0.004   0.002  0.00  0.00    +0.010 A 
ATOM     17  C   UNL     1       1.609  -2.088  -0.023  0.00  0.00    -0.022 A 
ATOM     18  C   UNL     1       2.957  -2.137  -0.038  0.00  0.00    +0.011 A 
ATOM     19  N   UNL     1       3.460  -0.869  -0.035  0.00  0.00    -0.359 N 
ATOM     20  H   UNL     1       4.404  -0.644  -0.043  0.00  0.00    +0.166 HD
ATOM     21  C   UNL     1       3.729  -3.436  -0.057  0.00  0.00    +0.018 C 
ATOM     22  N   UNL     1       2.821  -4.513  -0.479  0.00  0.00    +0.388 N 
ATOM     23  C   UNL     1       1.612  -4.516   0.355  0.00  0.00    -0.076 C 
ATOM     24  C   UNL     1       0.732  -3.313  -0.016  0.00  0.00    +0.018 C 
ATOM     25  H   UNL     1       2.562  -4.373  -1.444  0.00  0.00    -0.084 HD
ATOM     26  H   UNL     1       3.292  -5.402  -0.388  0.00  0.00    -0.084 HD
ENDBRANCH   1  21
BRANCH   7  27
ATOM     27  C   UNL     1       8.582  -3.350  -1.013  0.00  0.00    +0.134 C 
BRANCH  27  28
ATOM     28  C   UNL     1       9.072  -1.940  -0.679  0.00  0.00    +0.052 C 
BRANCH  28  29
ATOM     29  C   UNL     1      10.498  -2.006  -0.196  0.00  0.00    -0.072 C 
ATOM     30  C   UNL     1      11.442  -1.803  -1.058  0.00  0.00    -0.028 C 
ATOM     31  C   UNL     1      12.905  -1.846  -0.730  0.00  0.00    +0.027 C 
ATOM     32  C   UNL     1      13.110  -1.734   0.783  0.00  0.00    +0.004 C 
ATOM     33  C   UNL     1      12.185  -2.744   1.473  0.00  0.00    +0.005 C 
ATOM     34  C   UNL     1      10.736  -2.296   1.257  0.00  0.00    +0.030 C 
ENDBRANCH  28  29
ENDBRANCH  27  28
ENDBRANCH   7  27
TORSDOF 4
