REMARK  Name = ZINC67005702
REMARK  7 active torsions:
REMARK  status: ('A' for Active; 'I' for Inactive)
REMARK    1  A    between atoms: C_1  and  C_2
REMARK    2  A    between atoms: C_2  and  C_3
REMARK    3  A    between atoms: C_6  and  N_13
REMARK    4  A    between atoms: C_8  and  S_9
REMARK    5  A    between atoms: S_9  and  N_12
REMARK    6  A    between atoms: C_14  and  C_15
REMARK    7  A    between atoms: C_20  and  O_21
REMARK                            x       y       z     vdW  Elec       q    Type
REMARK                         _______ _______ _______ _____ _____    ______ ____
ROOT
ATOM      1  C   UNL     1      -1.412  -0.526   0.013  0.00  0.00    -0.021 A 
ATOM      2  C   UNL     1      -2.012  -0.863   1.213  0.00  0.00    +0.007 A 
ATOM      3  C   UNL     1      -3.306  -1.341   1.230  0.00  0.00    +0.028 A 
ATOM      4  C   UNL     1      -4.010  -1.484   0.033  0.00  0.00    +0.066 A 
ATOM      5  C   UNL     1      -3.398  -1.141  -1.175  0.00  0.00    +0.056 A 
ATOM      6  C   UNL     1      -2.105  -0.659  -1.177  0.00  0.00    +0.110 A 
ENDROOT
BRANCH   6   7
ATOM      7  S   UNL     1      -1.333  -0.220  -2.699  0.00  0.00    +0.056 S 
ATOM      8  O   UNL     1      -0.059  -0.849  -2.704  0.00  0.00    -0.153 OA
ATOM      9  O   UNL     1      -2.295  -0.441  -3.721  0.00  0.00    -0.153 OA
BRANCH   7  10
ATOM     10  N   UNL     1      -1.056   1.412  -2.654  0.00  0.00    -0.204 NA
ATOM     11  H   UNL     1      -0.301   1.789  -3.133  0.00  0.00    +0.144 HD
ATOM     12  H   UNL     1      -1.648   1.991  -2.149  0.00  0.00    +0.144 HD
ENDBRANCH   7  10
ENDBRANCH   6   7
BRANCH   1  14
ATOM     13  C   UNL     1      -0.019   1.526   0.010  0.00  0.00    +0.009 C 
ATOM     14  C   UNL     1       0.002  -0.004   0.002  0.00  0.00    +0.034 C 
ENDBRANCH   1  14
BRANCH   4  15
ATOM     15  N   UNL     1      -5.294  -1.958   0.042  0.00  0.00    -0.255 NA
ATOM     16  C   UNL     1      -5.600  -2.996   0.769  0.00  0.00    +0.123 C 
BRANCH  16  17
ATOM     17  C   UNL     1      -6.979  -3.506   0.779  0.00  0.00    +0.036 A 
ATOM     18  C   UNL     1      -7.313  -4.616   1.562  0.00  0.00    +0.028 A 
ATOM     19  C   UNL     1      -8.609  -5.088   1.567  0.00  0.00    +0.019 A 
ATOM     20  C   UNL     1      -9.582  -4.467   0.799  0.00  0.00    +0.019 A 
ATOM     21  C   UNL     1      -9.265  -3.370   0.021  0.00  0.00    +0.047 A 
ATOM     22  C   UNL     1      -7.969  -2.878   0.009  0.00  0.00    +0.125 A 
ATOM     23 BR   UNL     1      -9.060  -6.588   2.625  0.00  0.00    -0.050 Br
BRANCH  22  24
ATOM     24  O   UNL     1      -7.659  -1.796  -0.750  0.00  0.00    -0.506 OA
ATOM     25  H   UNL     1      -7.377  -2.015  -1.649  0.00  0.00    +0.292 HD
ENDBRANCH  22  24
ENDBRANCH  16  17
ENDBRANCH   4  15
TORSDOF 6
