REMARK  Name = ZINC16606676
REMARK  6 active torsions:
REMARK  status: ('A' for Active; 'I' for Inactive)
REMARK    1  A    between atoms: C_1  and  C_2
REMARK    2  A    between atoms: C_3  and  C_23
REMARK    3  A    between atoms: C_4  and  C_14
REMARK    4  A    between atoms: C_19  and  O_20
REMARK    5  A    between atoms: O_20  and  C_21
REMARK    6  A    between atoms: C_23  and  C_25
REMARK                            x       y       z     vdW  Elec       q    Type
REMARK                         _______ _______ _______ _____ _____    ______ ____
ROOT
ATOM      1  C   UNL     1      -0.018   1.503   0.010  0.00  0.00    +0.061 C 
ATOM      2  C   UNL     1       0.002  -0.004   0.002  0.00  0.00    +0.012 C 
ATOM      3  C   UNL     1      -1.160  -0.691   0.004  0.00  0.00    +0.023 C 
ATOM      4  C   UNL     1      -1.176  -2.191   0.004  0.00  0.00    +0.092 C 
ATOM      5  C   UNL     1       0.159  -2.747  -0.424  0.00  0.00    +0.024 C 
ATOM      6  C   UNL     1       1.265  -1.973  -0.412  0.00  0.00    +0.015 C 
ATOM      7  N   UNL     1       1.195  -0.666  -0.013  0.00  0.00    -0.321 N 
ATOM      8  C   UNL     1       2.602  -2.521  -0.845  0.00  0.00    +0.051 C 
ATOM      9  C   UNL     1       2.671  -4.016  -0.530  0.00  0.00    +0.014 C 
ATOM     10  C   UNL     1       1.519  -4.720  -1.255  0.00  0.00    +0.080 C 
ATOM     11  C   UNL     1       0.219  -4.091  -0.833  0.00  0.00    +0.162 C 
ATOM     12  O   UNL     1      -0.797  -4.757  -0.845  0.00  0.00    -0.292 OA
ATOM     13  H   UNL     1       2.002  -0.206   0.265  0.00  0.00    +0.152 HD
ENDROOT
BRANCH   4  14
ATOM     14  C   UNL     1      -1.492  -2.682   1.393  0.00  0.00    +0.007 A 
ATOM     15  C   UNL     1      -0.666  -2.348   2.450  0.00  0.00    +0.023 A 
ATOM     16  C   UNL     1      -0.956  -2.798   3.725  0.00  0.00    +0.018 A 
ATOM     17  C   UNL     1      -2.073  -3.584   3.946  0.00  0.00    +0.019 A 
ATOM     18  C   UNL     1      -2.902  -3.920   2.893  0.00  0.00    +0.047 A 
ATOM     19  C   UNL     1      -2.615  -3.465   1.614  0.00  0.00    +0.124 A 
ATOM     20 BR   UNL     1       0.176  -2.340   5.168  0.00  0.00    -0.050 Br
BRANCH  19  21
ATOM     21  O   UNL     1      -3.432  -3.791   0.577  0.00  0.00    -0.495 OA
ATOM     22  C   UNL     1      -4.571  -4.600   0.878  0.00  0.00    +0.277 C 
ENDBRANCH  19  21
ENDBRANCH   4  14
BRANCH   3  23
ATOM     23  C   UNL     1      -2.376   0.012   0.006  0.00  0.00    +0.159 C 
ATOM     24  O   UNL     1      -2.376   1.227   0.006  0.00  0.00    -0.293 OA
ATOM     25  C   UNL     1      -3.681  -0.741   0.008  0.00  0.00    +0.091 C 
ENDBRANCH   3  23
TORSDOF 3
