REMARK  Name = ZINC40578386
REMARK  4 active torsions:
REMARK  status: ('A' for Active; 'I' for Inactive)
REMARK    1  A    between atoms: C_1  and  C_2
REMARK    2  A    between atoms: C_2  and  C_4
REMARK    3  A    between atoms: C_2  and  N_7
REMARK    4  A    between atoms: C_14  and  C_16
REMARK                            x       y       z     vdW  Elec       q    Type
REMARK                         _______ _______ _______ _____ _____    ______ ____
ROOT
ATOM      1  N   UNL     1      -1.372  -0.511   0.012  0.00  0.00    -0.288 N 
ATOM      2  C   UNL     1      -2.051  -0.643  -1.145  0.00  0.00    +0.304 C 
ATOM      3  O   UNL     1      -1.522  -0.341  -2.197  0.00  0.00    -0.253 OA
ATOM      4  N   UNL     1      -3.315  -1.109  -1.135  0.00  0.00    -0.262 N 
ATOM      5  C   UNL     1      -3.997  -1.482   0.123  0.00  0.00    +0.179 C 
ATOM      6  S   UNL     1      -5.295  -2.639  -0.501  0.00  0.00    -0.139 S 
ATOM      7  C   UNL     1      -5.505  -1.841  -2.156  0.00  0.00    +0.105 C 
ATOM      8  C   UNL     1      -4.081  -1.266  -2.360  0.00  0.00    +0.201 C 
ATOM      9  H   UNL     1      -1.794  -0.752   0.852  0.00  0.00    +0.151 HD
ENDROOT
BRANCH   8  10
ATOM     10  C   UNL     1      -4.196   0.080  -3.028  0.00  0.00    +0.377 C 
ATOM     11  O   UNL     1      -4.639   0.162  -4.161  0.00  0.00    -0.244 OA
ATOM     12  O   UNL     1      -3.846   1.086  -2.436  0.00  0.00    -0.244 OA
ENDBRANCH   8  10
BRANCH   1  14
ATOM     13  C   UNL     1      -0.019   1.526   0.010  0.00  0.00    +0.038 C 
ATOM     14  C   UNL     1       0.002  -0.004   0.002  0.00  0.00    +0.157 C 
BRANCH  14  15
ATOM     15  C   UNL     1       0.731  -0.503   1.223  0.00  0.00    +0.231 C 
ATOM     16  O   UNL     1       0.159  -1.213   2.023  0.00  0.00    -0.274 OA
ATOM     17  N   UNL     1       2.019  -0.161   1.426  0.00  0.00    -0.328 N 
ATOM     18  H   UNL     1       2.476   0.406   0.786  0.00  0.00    +0.145 HD
ATOM     19  H   UNL     1       2.488  -0.483   2.212  0.00  0.00    +0.145 HD
ENDBRANCH  14  15
ENDBRANCH   1  14
TORSDOF 3
