REMARK  Name = ZINC03895825
REMARK  2 active torsions:
REMARK  status: ('A' for Active; 'I' for Inactive)
REMARK    1  A    between atoms: C_6  and  N_7
REMARK    2  A    between atoms: C_15  and  N_25
REMARK                            x       y       z     vdW  Elec       q    Type
REMARK                         _______ _______ _______ _____ _____    ______ ____
ROOT
ATOM      1  C   UNL     1       8.041   6.342   3.629  0.00  0.00    +0.026 A 
ATOM      2  C   UNL     1       6.799   6.837   3.277  0.00  0.00    +0.051 A 
ATOM      3  C   UNL     1       6.013   6.152   2.366  0.00  0.00    +0.162 A 
ATOM      4  C   UNL     1       6.472   4.965   1.804  0.00  0.00    +0.164 A 
ATOM      5  C   UNL     1       7.716   4.469   2.156  0.00  0.00    +0.072 A 
ATOM      6  C   UNL     1       8.502   5.158   3.070  0.00  0.00    +0.028 A 
ATOM      7  O   UNL     1       5.700   4.291   0.909  0.00  0.00    -0.485 OA
ATOM      8  C   UNL     1       5.537   2.888   1.122  0.00  0.00    +0.270 C 
ATOM      9  C   UNL     1       4.047   2.560   1.241  0.00  0.00    +0.270 C 
ATOM     10  O   UNL     1       3.558   2.103  -0.022  0.00  0.00    -0.485 OA
ATOM     11  C   UNL     1       2.387   1.409  -0.014  0.00  0.00    +0.162 A 
ATOM     12  C   UNL     1       2.402   0.024  -0.022  0.00  0.00    +0.051 A 
ATOM     13  C   UNL     1       1.214  -0.682  -0.014  0.00  0.00    +0.026 A 
ATOM     14  C   UNL     1       0.002  -0.004   0.002  0.00  0.00    +0.028 A 
ATOM     15  C   UNL     1      -0.017   1.384   0.010  0.00  0.00    +0.072 A 
ATOM     16  C   UNL     1       1.174   2.091   0.002  0.00  0.00    +0.164 A 
ATOM     17  O   UNL     1       1.159   3.452   0.010  0.00  0.00    -0.486 OA
ATOM     18  C   UNL     1       0.598   4.083   1.163  0.00  0.00    +0.257 C 
ATOM     19  C   UNL     1       0.856   5.590   1.097  0.00  0.00    +0.201 C 
ATOM     20  O   UNL     1       1.277   6.058   2.380  0.00  0.00    -0.373 OA
ATOM     21  C   UNL     1       2.412   6.926   2.337  0.00  0.00    +0.201 C 
ATOM     22  C   UNL     1       3.664   6.148   2.748  0.00  0.00    +0.257 C 
ATOM     23  O   UNL     1       4.791   6.641   2.019  0.00  0.00    -0.486 OA
ENDROOT
BRANCH   6  24
ATOM     24  N   UNL     1       9.760   4.659   3.428  0.00  0.00    -0.358 N 
ATOM     25  H   UNL     1      10.082   3.832   3.037  0.00  0.00    +0.142 HD
ATOM     26  H   UNL     1      10.309   5.141   4.066  0.00  0.00    +0.142 HD
ENDBRANCH   6  24
BRANCH  14  27
ATOM     27  N   UNL     1      -1.200  -0.720   0.010  0.00  0.00    -0.358 N 
ATOM     28  H   UNL     1      -2.046  -0.246   0.020  0.00  0.00    +0.142 HD
ATOM     29  H   UNL     1      -1.187  -1.690   0.004  0.00  0.00    +0.142 HD
ENDBRANCH  14  27
TORSDOF 2
