REMARK  Name = ZINC05603913
REMARK  5 active torsions:
REMARK  status: ('A' for Active; 'I' for Inactive)
REMARK    1  A    between atoms: C_4  and  N_7
REMARK    2  A    between atoms: C_12  and  C_20
REMARK    3  A    between atoms: C_14  and  C_18
REMARK    4  A    between atoms: C_15  and  N_17
REMARK    5  A    between atoms: C_27  and  C_29
REMARK                            x       y       z     vdW  Elec       q    Type
REMARK                         _______ _______ _______ _____ _____    ______ ____
ROOT
ATOM      1  N   UNL     1      -2.672   3.222   0.982  0.00  0.00    -0.185 N 
ATOM      2  C   UNL     1      -2.270   1.824   0.634  0.00  0.00    +0.294 C 
ATOM      3  C   UNL     1      -0.784   1.900   1.015  0.00  0.00    +0.118 C 
ATOM      4  C   UNL     1       0.096   0.921   0.295  0.00  0.00    +0.079 C 
ATOM      5  C   UNL     1      -0.337   0.700  -1.125  0.00  0.00    +0.094 C 
ATOM      6  C   UNL     1      -1.560   1.085  -1.551  0.00  0.00    +0.194 C 
ATOM      7  O   UNL     1      -2.429   1.742  -0.783  0.00  0.00    -0.455 OA
ATOM      8  C   UNL     1      -0.438   3.348   0.819  0.00  0.00    +0.148 C 
ATOM      9  N   UNL     1      -1.532   4.016   0.789  0.00  0.00    -0.176 NA
ENDROOT
BRANCH   4  10
ATOM     10  C   UNL     1       1.510   1.442   0.298  0.00  0.00    -0.038 A 
ATOM     11  C   UNL     1       2.077   1.906  -0.874  0.00  0.00    +0.007 A 
ATOM     12  C   UNL     1       3.372   2.389  -0.872  0.00  0.00    +0.038 A 
ATOM     13  C   UNL     1       4.105   2.397   0.303  0.00  0.00    +0.123 A 
ATOM     14  C   UNL     1       3.537   1.927   1.475  0.00  0.00    +0.038 A 
ATOM     15  C   UNL     1       2.240   1.450   1.471  0.00  0.00    +0.007 A 
ATOM     16  F   UNL     1       5.373   2.864   0.306  0.00  0.00    -0.205 F 
ENDBRANCH   4  10
BRANCH   1  20
ATOM     17  C   UNL     1      -6.421   4.500   2.265  0.00  0.00    +0.000 A 
ATOM     18  C   UNL     1      -5.392   5.413   2.124  0.00  0.00    +0.002 A 
ATOM     19  C   UNL     1      -4.148   4.992   1.699  0.00  0.00    +0.025 A 
ATOM     20  C   UNL     1      -3.929   3.650   1.413  0.00  0.00    +0.055 A 
ATOM     21  C   UNL     1      -4.967   2.736   1.551  0.00  0.00    +0.025 A 
ATOM     22  C   UNL     1      -6.208   3.163   1.981  0.00  0.00    +0.002 A 
ENDBRANCH   1  20
BRANCH   8  23
ATOM     23  C   UNL     1       0.950   3.917   0.680  0.00  0.00    +0.432 C 
ATOM     24  F   UNL     1       0.913   5.298   0.905  0.00  0.00    -0.165 F 
ATOM     25  F   UNL     1       1.797   3.315   1.617  0.00  0.00    -0.165 F 
ATOM     26  F   UNL     1       1.429   3.668  -0.610  0.00  0.00    -0.165 F 
ENDBRANCH   8  23
BRANCH   6  27
ATOM     27  N   UNL     1      -1.925   0.787  -2.840  0.00  0.00    -0.329 N 
ATOM     28  H   UNL     1      -1.311   0.310  -3.420  0.00  0.00    +0.145 HD
ATOM     29  H   UNL     1      -2.797   1.053  -3.171  0.00  0.00    +0.145 HD
ENDBRANCH   6  27
BRANCH   5  30
ATOM     30  C   UNL     1       0.561   0.068  -2.045  0.00  0.00    +0.100 C 
ATOM     31  N   UNL     1       1.274  -0.433  -2.774  0.00  0.00    -0.191 NA
ENDBRANCH   5  30
TORSDOF 5
