REMARK  Name = ZINC45147534
REMARK  4 active torsions:
REMARK  status: ('A' for Active; 'I' for Inactive)
REMARK    1  A    between atoms: C_3  and  N_17
REMARK    2  A    between atoms: C_4  and  S_8
REMARK    3  A    between atoms: S_8  and  N_11
REMARK    4  A    between atoms: N_11  and  C_12
REMARK                            x       y       z     vdW  Elec       q    Type
REMARK                         _______ _______ _______ _____ _____    ______ ____
ROOT
ATOM      1  C   UNL     1       0.011   1.405   0.161  0.00  0.00    +0.005 A 
ATOM      2  C   UNL     1       1.220   2.017   0.430  0.00  0.00    +0.025 A 
ATOM      3  C   UNL     1       2.405   1.313   0.263  0.00  0.00    +0.054 A 
ATOM      4  C   UNL     1       2.372  -0.005  -0.173  0.00  0.00    +0.166 A 
ATOM      5  C   UNL     1       1.159  -0.613  -0.440  0.00  0.00    +0.152 A 
ATOM      6  C   UNL     1      -0.021   0.093  -0.273  0.00  0.00    +0.040 A 
ATOM      7  F   UNL     1       1.125  -1.895  -0.865  0.00  0.00    -0.203 F 
ENDROOT
BRANCH   4   8
ATOM      8  S   UNL     1       3.874  -0.902  -0.386  0.00  0.00    +0.098 S 
ATOM      9  O   UNL     1       3.552  -2.058  -1.147  0.00  0.00    -0.148 OA
ATOM     10  O   UNL     1       4.853   0.039  -0.806  0.00  0.00    -0.148 OA
BRANCH   8  11
ATOM     11  N   UNL     1       4.342  -1.436   1.110  0.00  0.00    -0.068 NA
BRANCH  11  12
ATOM     12  C   UNL     1       5.505  -2.180   1.249  0.00  0.00    +0.223 A 
ATOM     13  N   UNL     1       6.383  -2.569   0.334  0.00  0.00    -0.123 NA
ATOM     14  N   UNL     1       7.400  -3.250   0.637  0.00  0.00    -0.148 NA
ATOM     15  C   UNL     1       7.655  -3.619   1.876  0.00  0.00    +0.183 A 
ATOM     16  S   UNL     1       6.254  -2.884   2.715  0.00  0.00    -0.036 S 
ENDBRANCH  11  12
ENDBRANCH   8  11
ENDBRANCH   4   8
BRANCH   3  17
ATOM     17  N   UNL     1       3.629   1.930   0.534  0.00  0.00    -0.356 N 
ATOM     18  H   UNL     1       3.668   2.889   0.676  0.00  0.00    +0.142 HD
ATOM     19  H   UNL     1       4.440   1.400   0.579  0.00  0.00    +0.142 HD
ENDBRANCH   3  17
TORSDOF 4
