REMARK  Name = ZINC37053349
REMARK  5 active torsions:
REMARK  status: ('A' for Active; 'I' for Inactive)
REMARK    1  A    between atoms: C_1  and  C_2
REMARK    2  A    between atoms: C_8  and  N_10
REMARK    3  A    between atoms: N_10  and  S_11
REMARK    4  A    between atoms: S_11  and  C_14
REMARK    5  A    between atoms: C_15  and  N_22
REMARK                            x       y       z     vdW  Elec       q    Type
REMARK                         _______ _______ _______ _____ _____    ______ ____
ROOT
ATOM      1  S   UNL     1       3.254   0.728   3.343  0.00  0.00    +0.062 S 
ATOM      2  O   UNL     1       4.623   1.106   3.294  0.00  0.00    -0.153 OA
ATOM      3  O   UNL     1       2.297   1.431   4.123  0.00  0.00    -0.153 OA
ENDROOT
BRANCH   1   4
ATOM      4  C   UNL     1       3.212  -0.948   3.885  0.00  0.00    +0.144 A 
ATOM      5  C   UNL     1       2.085  -1.442   4.529  0.00  0.00    +0.054 A 
ATOM      6  C   UNL     1       2.056  -2.764   4.955  0.00  0.00    +0.044 A 
ATOM      7  C   UNL     1       3.148  -3.583   4.737  0.00  0.00    +0.044 A 
ATOM      8  C   UNL     1       4.269  -3.088   4.095  0.00  0.00    +0.042 A 
ATOM      9  C   UNL     1       4.299  -1.773   3.665  0.00  0.00    +0.070 A 
ATOM     10 CL   UNL     1       5.705  -1.158   2.854  0.00  0.00    -0.081 Cl
ATOM     11 CL   UNL     1       3.112  -5.235   5.269  0.00  0.00    -0.083 Cl
BRANCH   5  12
ATOM     12  N   UNL     1       0.984  -0.612   4.748  0.00  0.00    -0.356 N 
ATOM     13  H   UNL     1       0.847   0.169   4.190  0.00  0.00    +0.142 HD
ATOM     14  H   UNL     1       0.356  -0.817   5.459  0.00  0.00    +0.142 HD
ENDBRANCH   5  12
ENDBRANCH   1   4
BRANCH   1  15
ATOM     15  N   UNL     1       2.700   0.752   1.782  0.00  0.00    -0.187 NA
ATOM     16  H   UNL     1       3.295   1.011   1.060  0.00  0.00    +0.148 HD
BRANCH  15  23
ATOM     17  C   UNL     1       0.852   2.712   0.719  0.00  0.00    +0.009 C 
ATOM     18  C   UNL     1       0.790   1.233   0.333  0.00  0.00    +0.005 C 
ATOM     19  C   UNL     1      -0.659   0.846   0.029  0.00  0.00    +0.005 C 
ATOM     20  C   UNL     1      -0.721  -0.633  -0.357  0.00  0.00    +0.000 C 
ATOM     21  C   UNL     1      -0.198  -1.485   0.801  0.00  0.00    +0.002 C 
ATOM     22  C   UNL     1       1.251  -1.098   1.105  0.00  0.00    +0.020 C 
ATOM     23  C   UNL     1       1.313   0.381   1.491  0.00  0.00    +0.079 C 
ENDBRANCH  15  23
ENDBRANCH   1  15
TORSDOF 4
