REMARK  Name = ZINC00607986
REMARK  8 active torsions:
REMARK  status: ('A' for Active; 'I' for Inactive)
REMARK    1  A    between atoms: C_10  and  C_13
REMARK    2  A    between atoms: C_13  and  C_15
REMARK    3  A    between atoms: C_13  and  O_33
REMARK    4  A    between atoms: C_15  and  N_16
REMARK    5  A    between atoms: N_16  and  C_17
REMARK    6  A    between atoms: C_17  and  C_18
REMARK    7  A    between atoms: C_18  and  C_20
REMARK    8  A    between atoms: C_18  and  O_32
REMARK                            x       y       z     vdW  Elec       q    Type
REMARK                         _______ _______ _______ _____ _____    ______ ____
ROOT
ATOM      1  N   UNL     1       6.966   4.550  -0.557  0.00  0.00    +0.383 N 
ATOM      2  H   UNL     1       7.112   4.687   0.432  0.00  0.00    -0.086 HD
ATOM      3  H   UNL     1       7.765   4.077  -0.952  0.00  0.00    -0.086 HD
ENDROOT
BRANCH   1   4
ATOM      4  C   UNL     1       5.762   3.736  -0.767  0.00  0.00    -0.047 C 
BRANCH   4   5
ATOM      5  C   UNL     1       5.939   2.378  -0.084  0.00  0.00    +0.138 C 
BRANCH   5  15
ATOM      6  C   UNL     1      -0.017   1.380   0.010  0.00  0.00    +0.042 A 
ATOM      7  C   UNL     1       1.170   2.085   0.002  0.00  0.00    +0.049 A 
ATOM      8  C   UNL     1       2.386   1.410  -0.014  0.00  0.00    +0.124 A 
ATOM      9  C   UNL     1       2.402   0.026  -0.025  0.00  0.00    -0.003 A 
ATOM     10  C   UNL     1       1.210  -0.678  -0.015  0.00  0.00    +0.045 A 
ATOM     11  C   UNL     1       0.002  -0.004   0.002  0.00  0.00    +0.124 A 
ATOM     12  F   UNL     1      -1.158  -0.696   0.012  0.00  0.00    -0.205 F 
ATOM     13  C   UNL     1       3.699  -0.744  -0.055  0.00  0.00    +0.042 C 
ATOM     14  C   UNL     1       4.850   0.169   0.374  0.00  0.00    +0.052 C 
ATOM     15  C   UNL     1       4.740   1.484  -0.407  0.00  0.00    +0.200 C 
ATOM     16  O   UNL     1       3.532   2.140  -0.016  0.00  0.00    -0.486 OA
ENDBRANCH   5  15
BRANCH   5  17
ATOM     17  O   UNL     1       6.028   2.563   1.330  0.00  0.00    -0.390 OA
ATOM     18  H   UNL     1       5.249   2.980   1.722  0.00  0.00    +0.210 HD
ENDBRANCH   5  17
ENDBRANCH   4   5
ENDBRANCH   1   4
BRANCH   1  19
ATOM     19  C   UNL     1       6.796   5.854  -1.212  0.00  0.00    -0.047 C 
BRANCH  19  20
ATOM     20  C   UNL     1       8.051   6.702  -0.994  0.00  0.00    +0.138 C 
BRANCH  20  21
ATOM     21  C   UNL     1       7.873   8.060  -1.676  0.00  0.00    +0.200 C 
ATOM     22  C   UNL     1       9.134   8.910  -1.471  0.00  0.00    +0.052 C 
ATOM     23  C   UNL     1       8.881  10.296  -2.068  0.00  0.00    +0.042 C 
ATOM     24  C   UNL     1       8.304  10.155  -3.453  0.00  0.00    -0.003 A 
ATOM     25  C   UNL     1       8.349  11.244  -4.308  0.00  0.00    +0.045 A 
ATOM     26  C   UNL     1       7.825  11.152  -5.584  0.00  0.00    +0.124 A 
ATOM     27  C   UNL     1       7.253   9.966  -6.012  0.00  0.00    +0.042 A 
ATOM     28  C   UNL     1       7.207   8.878  -5.164  0.00  0.00    +0.049 A 
ATOM     29  C   UNL     1       7.735   8.968  -3.880  0.00  0.00    +0.124 A 
ATOM     30  O   UNL     1       7.679   7.872  -3.078  0.00  0.00    -0.486 OA
ATOM     31  F   UNL     1       7.872  12.217  -6.413  0.00  0.00    -0.205 F 
ENDBRANCH  20  21
BRANCH  20  32
ATOM     32  O   UNL     1       8.256   6.896   0.407  0.00  0.00    -0.390 OA
ATOM     33  H   UNL     1       7.526   7.346   0.853  0.00  0.00    +0.210 HD
ENDBRANCH  20  32
ENDBRANCH  19  20
ENDBRANCH   1  19
TORSDOF 8
