REMARK  Name = ZINC13985314
REMARK  9 active torsions:
REMARK  status: ('A' for Active; 'I' for Inactive)
REMARK    1  A    between atoms: C_1  and  C_2
REMARK    2  A    between atoms: C_6  and  C_26
REMARK    3  A    between atoms: C_7  and  O_8
REMARK    4  A    between atoms: O_8  and  C_9
REMARK    5  A    between atoms: C_9  and  C_10
REMARK    6  A    between atoms: N_12  and  N_13
REMARK    7  A    between atoms: C_14  and  C_16
REMARK    8  A    between atoms: C_16  and  N_17
REMARK    9  A    between atoms: C_18  and  C_20
REMARK                            x       y       z     vdW  Elec       q    Type
REMARK                         _______ _______ _______ _____ _____    ______ ____
ROOT
ATOM      1  C   UNL     1       0.002  -0.004   0.002  0.00  0.00    +0.267 C 
ATOM      2  O   UNL     1      -0.506  -0.622   0.913  0.00  0.00    -0.271 OA
ATOM      3  N   UNL     1       0.585  -0.664  -1.018  0.00  0.00    -0.232 N 
ATOM      4  H   UNL     1       0.992  -0.170  -1.747  0.00  0.00    +0.173 HD
ENDROOT
BRANCH   3   5
ATOM      5  N   UNL     1       0.604  -2.065  -1.026  0.00  0.00    -0.233 N 
ATOM      6  C   UNL     1       1.187  -2.726  -2.046  0.00  0.00    +0.246 C 
ATOM      7  O   UNL     1       1.695  -2.107  -2.957  0.00  0.00    -0.273 OA
ATOM      8  H   UNL     1       0.198  -2.560  -0.297  0.00  0.00    +0.173 HD
BRANCH   6   9
ATOM      9  C   UNL     1       1.208  -4.233  -2.054  0.00  0.00    +0.201 C 
BRANCH   9  10
ATOM     10  N   UNL     1       1.893  -4.705  -3.259  0.00  0.00    -0.306 N 
ATOM     11  C   UNL     1       2.032  -6.027  -3.481  0.00  0.00    +0.217 C 
ATOM     12  O   UNL     1       1.590  -6.826  -2.683  0.00  0.00    -0.276 OA
ATOM     13  H   UNL     1       2.247  -4.066  -3.898  0.00  0.00    +0.149 HD
BRANCH  11  14
ATOM     14  C   UNL     1       2.738  -6.513  -4.721  0.00  0.00    +0.075 C 
ATOM     15  C   UNL     1       1.998  -6.006  -5.960  0.00  0.00    +0.013 C 
ATOM     16  C   UNL     1       2.714  -6.500  -7.219  0.00  0.00    +0.001 C 
ATOM     17  C   UNL     1       2.735  -8.030  -7.228  0.00  0.00    +0.000 C 
ATOM     18  C   UNL     1       3.474  -8.537  -5.988  0.00  0.00    +0.001 C 
ATOM     19  C   UNL     1       2.758  -8.043  -4.729  0.00  0.00    +0.013 C 
ENDBRANCH  11  14
ENDBRANCH   9  10
ENDBRANCH   6   9
ENDBRANCH   3   5
BRANCH   1  20
ATOM     20  C   UNL     1      -0.018   1.503   0.010  0.00  0.00    +0.326 C 
BRANCH  20  21
ATOM     21  O   UNL     1      -0.687   1.964   1.186  0.00  0.00    -0.482 OA
BRANCH  21  28
ATOM     22  C   UNL     1       1.388   3.273   2.585  0.00  0.00    +0.047 C 
ATOM     23  C   UNL     1       0.196   4.006   2.027  0.00  0.00    -0.007 A 
ATOM     24  C   UNL     1       0.089   5.375   2.186  0.00  0.00    +0.022 A 
ATOM     25  C   UNL     1      -1.009   6.047   1.679  0.00  0.00    +0.019 A 
ATOM     26  C   UNL     1      -1.998   5.353   1.007  0.00  0.00    +0.022 A 
ATOM     27  C   UNL     1      -1.893   3.985   0.841  0.00  0.00    -0.007 A 
ATOM     28  C   UNL     1      -0.793   3.309   1.349  0.00  0.00    +0.127 A 
ATOM     29  C   UNL     1      -2.971   3.229   0.108  0.00  0.00    +0.047 C 
ATOM     30 BR   UNL     1      -1.156   7.919   1.905  0.00  0.00    -0.050 Br
ENDBRANCH  21  28
ENDBRANCH  20  21
ENDBRANCH   1  20
TORSDOF 7
