REMARK  Name = ZINC63469956
REMARK  6 active torsions:
REMARK  status: ('A' for Active; 'I' for Inactive)
REMARK    1  A    between atoms: C_3  and  N_16
REMARK    2  A    between atoms: C_6  and  C_7
REMARK    3  A    between atoms: N_9  and  C_10
REMARK    4  A    between atoms: N_16  and  C_17
REMARK    5  A    between atoms: C_17  and  C_18
REMARK    6  A    between atoms: N_23  and  C_24
REMARK                            x       y       z     vdW  Elec       q    Type
REMARK                         _______ _______ _______ _____ _____    ______ ____
ROOT
ATOM      1  C   UNL     1      -0.017   1.394   0.010  0.00  0.00    +0.015 A 
ATOM      2  C   UNL     1       1.166   2.096   0.002  0.00  0.00    +0.023 A 
ATOM      3  C   UNL     1       2.381   1.417  -0.013  0.00  0.00    +0.028 A 
ATOM      4  C   UNL     1       2.403   0.025  -0.021  0.00  0.00    +0.023 A 
ATOM      5  C   UNL     1       1.224  -0.684  -0.014  0.00  0.00    +0.015 A 
ATOM      6  C   UNL     1       0.002  -0.004   0.002  0.00  0.00    +0.037 A 
ENDROOT
BRANCH   6   7
ATOM      7  C   UNL     1      -1.264  -0.760   0.011  0.00  0.00    +0.244 C 
ATOM      8  O   UNL     1      -2.326  -0.168   0.024  0.00  0.00    -0.270 OA
ATOM      9  N   UNL     1      -1.244  -2.108   0.003  0.00  0.00    -0.308 N 
ATOM     10  H   UNL     1      -0.397  -2.581  -0.008  0.00  0.00    +0.149 HD
BRANCH   9  11
ATOM     11  C   UNL     1      -2.502  -2.859   0.012  0.00  0.00    +0.073 C 
ATOM     12  C   UNL     1      -2.990  -3.021   1.453  0.00  0.00    +0.022 C 
ATOM     13  C   UNL     1      -4.304  -3.805   1.462  0.00  0.00    +0.002 C 
ATOM     14  C   UNL     1      -4.077  -5.186   0.842  0.00  0.00    +0.000 C 
ATOM     15  C   UNL     1      -3.589  -5.024  -0.599  0.00  0.00    +0.002 C 
ATOM     16  C   UNL     1      -2.276  -4.240  -0.608  0.00  0.00    +0.022 C 
ENDBRANCH   9  11
ENDBRANCH   6   7
BRANCH   3  17
ATOM     17  N   UNL     1       3.575   2.130  -0.021  0.00  0.00    -0.335 N 
ATOM     18  H   UNL     1       3.561   3.100  -0.016  0.00  0.00    +0.147 HD
BRANCH  17  19
ATOM     19  C   UNL     1       4.854   1.416  -0.037  0.00  0.00    +0.198 C 
BRANCH  19  20
ATOM     20  C   UNL     1       5.985   2.412  -0.043  0.00  0.00    +0.237 C 
ATOM     21  O   UNL     1       5.746   3.601  -0.035  0.00  0.00    -0.274 OA
ATOM     22  N   UNL     1       7.262   1.982  -0.058  0.00  0.00    -0.239 N 
ATOM     23  C   UNL     1       8.274   2.873  -0.063  0.00  0.00    +0.306 C 
ATOM     24  O   UNL     1       8.034   4.064  -0.055  0.00  0.00    -0.252 OA
ATOM     25  N   UNL     1       9.551   2.442  -0.078  0.00  0.00    -0.296 N 
ATOM     26  H   UNL     1       7.454   1.031  -0.064  0.00  0.00    +0.159 HD
ATOM     27  H   UNL     1       9.742   1.492  -0.084  0.00  0.00    +0.151 HD
BRANCH  25  28
ATOM     28  C   UNL     1      10.650   3.411  -0.084  0.00  0.00    +0.074 C 
ATOM     29  C   UNL     1      10.996   3.809  -1.533  0.00  0.00    +0.022 C 
ATOM     30  C   UNL     1      12.538   3.957  -1.528  0.00  0.00    +0.002 C 
ATOM     31  C   UNL     1      12.989   2.805  -0.597  0.00  0.00    +0.002 C 
ATOM     32  C   UNL     1      11.917   2.773   0.512  0.00  0.00    +0.022 C 
ENDBRANCH  25  28
ENDBRANCH  19  20
ENDBRANCH  17  19
ENDBRANCH   3  17
TORSDOF 6
