REMARK  Name = ZINC36599385
REMARK  13 active torsions:
REMARK  status: ('A' for Active; 'I' for Inactive)
REMARK    1  A    between atoms: C_1  and  C_2
REMARK    2  A    between atoms: C_5  and  C_7
REMARK    3  A    between atoms: C_7  and  N_8
REMARK    4  A    between atoms: N_8  and  C_9
REMARK    5  A    between atoms: C_9  and  C_11
REMARK    6  A    between atoms: C_9  and  C_20
REMARK    7  A    between atoms: C_12  and  O_19
REMARK    8  A    between atoms: C_14  and  O_18
REMARK    9  A    between atoms: C_16  and  O_17
REMARK   10  A    between atoms: N_22  and  C_23
REMARK   11  A    between atoms: C_29  and  C_31
REMARK   12  A    between atoms: C_32  and  C_33
REMARK   13  A    between atoms: C_32  and  C_34
REMARK                            x       y       z     vdW  Elec       q    Type
REMARK                         _______ _______ _______ _____ _____    ______ ____
ROOT
ATOM      1  C   UNL     1       2.909  -2.789  -3.306  0.00  0.00    +0.200 C 
ENDROOT
BRANCH   1   2
ATOM      2  C   UNL     1       1.551  -2.872  -3.955  0.00  0.00    +0.065 A 
ATOM      3  C   UNL     1       0.837  -1.712  -4.217  0.00  0.00    +0.129 A 
ATOM      4  C   UNL     1      -0.413  -1.788  -4.814  0.00  0.00    +0.091 A 
ATOM      5  C   UNL     1      -0.947  -3.023  -5.151  0.00  0.00    +0.124 A 
ATOM      6  C   UNL     1      -0.232  -4.182  -4.890  0.00  0.00    +0.091 A 
ATOM      7  C   UNL     1       1.019  -4.106  -4.296  0.00  0.00    +0.129 A 
BRANCH   7   8
ATOM      8  O   UNL     1       1.722  -5.242  -4.045  0.00  0.00    -0.506 OA
ATOM      9  H   UNL     1       1.548  -5.628  -3.175  0.00  0.00    +0.292 HD
ENDBRANCH   7   8
BRANCH   5  10
ATOM     10  O   UNL     1      -2.171  -3.097  -5.735  0.00  0.00    -0.507 OA
ATOM     11  H   UNL     1      -2.148  -3.065  -6.701  0.00  0.00    +0.292 HD
ENDBRANCH   5  10
BRANCH   3  12
ATOM     12  O   UNL     1       1.360  -0.502  -3.888  0.00  0.00    -0.506 OA
ATOM     13  H   UNL     1       1.824  -0.064  -4.614  0.00  0.00    +0.292 HD
ENDBRANCH   3  12
ENDBRANCH   1   2
BRANCH   1  14
ATOM     14  C   UNL     1       3.968  -3.174  -4.307  0.00  0.00    +0.239 C 
ATOM     15  O   UNL     1       4.494  -4.265  -4.245  0.00  0.00    -0.273 OA
ATOM     16  N   UNL     1       4.332  -2.304  -5.270  0.00  0.00    -0.311 N 
ATOM     17  H   UNL     1       3.911  -1.431  -5.320  0.00  0.00    +0.149 HD
BRANCH  16  18
ATOM     18  C   UNL     1       5.362  -2.677  -6.243  0.00  0.00    +0.073 C 
ATOM     19  C   UNL     1       6.745  -2.382  -5.660  0.00  0.00    +0.022 C 
ATOM     20  C   UNL     1       7.821  -2.772  -6.676  0.00  0.00    +0.002 C 
ATOM     21  C   UNL     1       7.626  -1.964  -7.960  0.00  0.00    +0.000 C 
ATOM     22  C   UNL     1       6.242  -2.259  -8.543  0.00  0.00    +0.002 C 
ATOM     23  C   UNL     1       5.167  -1.869  -7.527  0.00  0.00    +0.022 C 
ENDBRANCH  16  18
ENDBRANCH   1  14
BRANCH   1  24
ATOM     24  N   UNL     1       2.960  -3.706  -2.164  0.00  0.00    -0.275 N 
ATOM     25  C   UNL     1       2.467  -3.323  -0.970  0.00  0.00    +0.241 C 
ATOM     26  O   UNL     1       1.878  -2.264  -0.867  0.00  0.00    -0.271 OA
BRANCH  25  27
ATOM     27  C   UNL     1       2.640  -4.186   0.208  0.00  0.00    +0.066 C 
ATOM     28  C   UNL     1       2.259  -3.758   1.408  0.00  0.00    -0.071 C 
ATOM     29  C   UNL     1       1.887  -2.312   1.609  0.00  0.00    +0.039 C 
ATOM     30  C   UNL     1       2.199  -4.719   2.567  0.00  0.00    +0.039 C 
ENDBRANCH  25  27
BRANCH  24  31
ATOM     31  C   UNL     1       3.548  -5.039  -2.321  0.00  0.00    +0.183 C 
BRANCH  31  36
ATOM     32  C   UNL     1       8.554  -4.537  -2.687  0.00  0.00    +0.086 C 
ATOM     33  C   UNL     1       7.184  -4.773  -2.105  0.00  0.00    +0.102 A 
ATOM     34  C   UNL     1       6.914  -5.061  -0.819  0.00  0.00    +0.045 A 
ATOM     35  C   UNL     1       5.511  -5.202  -0.717  0.00  0.00    +0.046 A 
ATOM     36  C   UNL     1       5.007  -4.991  -1.946  0.00  0.00    +0.122 A 
ATOM     37  O   UNL     1       6.025  -4.727  -2.782  0.00  0.00    -0.463 OA
ENDBRANCH  31  36
ENDBRANCH  24  31
ENDBRANCH   1  24
TORSDOF 10
