REMARK  Name = ZINC06196940
REMARK  9 active torsions:
REMARK  status: ('A' for Active; 'I' for Inactive)
REMARK    1  A    between atoms: C_1  and  C_2
REMARK    2  A    between atoms: C_2  and  O_3
REMARK    3  A    between atoms: O_3  and  C_4
REMARK    4  A    between atoms: C_11  and  C_16
REMARK    5  A    between atoms: C_16  and  C_18
REMARK    6  A    between atoms: C_16  and  N_77
REMARK    7  A    between atoms: N_22  and  C_23
REMARK    8  A    between atoms: C_31  and  C_34
REMARK    9  A    between atoms: C_34  and  C_35
REMARK                            x       y       z     vdW  Elec       q    Type
REMARK                         _______ _______ _______ _____ _____    ______ ____
ROOT
ATOM      1  C   UNL     1       4.958   1.184  -0.038  0.00  0.00    +0.039 C 
ENDROOT
BRANCH   1   9
ATOM      2  C   UNL     1      -1.215   1.754   0.017  0.00  0.00    +0.121 A 
ATOM      3  C   UNL     1      -1.236   3.147   0.031  0.00  0.00    +0.047 A 
ATOM      4  C   UNL     1      -0.062   3.867   0.024  0.00  0.00    +0.030 A 
ATOM      5  C   UNL     1       1.160   3.203   0.008  0.00  0.00    +0.049 A 
ATOM      6  C   UNL     1       1.187   1.796   0.000  0.00  0.00    +0.002 A 
ATOM      7  C   UNL     1      -0.013   1.076   0.008  0.00  0.00    +0.055 A 
ATOM      8  C   UNL     1       2.480   1.110  -0.015  0.00  0.00    +0.017 A 
ATOM      9  C   UNL     1       3.611   1.859  -0.021  0.00  0.00    +0.011 A 
ATOM     10  C   UNL     1       3.530   3.268  -0.013  0.00  0.00    +0.251 A 
ATOM     11  O   UNL     1       4.559   3.922  -0.019  0.00  0.00    -0.268 OA
ATOM     12  N   UNL     1       2.347   3.907   0.002  0.00  0.00    -0.322 N 
ATOM     13  H   UNL     1       2.328   4.907   0.008  0.00  0.00    +0.169 HD
BRANCH   2  14
ATOM     14  O   UNL     1      -2.383   1.060   0.019  0.00  0.00    -0.492 OA
BRANCH  14  16
ATOM     15  C   UNL     1      -4.793   0.875   0.028  0.00  0.00    +0.048 C 
ATOM     16  C   UNL     1      -3.591   1.823   0.028  0.00  0.00    +0.225 C 
ENDBRANCH  14  16
ENDBRANCH   2  14
ENDBRANCH   1   9
BRANCH   1  22
ATOM     17  C   UNL     1       5.014   1.492  -2.439  0.00  0.00    -0.077 C 
ATOM     18  C   UNL     1       5.791   2.150  -3.581  0.00  0.00    -0.015 C 
ATOM     19  C   UNL     1       7.184   1.520  -3.673  0.00  0.00    -0.010 C 
ATOM     20  C   UNL     1       7.901   1.689  -2.332  0.00  0.00    -0.015 C 
ATOM     21  C   UNL     1       7.063   1.044  -1.225  0.00  0.00    -0.077 C 
ATOM     22  N   UNL     1       5.744   1.711  -1.173  0.00  0.00    +0.389 N 
ATOM     23  H   UNL     1       5.886   2.719  -1.040  0.00  0.00    -0.080 HD
BRANCH  19  24
ATOM     24  C   UNL     1       7.988   2.214  -4.774  0.00  0.00    +0.038 C 
BRANCH  24  25
ATOM     25  C   UNL     1       7.347   1.944  -6.111  0.00  0.00    -0.047 A 
ATOM     26  C   UNL     1       7.731   0.842  -6.852  0.00  0.00    +0.003 A 
ATOM     27  C   UNL     1       7.140   0.591  -8.076  0.00  0.00    +0.000 A 
ATOM     28  C   UNL     1       6.171   1.448  -8.564  0.00  0.00    +0.000 A 
ATOM     29  C   UNL     1       5.790   2.552  -7.825  0.00  0.00    +0.000 A 
ATOM     30  C   UNL     1       6.378   2.800  -6.599  0.00  0.00    +0.003 A 
ENDBRANCH  24  25
ENDBRANCH  19  24
ENDBRANCH   1  22
BRANCH   1  31
ATOM     31  C   UNL     1       5.688   1.488   1.245  0.00  0.00    +0.143 A 
ATOM     32  N   UNL     1       6.269   2.619   1.565  0.00  0.00    -0.115 NA
ATOM     33  N   UNL     1       6.779   2.485   2.740  0.00  0.00    -0.023 NA
ATOM     34  N   UNL     1       6.546   1.296   3.175  0.00  0.00    -0.044 NA
ATOM     35  N   UNL     1       5.875   0.651   2.281  0.00  0.00    -0.227 N 
BRANCH  35  36
ATOM     36  C   UNL     1       5.406  -0.734   2.377  0.00  0.00    +0.111 C 
ATOM     37  C   UNL     1       4.471  -0.873   3.580  0.00  0.00    +0.027 C 
ATOM     38  C   UNL     1       3.980  -2.319   3.680  0.00  0.00    +0.002 C 
ATOM     39  C   UNL     1       5.179  -3.253   3.854  0.00  0.00    +0.000 C 
ATOM     40  C   UNL     1       6.114  -3.114   2.651  0.00  0.00    +0.002 C 
ATOM     41  C   UNL     1       6.604  -1.668   2.551  0.00  0.00    +0.027 C 
ENDBRANCH  35  36
ENDBRANCH   1  31
TORSDOF 8
