REMARK  Name = ZINC19852285
REMARK  11 active torsions:
REMARK  status: ('A' for Active; 'I' for Inactive)
REMARK    1  A    between atoms: C_1  and  C_2
REMARK    2  A    between atoms: C_2  and  C_3
REMARK    3  A    between atoms: C_2  and  C_4
REMARK    4  A    between atoms: C_2  and  N_5
REMARK    5  A    between atoms: C_6  and  C_8
REMARK    6  A    between atoms: C_8  and  S_9
REMARK    7  A    between atoms: S_9  and  C_10
REMARK    8  A    between atoms: C_11  and  C_24
REMARK    9  A    between atoms: C_12  and  C_19
REMARK   10  A    between atoms: C_13  and  C_17
REMARK   11  A    between atoms: C_14  and  N_16
REMARK                            x       y       z     vdW  Elec       q    Type
REMARK                         _______ _______ _______ _____ _____    ______ ____
ROOT
ATOM      1  C   UNL     1      -2.334   6.859  -0.989  0.00  0.00    +0.118 A 
ATOM      2  C   UNL     1      -1.829   5.548  -1.048  0.00  0.00    +0.093 A 
ATOM      3  C   UNL     1      -1.071   5.058   0.040  0.00  0.00    +0.029 A 
ATOM      4  C   UNL     1      -0.864   5.917   1.143  0.00  0.00    +0.101 A 
ATOM      5  C   UNL     1      -1.405   7.214   1.106  0.00  0.00    +0.136 A 
ATOM      6  N   UNL     1      -2.109   7.630   0.065  0.00  0.00    -0.224 NA
ENDROOT
BRANCH   3   7
ATOM      7  C   UNL     1      -0.522   3.695   0.027  0.00  0.00    +0.022 A 
ATOM      8  C   UNL     1       0.801   3.288   0.012  0.00  0.00    +0.016 A 
ATOM      9  C   UNL     1       1.039   1.933   0.003  0.00  0.00    +0.008 A 
ATOM     10  C   UNL     1      -0.013   1.076   0.008  0.00  0.00    +0.046 A 
ATOM     11  S   UNL     1      -1.386   2.134   0.019  0.00  0.00    -0.097 S 
ENDBRANCH   3   7
BRANCH   5  12
ATOM     12  N   UNL     1      -1.205   8.065   2.175  0.00  0.00    -0.342 N 
ATOM     13  H   UNL     1      -1.625   9.082   2.155  0.00  0.00    +0.144 HD
ATOM     14  H   UNL     1      -0.625   7.726   3.046  0.00  0.00    +0.144 HD
ENDBRANCH   5  12
BRANCH   4  15
ATOM     15  C   UNL     1      -0.109   5.475   2.276  0.00  0.00    +0.103 C 
ATOM     16  N   UNL     1       0.490   5.125   3.176  0.00  0.00    -0.191 NA
ENDBRANCH   4  15
BRANCH   2  17
ATOM     17  C   UNL     1      -2.078   4.722  -2.191  0.00  0.00    +0.102 C 
ATOM     18  N   UNL     1      -2.276   4.067  -3.098  0.00  0.00    -0.191 NA
ENDBRANCH   2  17
BRANCH   1  19
ATOM     19  S   UNL     1      -3.281   7.487  -2.337  0.00  0.00    -0.095 S 
BRANCH  19  20
ATOM     20  C   UNL     1      -3.643   9.149  -1.719  0.00  0.00    +0.171 C 
BRANCH  20  22
ATOM     21  N   UNL     1      -4.860  11.160  -2.490  0.00  0.00    -0.310 N 
ATOM     22  C   UNL     1      -4.469   9.894  -2.736  0.00  0.00    +0.224 C 
ATOM     23  O   UNL     1      -4.782   9.354  -3.776  0.00  0.00    -0.275 OA
ATOM     24  H   UNL     1      -4.577  11.649  -1.547  0.00  0.00    +0.149 HD
BRANCH  21  26
ATOM     25  C   UNL     1      -6.973  11.132  -3.721  0.00  0.00    +0.031 C 
ATOM     26  C   UNL     1      -5.663  11.884  -3.479  0.00  0.00    +0.026 C 
ATOM     27  C   UNL     1      -5.969  13.289  -2.958  0.00  0.00    +0.031 C 
ATOM     28  C   UNL     1      -4.884  11.986  -4.792  0.00  0.00    +0.031 C 
ENDBRANCH  21  26
ENDBRANCH  20  22
ENDBRANCH  19  20
ENDBRANCH   1  19
TORSDOF 8
