REMARK  Name = ZINC03869823
REMARK  4 active torsions:
REMARK  status: ('A' for Active; 'I' for Inactive)
REMARK    1  A    between atoms: C_2  and  O_14
REMARK    2  A    between atoms: C_4  and  O_13
REMARK    3  A    between atoms: C_9  and  C_10
REMARK    4  A    between atoms: C_9  and  O_12
REMARK                            x       y       z     vdW  Elec       q    Type
REMARK                         _______ _______ _______ _____ _____    ______ ____
ROOT
ATOM      1  C   UNL     1      -1.056  -2.163   0.608  0.00  0.00    +0.081 C 
ATOM      2  C   UNL     1      -2.382  -2.920   0.703  0.00  0.00    +0.154 C 
ATOM      3  C   UNL     1      -2.940  -3.146  -0.706  0.00  0.00    +0.209 C 
ATOM      4  C   UNL     1      -3.034  -1.809  -1.407  0.00  0.00    +0.167 C 
ATOM      5  O   UNL     1      -4.061  -1.459  -1.938  0.00  0.00    -0.294 OA
ATOM      6  C   UNL     1      -1.810  -0.921  -1.425  0.00  0.00    +0.123 C 
ATOM      7  C   UNL     1      -1.293  -0.775   0.010  0.00  0.00    +0.175 C 
ENDROOT
BRANCH   7   8
ATOM      8  C   UNL     1       0.002  -0.004   0.002  0.00  0.00    +0.387 C 
ATOM      9  O   UNL     1       1.056  -0.594  -0.011  0.00  0.00    -0.243 OA
ATOM     10  O   UNL     1      -0.016   1.338   0.009  0.00  0.00    -0.243 OA
ENDBRANCH   7   8
BRANCH   7  11
ATOM     11  O   UNL     1      -2.259  -0.075   0.796  0.00  0.00    -0.377 OA
ATOM     12  H   UNL     1      -2.459   0.814   0.474  0.00  0.00    +0.211 HD
ENDBRANCH   7  11
BRANCH   3  13
ATOM     13  O   UNL     1      -2.066  -4.010  -1.436  0.00  0.00    -0.382 OA
ATOM     14  H   UNL     1      -2.352  -4.184  -2.343  0.00  0.00    +0.210 HD
ENDBRANCH   3  13
BRANCH   2  15
ATOM     15  O   UNL     1      -2.166  -4.182   1.338  0.00  0.00    -0.389 OA
ATOM     16  H   UNL     1      -2.966  -4.717   1.431  0.00  0.00    +0.210 HD
ENDBRANCH   2  15
TORSDOF 4
