REMARK  Name = ZINC32093497
REMARK  6 active torsions:
REMARK  status: ('A' for Active; 'I' for Inactive)
REMARK    1  A    between atoms: C_1  and  O_2
REMARK    2  A    between atoms: O_2  and  C_3
REMARK    3  A    between atoms: C_6  and  C_18
REMARK    4  A    between atoms: C_8  and  O_9
REMARK    5  A    between atoms: O_9  and  C_10
REMARK    6  A    between atoms: C_10  and  C_11
REMARK                            x       y       z     vdW  Elec       q    Type
REMARK                         _______ _______ _______ _____ _____    ______ ____
ROOT
ATOM      1  C   UNL     1      -1.201  -0.638   0.010  0.00  0.00    +0.162 A 
ATOM      2  C   UNL     1      -2.374   0.099   0.019  0.00  0.00    +0.050 A 
ATOM      3  C   UNL     1      -3.596  -0.546   0.027  0.00  0.00    +0.008 A 
ATOM      4  C   UNL     1      -3.652  -1.928   0.026  0.00  0.00    -0.035 A 
ATOM      5  C   UNL     1      -2.485  -2.669   0.017  0.00  0.00    +0.053 A 
ATOM      6  C   UNL     1      -1.257  -2.028   0.003  0.00  0.00    +0.163 A 
ENDROOT
BRANCH   4   7
ATOM      7  C   UNL     1      -4.987  -2.627   0.035  0.00  0.00    +0.068 C 
ATOM      8  C   UNL     1      -5.779  -2.216   1.285  0.00  0.00    +0.109 C 
ATOM      9  C   UNL     1      -7.240  -2.517   1.110  0.00  0.00    +0.219 C 
ATOM     10  O   UNL     1      -7.865  -2.920   2.068  0.00  0.00    -0.275 OA
ATOM     11  N   UNL     1      -7.889  -2.362  -0.059  0.00  0.00    -0.270 N 
ATOM     12  C   UNL     1      -7.131  -2.099  -1.229  0.00  0.00    +0.138 A 
ATOM     13  C   UNL     1      -5.772  -2.226  -1.165  0.00  0.00    +0.041 A 
ATOM     14  S   UNL     1      -5.268  -1.806  -2.805  0.00  0.00    -0.055 S 
ATOM     15  C   UNL     1      -6.803  -1.531  -3.445  0.00  0.00    +0.158 A 
ATOM     16  N   UNL     1      -7.604  -1.750  -2.420  0.00  0.00    -0.210 NA
ATOM     17  N   UNL     1      -7.142  -1.160  -4.737  0.00  0.00    -0.337 N 
ATOM     18  H   UNL     1      -8.856  -2.429  -0.100  0.00  0.00    +0.156 HD
ATOM     19  H   UNL     1      -6.448  -1.028  -5.401  0.00  0.00    +0.144 HD
ATOM     20  H   UNL     1      -8.073  -1.033  -4.976  0.00  0.00    +0.144 HD
ENDBRANCH   4   7
BRANCH   1  22
ATOM     21  C   UNL     1      -0.017   1.425   0.010  0.00  0.00    +0.277 C 
ATOM     22  O   UNL     1       0.002  -0.004   0.002  0.00  0.00    -0.491 OA
ENDBRANCH   1  22
BRANCH   6  23
ATOM     23  O   UNL     1      -0.108  -2.756  -0.012  0.00  0.00    -0.484 OA
BRANCH  23  24
ATOM     24  C   UNL     1      -0.242  -4.179  -0.018  0.00  0.00    +0.264 C 
BRANCH  24  25
ATOM     25  C   UNL     1       1.125  -4.812  -0.034  0.00  0.00    -0.010 A 
ATOM     26  C   UNL     1       1.744  -5.091  -1.239  0.00  0.00    +0.008 A 
ATOM     27  C   UNL     1       2.998  -5.671  -1.255  0.00  0.00    +0.020 A 
ATOM     28  C   UNL     1       3.635  -5.973  -0.064  0.00  0.00    +0.041 A 
ATOM     29  C   UNL     1       3.016  -5.694   1.141  0.00  0.00    +0.020 A 
ATOM     30  C   UNL     1       1.764  -5.109   1.155  0.00  0.00    +0.008 A 
ATOM     31 CL   UNL     1       5.210  -6.703  -0.083  0.00  0.00    -0.084 Cl
ENDBRANCH  24  25
ENDBRANCH  23  24
ENDBRANCH   6  23
TORSDOF 5
