REMARK  Name = ZINC04964220
REMARK  6 active torsions:
REMARK  status: ('A' for Active; 'I' for Inactive)
REMARK    1  A    between atoms: C_1  and  C_2
REMARK    2  A    between atoms: C_2  and  C_14
REMARK    3  A    between atoms: N_3  and  N_4
REMARK    4  A    between atoms: C_5  and  C_7
REMARK    5  A    between atoms: C_10  and  O_13
REMARK    6  A    between atoms: C_17  and  N_20
REMARK                            x       y       z     vdW  Elec       q    Type
REMARK                         _______ _______ _______ _____ _____    ______ ____
ROOT
ATOM      1  C   UNL     1       3.312   7.626   0.822  0.00  0.00    +0.068 C 
ATOM      2  C   UNL     1       3.429   6.309   0.100  0.00  0.00    +0.063 C 
ATOM      3  N   UNL     1       2.398   5.807  -0.508  0.00  0.00    -0.184 NA
ENDROOT
BRANCH   2   4
ATOM      4  C   UNL     1       4.716   5.589   0.085  0.00  0.00    -0.002 A 
ATOM      5  C   UNL     1       5.542   5.608   1.212  0.00  0.00    +0.011 A 
ATOM      6  C   UNL     1       6.741   4.929   1.196  0.00  0.00    +0.023 A 
ATOM      7  C   UNL     1       7.135   4.236   0.056  0.00  0.00    +0.025 A 
ATOM      8  C   UNL     1       6.318   4.221  -1.070  0.00  0.00    +0.023 A 
ATOM      9  C   UNL     1       5.115   4.892  -1.059  0.00  0.00    +0.011 A 
BRANCH   7  10
ATOM     10  N   UNL     1       8.352   3.555   0.041  0.00  0.00    -0.358 N 
ATOM     11  H   UNL     1       8.628   3.072  -0.753  0.00  0.00    +0.142 HD
ATOM     12  H   UNL     1       8.922   3.565   0.826  0.00  0.00    +0.142 HD
ENDBRANCH   7  10
ENDBRANCH   2   4
BRANCH   3  13
ATOM     13  N   UNL     1       2.456   4.508  -1.030  0.00  0.00    -0.203 N 
ATOM     14  C   UNL     1       1.431   4.031  -1.764  0.00  0.00    +0.263 C 
ATOM     15  O   UNL     1       0.456   4.728  -1.972  0.00  0.00    -0.268 OA
ATOM     16  H   UNL     1       3.233   3.953  -0.864  0.00  0.00    +0.178 HD
BRANCH  14  17
ATOM     17  C   UNL     1       1.492   2.663  -2.314  0.00  0.00    +0.039 A 
ATOM     18  C   UNL     1       0.430   2.166  -3.075  0.00  0.00    +0.016 A 
ATOM     19  C   UNL     1       0.491   0.889  -3.587  0.00  0.00    +0.046 A 
ATOM     20  C   UNL     1       1.607   0.095  -3.348  0.00  0.00    +0.117 A 
ATOM     21  C   UNL     1       2.664   0.586  -2.592  0.00  0.00    +0.046 A 
ATOM     22  C   UNL     1       2.611   1.861  -2.076  0.00  0.00    +0.016 A 
BRANCH  20  23
ATOM     23  O   UNL     1       1.663  -1.163  -3.854  0.00  0.00    -0.507 OA
ATOM     24  H   UNL     1       2.058  -1.215  -4.735  0.00  0.00    +0.292 HD
ENDBRANCH  20  23
ENDBRANCH  14  17
ENDBRANCH   3  13
TORSDOF 5
