REMARK  Name = ZINC62462318
REMARK  8 active torsions:
REMARK  status: ('A' for Active; 'I' for Inactive)
REMARK    1  A    between atoms: C_1  and  C_2
REMARK    2  A    between atoms: C_2  and  C_4
REMARK    3  A    between atoms: C_2  and  N_16
REMARK    4  A    between atoms: N_6  and  C_7
REMARK    5  A    between atoms: C_10  and  N_15
REMARK    6  A    between atoms: C_12  and  O_13
REMARK    7  A    between atoms: O_13  and  C_14
REMARK    8  A    between atoms: C_19  and  C_22
REMARK                            x       y       z     vdW  Elec       q    Type
REMARK                         _______ _______ _______ _____ _____    ______ ____
ROOT
ATOM      1  C   UNL     1       0.843  -0.412   1.038  0.00  0.00    +0.203 C 
ATOM      2  O   UNL     1       1.820  -1.070   0.751  0.00  0.00    -0.277 OA
ATOM      3  N   UNL     1       0.538  -0.186   2.332  0.00  0.00    -0.284 N 
ATOM      4  H   UNL     1      -0.282   0.277   2.563  0.00  0.00    +0.155 HD
ENDROOT
BRANCH   3   5
ATOM      5  C   UNL     1       1.408  -0.621   3.344  0.00  0.00    +0.076 A 
ATOM      6  C   UNL     1       2.733  -0.902   3.046  0.00  0.00    +0.029 A 
ATOM      7  C   UNL     1       3.590  -1.331   4.041  0.00  0.00    +0.025 A 
ATOM      8  C   UNL     1       3.126  -1.482   5.342  0.00  0.00    +0.028 A 
ATOM      9  C   UNL     1       1.800  -1.201   5.644  0.00  0.00    +0.070 A 
ATOM     10  C   UNL     1       0.942  -0.766   4.648  0.00  0.00    +0.143 A 
BRANCH   8  11
ATOM     11  N   UNL     1       3.995  -1.917   6.348  0.00  0.00    -0.358 N 
ATOM     12  H   UNL     1       4.922  -2.113   6.137  0.00  0.00    +0.142 HD
ATOM     13  H   UNL     1       3.672  -2.022   7.256  0.00  0.00    +0.142 HD
ENDBRANCH   8  11
BRANCH  10  14
ATOM     14  O   UNL     1      -0.356  -0.486   4.942  0.00  0.00    -0.493 OA
ATOM     15  C   UNL     1      -0.764  -0.657   6.301  0.00  0.00    +0.277 C 
ENDBRANCH  10  14
ENDBRANCH   3   5
BRANCH   1  17
ATOM     16  C   UNL     1       0.439   1.565  -0.402  0.00  0.00    -0.004 C 
ATOM     17  C   UNL     1      -0.032   0.152  -0.051  0.00  0.00    +0.016 C 
BRANCH  17  18
ATOM     18  N   UNL     1       0.056  -0.703  -1.243  0.00  0.00    +0.387 N 
ATOM     19  C   UNL     1      -0.733  -0.110  -2.329  0.00  0.00    -0.077 C 
ATOM     20  C   UNL     1      -0.580  -0.953  -3.596  0.00  0.00    -0.004 C 
ATOM     21  C   UNL     1      -1.077  -2.375  -3.319  0.00  0.00    +0.099 C 
ATOM     22  C   UNL     1      -0.297  -2.957  -2.136  0.00  0.00    -0.004 C 
ATOM     23  C   UNL     1      -0.461  -2.039  -0.923  0.00  0.00    -0.077 C 
ATOM     24  H   UNL     1       1.020  -0.777  -1.532  0.00  0.00    -0.081 HD
BRANCH  21  25
ATOM     25  C   UNL     1      -0.856  -3.232  -4.539  0.00  0.00    +0.359 C 
ATOM     26  O   UNL     1      -0.651  -4.428  -4.415  0.00  0.00    -0.246 OA
ATOM     27  O   UNL     1      -0.883  -2.731  -5.649  0.00  0.00    -0.246 OA
ENDBRANCH  21  25
ENDBRANCH  17  18
ENDBRANCH   1  17
TORSDOF 6
