REMARK  Name = ZINC09157192
REMARK  7 active torsions:
REMARK  status: ('A' for Active; 'I' for Inactive)
REMARK    1  A    between atoms: C_3  and  N_18
REMARK    2  A    between atoms: C_6  and  C_7
REMARK    3  A    between atoms: N_9  and  C_10
REMARK    4  A    between atoms: C_10  and  C_11
REMARK    5  A    between atoms: C_11  and  C_12
REMARK    6  A    between atoms: N_18  and  S_19
REMARK    7  A    between atoms: S_19  and  C_22
REMARK                            x       y       z     vdW  Elec       q    Type
REMARK                         _______ _______ _______ _____ _____    ______ ____
ROOT
ATOM      1  C   UNL     1      -1.317   3.386   0.036  0.00  0.00    +0.015 A 
ATOM      2  C   UNL     1      -2.530   4.035   0.063  0.00  0.00    +0.025 A 
ATOM      3  C   UNL     1      -3.714   3.304   0.014  0.00  0.00    +0.048 A 
ATOM      4  C   UNL     1      -3.674   1.915  -0.067  0.00  0.00    +0.025 A 
ATOM      5  C   UNL     1      -2.465   1.260  -0.099  0.00  0.00    +0.015 A 
ATOM      6  C   UNL     1      -1.274   1.991  -0.051  0.00  0.00    +0.037 A 
ENDROOT
BRANCH   6   7
ATOM      7  C   UNL     1       0.025   1.292  -0.086  0.00  0.00    +0.244 C 
ATOM      8  O   UNL     1       0.060   0.079  -0.156  0.00  0.00    -0.270 OA
ATOM      9  N   UNL     1       1.171   1.999  -0.045  0.00  0.00    -0.311 N 
ATOM     10  H   UNL     1       1.143   2.967   0.011  0.00  0.00    +0.149 HD
BRANCH   9  11
ATOM     11  C   UNL     1       2.461   1.306  -0.086  0.00  0.00    +0.109 C 
BRANCH  11  12
ATOM     12  C   UNL     1       3.594   2.332  -0.026  0.00  0.00    +0.049 C 
BRANCH  12  13
ATOM     13  C   UNL     1       4.921   1.619  -0.068  0.00  0.00    -0.072 C 
ATOM     14  C   UNL     1       5.503   1.485  -1.216  0.00  0.00    -0.028 C 
ATOM     15  C   UNL     1       6.818   0.792  -1.417  0.00  0.00    +0.027 C 
ATOM     16  C   UNL     1       7.552   0.657  -0.082  0.00  0.00    +0.004 C 
ATOM     17  C   UNL     1       6.579   0.072   0.950  0.00  0.00    +0.005 C 
ATOM     18  C   UNL     1       5.489   1.113   1.226  0.00  0.00    +0.030 C 
ENDBRANCH  12  13
ENDBRANCH  11  12
ENDBRANCH   9  11
ENDBRANCH   6   7
BRANCH   3  19
ATOM     19  N   UNL     1      -4.938   3.963   0.047  0.00  0.00    -0.216 N 
ATOM     20  H   UNL     1      -5.638   3.717  -0.579  0.00  0.00    +0.174 HD
BRANCH  19  21
ATOM     21  S   UNL     1      -5.201   5.166   1.153  0.00  0.00    +0.072 S 
ATOM     22  O   UNL     1      -4.122   6.082   1.022  0.00  0.00    -0.150 OA
ATOM     23  O   UNL     1      -6.558   5.562   1.008  0.00  0.00    -0.150 OA
BRANCH  21  24
ATOM     24  C   UNL     1      -5.056   4.444   2.754  0.00  0.00    +0.111 A 
ATOM     25  C   UNL     1      -3.851   4.506   3.432  0.00  0.00    +0.031 A 
ATOM     26  C   UNL     1      -3.728   3.943   4.687  0.00  0.00    +0.030 A 
ATOM     27  C   UNL     1      -4.816   3.312   5.270  0.00  0.00    +0.067 A 
ATOM     28  C   UNL     1      -6.032   3.249   4.586  0.00  0.00    +0.069 A 
ATOM     29  C   UNL     1      -6.147   3.822   3.329  0.00  0.00    +0.056 A 
ATOM     30  N   UNL     1      -6.923   2.566   5.411  0.00  0.00    -0.306 N 
ATOM     31  H   UNL     1      -7.849   2.367   5.204  0.00  0.00    +0.170 HD
ATOM     32  C   UNL     1      -6.278   2.229   6.544  0.00  0.00    +0.325 A 
ATOM     33  O   UNL     1      -6.771   1.623   7.477  0.00  0.00    -0.247 OA
ATOM     34  N   UNL     1      -5.006   2.665   6.489  0.00  0.00    -0.306 N 
ATOM     35  H   UNL     1      -4.335   2.549   7.180  0.00  0.00    +0.170 HD
ENDBRANCH  21  24
ENDBRANCH  19  21
ENDBRANCH   3  19
TORSDOF 7
