REMARK  Name = ZINC67193346
REMARK  6 active torsions:
REMARK  status: ('A' for Active; 'I' for Inactive)
REMARK    1  A    between atoms: C_5  and  C_7
REMARK    2  A    between atoms: C_9  and  C_12
REMARK    3  A    between atoms: N_14  and  N_15
REMARK    4  A    between atoms: N_15  and  C_16
REMARK    5  A    between atoms: C_16  and  N_18
REMARK    6  A    between atoms: N_18  and  C_19
REMARK                            x       y       z     vdW  Elec       q    Type
REMARK                         _______ _______ _______ _____ _____    ______ ____
ROOT
ATOM      1  C   UNL     1      -0.584  -5.300  -0.030  0.00  0.00    +0.279 C 
ATOM      2  O   UNL     1      -0.328  -6.489  -0.038  0.00  0.00    -0.267 OA
ATOM      3  N   UNL     1      -1.867  -4.887  -0.022  0.00  0.00    -0.230 N 
ATOM      4  H   UNL     1      -2.071  -3.939  -0.016  0.00  0.00    +0.173 HD
ENDROOT
BRANCH   1   7
ATOM      5  C   UNL     1       1.248  -2.161  -0.022  0.00  0.00    +0.110 A 
ATOM      6  N   UNL     1       0.239  -3.013  -0.022  0.00  0.00    -0.234 NA
ATOM      7  C   UNL     1       0.508  -4.311  -0.031  0.00  0.00    +0.135 A 
ATOM      8  C   UNL     1       1.815  -4.720  -0.039  0.00  0.00    +0.080 A 
ATOM      9  S   UNL     1       2.653  -3.261  -0.043  0.00  0.00    -0.075 S 
BRANCH   5  14
ATOM     10  C   UNL     1      -0.017   1.375   0.010  0.00  0.00    +0.001 A 
ATOM     11  C   UNL     1       1.170   2.087   0.002  0.00  0.00    +0.001 A 
ATOM     12  C   UNL     1       2.382   1.422  -0.013  0.00  0.00    +0.020 A 
ATOM     13  C   UNL     1       2.416   0.041  -0.021  0.00  0.00    +0.051 A 
ATOM     14  C   UNL     1       1.221  -0.682  -0.013  0.00  0.00    +0.025 A 
ATOM     15  C   UNL     1       0.002  -0.004   0.002  0.00  0.00    +0.012 A 
ATOM     16 CL   UNL     1       3.938  -0.793  -0.041  0.00  0.00    -0.083 Cl
ENDBRANCH   5  14
ENDBRANCH   1   7
BRANCH   3  17
ATOM     17  N   UNL     1      -2.905  -5.827  -0.022  0.00  0.00    -0.246 N 
ATOM     18  H   UNL     1      -2.701  -6.776  -0.028  0.00  0.00    +0.172 HD
BRANCH  17  19
ATOM     19  C   UNL     1      -4.188  -5.415  -0.013  0.00  0.00    +0.147 C 
ATOM     20  S   UNL     1      -5.457  -6.564  -0.013  0.00  0.00    -0.017 S 
BRANCH  19  21
ATOM     21  N   UNL     1      -4.472  -4.097  -0.005  0.00  0.00    -0.323 N 
ATOM     22  H   UNL     1      -3.753  -3.446  -0.005  0.00  0.00    +0.148 HD
BRANCH  21  23
ATOM     23  C   UNL     1      -5.867  -3.648   0.004  0.00  0.00    +0.072 C 
ATOM     24  C   UNL     1      -6.398  -3.604  -1.430  0.00  0.00    +0.022 C 
ATOM     25  C   UNL     1      -7.854  -3.135  -1.420  0.00  0.00    +0.002 C 
ATOM     26  C   UNL     1      -7.936  -1.738  -0.803  0.00  0.00    +0.000 C 
ATOM     27  C   UNL     1      -7.405  -1.782   0.632  0.00  0.00    +0.002 C 
ATOM     28  C   UNL     1      -5.949  -2.251   0.622  0.00  0.00    +0.022 C 
ENDBRANCH  21  23
ENDBRANCH  19  21
ENDBRANCH  17  19
ENDBRANCH   3  17
TORSDOF 6
