REMARK  Name = ZINC31002605
REMARK  11 active torsions:
REMARK  status: ('A' for Active; 'I' for Inactive)
REMARK    1  A    between atoms: C_1  and  C_2
REMARK    2  A    between atoms: C_2  and  C_3
REMARK    3  A    between atoms: C_2  and  C_4
REMARK    4  A    between atoms: C_4  and  C_6
REMARK    5  A    between atoms: C_4  and  N_22
REMARK    6  A    between atoms: N_8  and  C_9
REMARK    7  A    between atoms: C_12  and  N_15
REMARK    8  A    between atoms: N_18  and  C_19
REMARK    9  A    between atoms: C_19  and  C_20
REMARK   10  A    between atoms: C_19  and  C_21
REMARK   11  A    between atoms: C_23  and  C_25
REMARK                            x       y       z     vdW  Elec       q    Type
REMARK                         _______ _______ _______ _____ _____    ______ ____
ROOT
ATOM      1  C   UNL     1       7.248   0.517  -0.210  0.00  0.00    +0.238 C 
ATOM      2  O   UNL     1       7.100   1.699   0.020  0.00  0.00    -0.273 OA
ATOM      3  N   UNL     1       8.406  -0.091   0.112  0.00  0.00    -0.284 N 
ATOM      4  H   UNL     1       8.497  -1.184   0.022  0.00  0.00    +0.155 HD
ENDROOT
BRANCH   3   5
ATOM      5  C   UNL     1       9.495   0.667   0.560  0.00  0.00    +0.034 A 
ATOM      6  C   UNL     1       9.278   1.857   1.243  0.00  0.00    +0.025 A 
ATOM      7  C   UNL     1      10.351   2.601   1.691  0.00  0.00    +0.025 A 
ATOM      8  C   UNL     1      11.648   2.167   1.448  0.00  0.00    +0.035 A 
ATOM      9  C   UNL     1      11.865   0.980   0.760  0.00  0.00    +0.025 A 
ATOM     10  C   UNL     1      10.792   0.232   0.318  0.00  0.00    +0.025 A 
BRANCH   8  11
ATOM     11  N   UNL     1      12.737   2.925   1.896  0.00  0.00    -0.269 N 
ATOM     12  C   UNL     1      12.622   3.675   3.011  0.00  0.00    +0.304 C 
ATOM     13  O   UNL     1      11.636   3.572   3.714  0.00  0.00    -0.253 OA
ATOM     14  N   UNL     1      13.602   4.538   3.346  0.00  0.00    -0.297 N 
ATOM     15  H   UNL     1      13.685   2.909   1.339  0.00  0.00    +0.156 HD
ATOM     16  H   UNL     1      14.495   4.630   2.710  0.00  0.00    +0.151 HD
BRANCH  14  17
ATOM     17  C   UNL     1      13.478   5.352   4.557  0.00  0.00    +0.068 C 
ATOM     18  C   UNL     1      14.871   5.745   5.053  0.00  0.00    +0.027 C 
ATOM     19  C   UNL     1      12.674   6.615   4.242  0.00  0.00    +0.027 C 
ENDBRANCH  14  17
ENDBRANCH   8  11
ENDBRANCH   3   5
BRANCH   1  20
ATOM     20  C   UNL     1       6.136  -0.270  -0.854  0.00  0.00    +0.162 C 
BRANCH  20  21
ATOM     21  N   UNL     1       4.881   0.477  -0.744  0.00  0.00    -0.300 N 
ATOM     22  C   UNL     1       3.703  -0.177  -0.770  0.00  0.00    +0.245 C 
ATOM     23  O   UNL     1       3.682  -1.387  -0.885  0.00  0.00    -0.270 OA
ATOM     24  H   UNL     1       4.900   1.572  -0.640  0.00  0.00    +0.150 HD
BRANCH  22  25
ATOM     25  C   UNL     1       2.436   0.577  -0.659  0.00  0.00    +0.037 A 
ATOM     26  C   UNL     1       1.214  -0.097  -0.686  0.00  0.00    +0.013 A 
ATOM     27  C   UNL     1       0.036   0.612  -0.581  0.00  0.00    +0.001 A 
ATOM     28  C   UNL     1       0.063   1.989  -0.450  0.00  0.00    +0.000 A 
ATOM     29  C   UNL     1       1.271   2.664  -0.423  0.00  0.00    +0.001 A 
ATOM     30  C   UNL     1       2.457   1.966  -0.527  0.00  0.00    +0.013 A 
ENDBRANCH  22  25
ENDBRANCH  20  21
BRANCH  20  32
ATOM     31  C   UNL     1       5.433  -1.453  -2.939  0.00  0.00    +0.009 C 
ATOM     32  C   UNL     1       6.465  -0.501  -2.330  0.00  0.00    +0.012 C 
ATOM     33  C   UNL     1       6.428   0.834  -3.076  0.00  0.00    +0.009 C 
ENDBRANCH  20  32
ENDBRANCH   1  20
TORSDOF 7
