REMARK  Name = ZINC13037849
REMARK  4 active torsions:
REMARK  status: ('A' for Active; 'I' for Inactive)
REMARK    1  A    between atoms: C_4  and  O_8
REMARK    2  A    between atoms: O_8  and  C_9
REMARK    3  A    between atoms: C_9  and  C_10
REMARK    4  A    between atoms: N_12  and  C_13
REMARK                            x       y       z     vdW  Elec       q    Type
REMARK                         _______ _______ _______ _____ _____    ______ ____
ROOT
ATOM      1  C   UNL     1      -0.014   1.209   0.006  0.00  0.00    +0.255 C 
ATOM      2  O   UNL     1       0.003  -0.004   0.006  0.00  0.00    -0.272 OA
ATOM      3  N   UNL     1      -1.191   1.867   0.018  0.00  0.00    -0.282 N 
ATOM      4  H   UNL     1      -1.205   2.833   0.099  0.00  0.00    +0.155 HD
ENDROOT
BRANCH   3   5
ATOM      5  C   UNL     1      -2.393   1.154  -0.086  0.00  0.00    +0.050 A 
ATOM      6  C   UNL     1      -2.409  -0.090  -0.699  0.00  0.00    +0.052 A 
ATOM      7  C   UNL     1      -3.599  -0.792  -0.800  0.00  0.00    +0.069 A 
ATOM      8  C   UNL     1      -4.777  -0.246  -0.286  0.00  0.00    +0.068 A 
ATOM      9  C   UNL     1      -4.755   0.999   0.325  0.00  0.00    +0.045 A 
ATOM     10  C   UNL     1      -3.566   1.694   0.430  0.00  0.00    +0.041 A 
ATOM     11 BR   UNL     1      -3.535   3.387   1.271  0.00  0.00    -0.048 Br
ATOM     12  N   UNL     1      -5.792  -1.170  -0.534  0.00  0.00    -0.306 N 
ATOM     13  H   UNL     1      -6.725  -1.069  -0.290  0.00  0.00    +0.170 HD
ATOM     14  C   UNL     1      -5.254  -2.229  -1.169  0.00  0.00    +0.325 A 
ATOM     15  O   UNL     1      -5.868  -3.216  -1.529  0.00  0.00    -0.247 OA
ATOM     16  N   UNL     1      -3.934  -2.031  -1.344  0.00  0.00    -0.306 N 
ATOM     17  H   UNL     1      -3.320  -2.646  -1.775  0.00  0.00    +0.170 HD
ENDBRANCH   3   5
BRANCH   1  18
ATOM     18  C   UNL     1       1.280   1.980  -0.014  0.00  0.00    +0.325 C 
BRANCH  18  19
ATOM     19  O   UNL     1       2.379   1.067  -0.031  0.00  0.00    -0.481 OA
BRANCH  19  23
ATOM     20  C   UNL     1       6.171   2.696  -0.089  0.00  0.00    +0.021 A 
ATOM     21  C   UNL     1       6.010   1.322  -0.086  0.00  0.00    +0.025 A 
ATOM     22  C   UNL     1       4.741   0.774  -0.067  0.00  0.00    +0.083 A 
ATOM     23  C   UNL     1       3.627   1.604  -0.050  0.00  0.00    +0.141 A 
ATOM     24  C   UNL     1       3.791   2.980  -0.059  0.00  0.00    +0.067 A 
ATOM     25  C   UNL     1       5.063   3.524  -0.073  0.00  0.00    +0.045 A 
ATOM     26 CL   UNL     1       5.269   5.248  -0.076  0.00  0.00    -0.083 Cl
ATOM     27 CL   UNL     1       4.540  -0.950  -0.062  0.00  0.00    -0.080 Cl
ENDBRANCH  19  23
ENDBRANCH  18  19
ENDBRANCH   1  18
TORSDOF 4
