REMARK  Name = ZINC00743398
REMARK  9 active torsions:
REMARK  status: ('A' for Active; 'I' for Inactive)
REMARK    1  A    between atoms: C_1  and  C_2
REMARK    2  A    between atoms: C_2  and  C_3
REMARK    3  A    between atoms: C_3  and  C_5
REMARK    4  A    between atoms: C_3  and  C_6
REMARK    5  A    between atoms: C_6  and  C_8
REMARK    6  A    between atoms: C_6  and  N_20
REMARK    7  A    between atoms: N_10  and  C_11
REMARK    8  A    between atoms: N_24  and  C_25
REMARK    9  A    between atoms: C_28  and  C_31
REMARK                            x       y       z     vdW  Elec       q    Type
REMARK                         _______ _______ _______ _____ _____    ______ ____
ROOT
ATOM      1  C   UNL     1       6.303   1.938   0.186  0.00  0.00    +0.163 C 
ENDROOT
BRANCH   1   2
ATOM      2  N   UNL     1       7.525   1.212  -0.166  0.00  0.00    -0.288 N 
ATOM      3  H   UNL     1       7.477   0.435  -0.745  0.00  0.00    +0.151 HD
ATOM      4  C   UNL     1       8.715   1.622   0.314  0.00  0.00    +0.304 C 
ATOM      5  O   UNL     1       8.775   2.596   1.040  0.00  0.00    -0.252 OA
ATOM      6  N   UNL     1       9.840   0.954  -0.010  0.00  0.00    -0.269 N 
ATOM      7  H   UNL     1       9.802   0.220  -0.643  0.00  0.00    +0.156 HD
BRANCH   6   8
ATOM      8  C   UNL     1      11.061   1.318   0.568  0.00  0.00    +0.035 A 
ATOM      9  C   UNL     1      12.243   1.159  -0.145  0.00  0.00    +0.023 A 
ATOM     10  C   UNL     1      13.446   1.524   0.426  0.00  0.00    +0.005 A 
ATOM     11  C   UNL     1      13.477   2.037   1.710  0.00  0.00    -0.050 A 
ATOM     12  C   UNL     1      12.303   2.191   2.424  0.00  0.00    +0.005 A 
ATOM     13  C   UNL     1      11.095   1.833   1.857  0.00  0.00    +0.023 A 
ATOM     14  C   UNL     1      14.792   2.428   2.332  0.00  0.00    +0.044 C 
ENDBRANCH   6   8
ENDBRANCH   1   2
BRANCH   1  15
ATOM     15  C   UNL     1       5.119   1.012   0.079  0.00  0.00    +0.238 C 
ATOM     16  O   UNL     1       5.237  -0.061  -0.474  0.00  0.00    -0.273 OA
ATOM     17  N   UNL     1       3.929   1.377   0.597  0.00  0.00    -0.284 N 
ATOM     18  H   UNL     1       3.817   2.261   0.978  0.00  0.00    +0.155 HD
BRANCH  17  19
ATOM     19  C   UNL     1       2.856   0.479   0.584  0.00  0.00    +0.034 A 
ATOM     20  C   UNL     1       2.688  -0.391  -0.486  0.00  0.00    +0.023 A 
ATOM     21  C   UNL     1       1.628  -1.274  -0.493  0.00  0.00    +0.006 A 
ATOM     22  C   UNL     1       0.731  -1.298   0.562  0.00  0.00    -0.044 A 
ATOM     23  C   UNL     1       0.895  -0.434   1.629  0.00  0.00    -0.042 A 
ATOM     24  C   UNL     1       1.956   0.454   1.640  0.00  0.00    +0.027 A 
ATOM     25  C   UNL     1      -0.210  -0.652   2.640  0.00  0.00    +0.036 C 
ATOM     26  C   UNL     1      -1.302  -1.436   1.884  0.00  0.00    +0.009 C 
ATOM     27  C   UNL     1      -0.493  -2.161   0.787  0.00  0.00    +0.036 C 
ENDBRANCH  17  19
ENDBRANCH   1  15
BRANCH   1  28
ATOM     28  C   UNL     1       6.117   3.117  -0.771  0.00  0.00    +0.015 C 
ATOM     29  C   UNL     1       6.075   2.603  -2.212  0.00  0.00    +0.010 C 
BRANCH  28  31
ATOM     30  C   UNL     1       7.157   4.826   0.725  0.00  0.00    +0.004 C 
ATOM     31  C   UNL     1       7.284   4.093  -0.612  0.00  0.00    +0.002 C 
ENDBRANCH  28  31
ENDBRANCH   1  28
TORSDOF 6
