REMARK  Name = ZINC11690802
REMARK  12 active torsions:
REMARK  status: ('A' for Active; 'I' for Inactive)
REMARK    1  A    between atoms: C_1  and  C_2
REMARK    2  A    between atoms: C_2  and  C_3
REMARK    3  A    between atoms: C_3  and  C_4
REMARK    4  A    between atoms: C_4  and  C_5
REMARK    5  A    between atoms: C_5  and  N_6
REMARK    6  A    between atoms: C_10  and  C_23
REMARK    7  A    between atoms: N_12  and  C_13
REMARK    8  A    between atoms: C_13  and  C_15
REMARK    9  A    between atoms: C_15  and  C_16
REMARK   10  A    between atoms: C_17  and  C_18
REMARK   11  A    between atoms: C_19  and  C_20
REMARK   12  A    between atoms: C_31  and  C_34
REMARK                            x       y       z     vdW  Elec       q    Type
REMARK                         _______ _______ _______ _____ _____    ______ ____
ROOT
ATOM      1  N   UNL     1      -0.686   2.247   1.152  0.00  0.00    -0.311 N 
ATOM      2  C   UNL     1       0.034   2.503   2.291  0.00  0.00    +0.150 A 
ATOM      3  C   UNL     1      -0.641   2.749   3.511  0.00  0.00    +0.084 A 
ATOM      4  C   UNL     1      -2.037   2.731   3.559  0.00  0.00    +0.039 A 
ATOM      5  C   UNL     1      -2.751   2.469   2.390  0.00  0.00    +0.093 A 
ATOM      6  C   UNL     1      -2.052   2.232   1.182  0.00  0.00    +0.145 A 
ATOM      7  N   UNL     1      -2.734   1.987   0.062  0.00  0.00    -0.162 NA
ATOM      8  C   UNL     1       0.161   3.018   4.705  0.00  0.00    +0.268 A 
ATOM      9  O   UNL     1      -0.366   3.236   5.781  0.00  0.00    -0.267 OA
ATOM     10  N   UNL     1       1.508   3.016   4.575  0.00  0.00    -0.267 N 
ATOM     11  C   UNL     1       2.279   3.264   5.672  0.00  0.00    +0.096 A 
ATOM     12  C   UNL     1       3.628   3.272   5.582  0.00  0.00    +0.019 A 
ATOM     13  C   UNL     1       4.250   3.022   4.351  0.00  0.00    +0.008 A 
ATOM     14  C   UNL     1       3.488   2.773   3.250  0.00  0.00    -0.007 A 
ATOM     15  C   UNL     1       2.084   2.769   3.360  0.00  0.00    +0.145 A 
ATOM     16  N   UNL     1       1.358   2.524   2.269  0.00  0.00    -0.211 NA
ATOM     17  C   UNL     1       4.144   2.502   1.920  0.00  0.00    +0.047 C 
ENDROOT
BRANCH   7  18
ATOM     18  C   UNL     1      -4.058   2.095   0.054  0.00  0.00    +0.243 C 
ATOM     19  O   UNL     1      -4.581   3.175   0.251  0.00  0.00    -0.273 OA
BRANCH  18  20
ATOM     20  C   UNL     1      -4.912   0.880  -0.200  0.00  0.00    +0.140 C 
BRANCH  20  21
ATOM     21  C   UNL     1      -6.367   1.270  -0.157  0.00  0.00    +0.004 C 
ATOM     22  C   UNL     1      -7.012   1.566  -1.287  0.00  0.00    +0.011 C 
ATOM     23 BR   UNL     1      -7.279   1.341   1.498  0.00  0.00    -0.054 Br
BRANCH  22  24
ATOM     24  C   UNL     1      -6.306   1.512  -2.569  0.00  0.00    +0.001 C 
ATOM     25  C   UNL     1      -6.959   1.811  -3.711  0.00  0.00    -0.001 C 
BRANCH  25  26
ATOM     26  C   UNL     1      -8.373   2.190  -3.670  0.00  0.00    -0.008 C 
ATOM     27  C   UNL     1      -9.017   2.486  -4.798  0.00  0.00    +0.008 C 
ENDBRANCH  25  26
ENDBRANCH  22  24
ENDBRANCH  20  21
ENDBRANCH  18  20
ENDBRANCH   7  18
BRANCH   5  28
ATOM     28  C   UNL     1      -4.182   2.445   2.411  0.00  0.00    +0.103 C 
ATOM     29  N   UNL     1      -5.318   2.425   2.427  0.00  0.00    -0.191 NA
ENDBRANCH   5  28
BRANCH   1  30
ATOM     30  C   UNL     1       0.015   1.993  -0.109  0.00  0.00    +0.125 C 
BRANCH  30  31
ATOM     31  C   UNL     1       0.287   0.494  -0.248  0.00  0.00    +0.022 C 
BRANCH  31  32
ATOM     32  C   UNL     1       1.020   0.229  -1.565  0.00  0.00    +0.001 C 
BRANCH  32  34
ATOM     33  C   UNL     1       2.024  -1.535  -3.022  0.00  0.00    +0.004 C 
ATOM     34  C   UNL     1       1.292  -1.270  -1.705  0.00  0.00    -0.003 C 
ENDBRANCH  32  34
ENDBRANCH  31  32
ENDBRANCH  30  31
ENDBRANCH   1  30
TORSDOF 10
