REMARK  Name = ZINC21322900
REMARK  8 active torsions:
REMARK  status: ('A' for Active; 'I' for Inactive)
REMARK    1  A    between atoms: C_1  and  C_2
REMARK    2  A    between atoms: C_2  and  C_26
REMARK    3  A    between atoms: N_3  and  N_4
REMARK    4  A    between atoms: C_8  and  S_11
REMARK    5  A    between atoms: N_9  and  N_10
REMARK    6  A    between atoms: S_11  and  C_12
REMARK    7  A    between atoms: C_12  and  C_13
REMARK    8  A    between atoms: N_15  and  C_16
REMARK                            x       y       z     vdW  Elec       q    Type
REMARK                         _______ _______ _______ _____ _____    ______ ____
ROOT
ATOM      1  N   UNL     1       0.035   0.063  -2.337  0.00  0.00    -0.204 N 
ATOM      2  C   UNL     1       0.025  -0.625  -3.542  0.00  0.00    +0.254 A 
ATOM      3  N   UNL     1       0.040  -1.928  -3.686  0.00  0.00    -0.109 NA
ATOM      4  N   UNL     1       0.021  -2.212  -5.058  0.00  0.00    -0.119 NA
ATOM      5  C   UNL     1      -0.005  -1.073  -5.707  0.00  0.00    +0.210 A 
ATOM      6  N   UNL     1      -0.009  -0.063  -4.788  0.00  0.00    -0.211 N 
ATOM      7  H   UNL     1       0.020   1.163  -2.332  0.00  0.00    +0.178 HD
ENDROOT
BRANCH   1  10
ATOM      8  C   UNL     1       0.054   1.507   0.008  0.00  0.00    +0.068 C 
ATOM      9  C   UNL     1       0.075  -0.000   0.000  0.00  0.00    +0.063 C 
ATOM     10  N   UNL     1       0.065  -0.644  -1.128  0.00  0.00    -0.184 NA
BRANCH   9  11
ATOM     11  C   UNL     1       0.106  -0.744   1.273  0.00  0.00    -0.002 A 
ATOM     12  C   UNL     1       0.123  -0.054   2.488  0.00  0.00    +0.011 A 
ATOM     13  C   UNL     1       0.147  -0.756   3.675  0.00  0.00    +0.016 A 
ATOM     14  C   UNL     1       0.166  -2.140   3.664  0.00  0.00    +0.018 A 
ATOM     15  C   UNL     1       0.156  -2.830   2.463  0.00  0.00    +0.016 A 
ATOM     16  C   UNL     1       0.126  -2.141   1.269  0.00  0.00    +0.011 A 
ATOM     17 BR   UNL     1       0.207  -3.094   5.296  0.00  0.00    -0.050 Br
ENDBRANCH   9  11
ENDBRANCH   1  10
BRANCH   6  18
ATOM     18  N   UNL     1      -0.040   1.275  -5.065  0.00  0.00    -0.294 N 
ATOM     19  H   UNL     1      -0.066   1.620  -6.109  0.00  0.00    +0.163 HD
ATOM     20  H   UNL     1      -0.038   2.006  -4.244  0.00  0.00    +0.163 HD
ENDBRANCH   6  18
BRANCH   5  21
ATOM     21  S   UNL     1      -0.037  -0.880  -7.459  0.00  0.00    -0.075 S 
BRANCH  21  22
ATOM     22  C   UNL     1      -0.025  -2.581  -8.088  0.00  0.00    +0.173 C 
BRANCH  22  23
ATOM     23  C   UNL     1      -0.051  -2.559  -9.595  0.00  0.00    +0.228 C 
ATOM     24  O   UNL     1      -0.075  -1.501 -10.186  0.00  0.00    -0.275 OA
ATOM     25  N   UNL     1      -0.046  -3.717 -10.285  0.00  0.00    -0.284 N 
ATOM     26  H   UNL     1       0.051  -4.675  -9.753  0.00  0.00    +0.155 HD
BRANCH  25  27
ATOM     27  C   UNL     1      -0.166  -3.700 -11.676  0.00  0.00    +0.041 A 
ATOM     28  C   UNL     1       0.399  -2.679 -12.410  0.00  0.00    +0.024 A 
ATOM     29  C   UNL     1       0.286  -2.653 -13.797  0.00  0.00    +0.002 A 
ATOM     30  C   UNL     1      -0.383  -3.632 -14.466  0.00  0.00    +0.008 A 
ATOM     31  C   UNL     1      -0.972  -4.691 -13.756  0.00  0.00    -0.016 A 
ATOM     32  C   UNL     1      -0.860  -4.731 -12.344  0.00  0.00    +0.003 A 
ATOM     33  C   UNL     1      -1.453  -5.787 -11.635  0.00  0.00    +0.010 A 
ATOM     34  C   UNL     1      -2.120  -6.763 -12.311  0.00  0.00    +0.001 A 
ATOM     35  C   UNL     1      -2.227  -6.727 -13.700  0.00  0.00    +0.001 A 
ATOM     36  C   UNL     1      -1.669  -5.716 -14.420  0.00  0.00    +0.008 A 
ENDBRANCH  25  27
ENDBRANCH  22  23
ENDBRANCH  21  22
ENDBRANCH   5  21
TORSDOF 7
