REMARK  Name = ZINC16490053
REMARK  8 active torsions:
REMARK  status: ('A' for Active; 'I' for Inactive)
REMARK    1  A    between atoms: C_1  and  C_2
REMARK    2  A    between atoms: C_3  and  C_13
REMARK    3  A    between atoms: C_4  and  C_12
REMARK    4  A    between atoms: C_9  and  C_10
REMARK    5  A    between atoms: C_13  and  C_14
REMARK    6  A    between atoms: C_14  and  C_15
REMARK    7  A    between atoms: N_17  and  C_18
REMARK    8  A    between atoms: C_21  and  N_25
REMARK                            x       y       z     vdW  Elec       q    Type
REMARK                         _______ _______ _______ _____ _____    ______ ____
ROOT
ATOM      1  C   UNL     1       4.172   5.316   1.429  0.00  0.00    +0.218 C 
ATOM      2  O   UNL     1       4.631   5.716   0.379  0.00  0.00    -0.275 OA
ATOM      3  N   UNL     1       4.806   5.586   2.587  0.00  0.00    -0.285 N 
ATOM      4  H   UNL     1       4.405   5.325   3.431  0.00  0.00    +0.155 HD
ENDROOT
BRANCH   3   5
ATOM      5  C   UNL     1       6.043   6.244   2.572  0.00  0.00    +0.036 A 
ATOM      6  C   UNL     1       7.010   5.926   3.517  0.00  0.00    +0.045 A 
ATOM      7  C   UNL     1       8.232   6.571   3.499  0.00  0.00    +0.065 A 
ATOM      8  C   UNL     1       8.488   7.546   2.544  0.00  0.00    +0.062 A 
ATOM      9  C   UNL     1       7.519   7.869   1.603  0.00  0.00    +0.065 A 
ATOM     10  C   UNL     1       6.299   7.219   1.617  0.00  0.00    +0.045 A 
ATOM     11 CL   UNL     1       7.839   9.088   0.409  0.00  0.00    -0.082 Cl
ATOM     12 CL   UNL     1       9.443   6.167   4.676  0.00  0.00    -0.082 Cl
BRANCH   8  13
ATOM     13  N   UNL     1       9.725   8.204   2.530  0.00  0.00    -0.356 N 
ATOM     14  H   UNL     1       9.904   8.885   1.863  0.00  0.00    +0.142 HD
ATOM     15  H   UNL     1      10.402   7.979   3.187  0.00  0.00    +0.142 HD
ENDBRANCH   8  13
ENDBRANCH   3   5
BRANCH   1  16
ATOM     16  C   UNL     1       2.894   4.518   1.437  0.00  0.00    +0.101 C 
BRANCH  16  17
ATOM     17  C   UNL     1       2.385   4.355   0.003  0.00  0.00    +0.046 C 
BRANCH  17  20
ATOM     18  C   UNL     1       2.483   1.444   0.001  0.00  0.00    +0.045 C 
ATOM     19  C   UNL     1       1.158   2.162   0.011  0.00  0.00    -0.023 A 
ATOM     20  C   UNL     1       1.107   3.556   0.011  0.00  0.00    -0.024 A 
ATOM     21  C   UNL     1      -0.090   4.195   0.021  0.00  0.00    +0.019 A 
ATOM     22  N   UNL     1      -1.255   3.503   0.029  0.00  0.00    -0.325 N 
ATOM     23  H   UNL     1      -2.097   3.985   0.035  0.00  0.00    +0.169 HD
ATOM     24  C   UNL     1      -1.263   2.156   0.022  0.00  0.00    +0.267 A 
ATOM     25  O   UNL     1      -2.321   1.551   0.025  0.00  0.00    -0.266 OA
ATOM     26  C   UNL     1      -0.036   1.444   0.019  0.00  0.00    +0.119 A 
ATOM     27  C   UNL     1      -0.125   5.701   0.021  0.00  0.00    +0.063 C 
BRANCH  26  28
ATOM     28  C   UNL     1      -0.024   0.012   0.017  0.00  0.00    +0.105 C 
ATOM     29  N   UNL     1      -0.015  -1.124   0.016  0.00  0.00    -0.191 NA
ENDBRANCH  26  28
ENDBRANCH  17  20
ENDBRANCH  16  17
ENDBRANCH   1  16
TORSDOF 6
