REMARK  Name = ZINC09739488
REMARK  7 active torsions:
REMARK  status: ('A' for Active; 'I' for Inactive)
REMARK    1  A    between atoms: C_1  and  C_2
REMARK    2  A    between atoms: C_2  and  O_3
REMARK    3  A    between atoms: O_3  and  C_4
REMARK    4  A    between atoms: C_8  and  C_11
REMARK    5  A    between atoms: C_9  and  O_10
REMARK    6  A    between atoms: C_13  and  C_31
REMARK    7  A    between atoms: N_17  and  C_22
REMARK                            x       y       z     vdW  Elec       q    Type
REMARK                         _______ _______ _______ _____ _____    ______ ____
ROOT
ATOM      1  C   UNL     1       3.311  -1.550  -0.038  0.00  0.00    +0.166 A 
ATOM      2  N   UNL     1       2.936  -2.819  -0.041  0.00  0.00    -0.220 NA
ATOM      3  C   UNL     1       1.644  -3.152  -0.031  0.00  0.00    +0.154 A 
ATOM      4  C   UNL     1       0.692  -2.133  -0.016  0.00  0.00    +0.117 A 
ATOM      5  C   UNL     1       1.135  -0.798  -0.013  0.00  0.00    +0.170 A 
ATOM      6  N   UNL     1       2.434  -0.552  -0.024  0.00  0.00    -0.207 NA
ATOM      7  N   UNL     1       0.002  -0.004   0.002  0.00  0.00    -0.245 N 
ATOM      8  C   UNL     1      -1.080  -0.806   0.014  0.00  0.00    +0.333 A 
ATOM      9  O   UNL     1      -2.234  -0.424   0.033  0.00  0.00    -0.246 OA
ATOM     10  N   UNL     1      -0.691  -2.096  -0.003  0.00  0.00    -0.303 N 
ATOM     11  H   UNL     1      -1.280  -2.867  -0.001  0.00  0.00    +0.171 HD
ENDROOT
BRANCH   7  12
ATOM     12  C   UNL     1      -0.017   1.399   0.010  0.00  0.00    +0.057 A 
ATOM     13  C   UNL     1       1.176   2.109   0.002  0.00  0.00    +0.030 A 
ATOM     14  C   UNL     1       1.159   3.491   0.010  0.00  0.00    +0.051 A 
ATOM     15  C   UNL     1      -0.048   4.171   0.025  0.00  0.00    +0.166 A 
ATOM     16  C   UNL     1      -1.246   3.461   0.032  0.00  0.00    +0.168 A 
ATOM     17  C   UNL     1      -1.228   2.076   0.019  0.00  0.00    +0.076 A 
ATOM     18  O   UNL     1      -2.281   4.351   0.046  0.00  0.00    -0.453 OA
ATOM     19  C   UNL     1      -1.705   5.604   0.460  0.00  0.00    +0.466 C 
ATOM     20  O   UNL     1      -0.333   5.507   0.034  0.00  0.00    -0.453 OA
ENDBRANCH   7  12
BRANCH   1  25
ATOM     21  C   UNL     1       7.059  -1.952  -0.076  0.00  0.00    +0.162 A 
ATOM     22  C   UNL     1       7.467  -0.627  -0.073  0.00  0.00    +0.049 A 
ATOM     23  C   UNL     1       6.531   0.391  -0.059  0.00  0.00    +0.004 A 
ATOM     24  C   UNL     1       5.183   0.097  -0.047  0.00  0.00    +0.015 A 
ATOM     25  C   UNL     1       4.758  -1.231  -0.051  0.00  0.00    +0.064 A 
ATOM     26  C   UNL     1       5.703  -2.260  -0.060  0.00  0.00    +0.169 A 
BRANCH  26  27
ATOM     27  O   UNL     1       5.299  -3.558  -0.057  0.00  0.00    -0.503 OA
ATOM     28  H   UNL     1       5.174  -3.933  -0.940  0.00  0.00    +0.292 HD
ENDBRANCH  26  27
BRANCH  21  29
ATOM     29  O   UNL     1       7.984  -2.949  -0.089  0.00  0.00    -0.489 OA
BRANCH  29  31
ATOM     30  C   UNL     1      10.243  -3.806  -0.115  0.00  0.00    +0.048 C 
ATOM     31  C   UNL     1       9.358  -2.558  -0.101  0.00  0.00    +0.226 C 
ENDBRANCH  29  31
ENDBRANCH  21  29
ENDBRANCH   1  25
BRANCH   3  32
ATOM     32  C   UNL     1       1.230  -4.574  -0.034  0.00  0.00    +0.262 C 
ATOM     33  O   UNL     1       0.050  -4.863  -0.024  0.00  0.00    -0.269 OA
ATOM     34  N   UNL     1       2.162  -5.548  -0.048  0.00  0.00    -0.324 N 
ATOM     35  H   UNL     1       3.104  -5.317  -0.056  0.00  0.00    +0.145 HD
ATOM     36  H   UNL     1       1.890  -6.479  -0.050  0.00  0.00    +0.145 HD
ENDBRANCH   3  32
TORSDOF 6
