REMARK  Name = ZINC20160102
REMARK  12 active torsions:
REMARK  status: ('A' for Active; 'I' for Inactive)
REMARK    1  A    between atoms: C_1  and  C_2
REMARK    2  A    between atoms: C_3  and  C_4
REMARK    3  A    between atoms: C_5  and  C_6
REMARK    4  A    between atoms: N_8  and  C_9
REMARK    5  A    between atoms: C_10  and  O_31
REMARK    6  A    between atoms: C_12  and  C_15
REMARK    7  A    between atoms: C_15  and  C_16
REMARK    8  A    between atoms: C_18  and  O_30
REMARK    9  A    between atoms: C_19  and  N_22
REMARK   10  A    between atoms: C_23  and  C_25
REMARK   11  A    between atoms: C_26  and  C_27
REMARK   12  A    between atoms: C_28  and  C_29
REMARK                            x       y       z     vdW  Elec       q    Type
REMARK                         _______ _______ _______ _____ _____    ______ ____
ROOT
ATOM      1  C   UNL     1      -3.549 -10.699  -0.374  0.00  0.00    +0.070 C 
ENDROOT
BRANCH   1   5
ATOM      2  C   UNL     1      -3.431  -6.436  -0.043  0.00  0.00    +0.076 A 
ATOM      3  C   UNL     1      -4.656  -7.095  -0.138  0.00  0.00    +0.138 A 
ATOM      4  C   UNL     1      -4.689  -8.475  -0.246  0.00  0.00    +0.051 A 
ATOM      5  C   UNL     1      -3.510  -9.197  -0.258  0.00  0.00    -0.039 A 
ATOM      6  C   UNL     1      -2.295  -8.545  -0.163  0.00  0.00    +0.006 A 
ATOM      7  C   UNL     1      -2.252  -7.167  -0.061  0.00  0.00    +0.027 A 
BRANCH   2  10
ATOM      8  C   UNL     1      -2.393  -4.348  -0.518  0.00  0.00    +0.241 C 
ATOM      9  O   UNL     1      -1.481  -4.939  -1.066  0.00  0.00    -0.270 OA
ATOM     10  N   UNL     1      -3.391  -5.041   0.066  0.00  0.00    -0.279 N 
ATOM     11  H   UNL     1      -4.081  -4.573   0.561  0.00  0.00    +0.155 HD
BRANCH   8  13
ATOM     12  C   UNL     1      -1.406  -2.191  -1.080  0.00  0.00    +0.005 C 
ATOM     13  C   UNL     1      -2.407  -2.886  -0.494  0.00  0.00    +0.067 C 
BRANCH  12  16
ATOM     14  C   UNL     1      -0.446   1.465  -1.608  0.00  0.00    +0.035 C 
ATOM     15  C   UNL     1      -0.432  -0.042  -1.633  0.00  0.00    -0.030 C 
ATOM     16  C   UNL     1      -1.420  -0.728  -1.055  0.00  0.00    -0.004 C 
ENDBRANCH  12  16
ENDBRANCH   8  13
ENDBRANCH   2  10
BRANCH   3  17
ATOM     17  O   UNL     1      -5.815  -6.384  -0.126  0.00  0.00    -0.505 OA
ATOM     18  H   UNL     1      -6.118  -6.110  -1.002  0.00  0.00    +0.292 HD
ENDBRANCH   3  17
ENDBRANCH   1   5
BRANCH   1  19
ATOM     19  C   UNL     1      -3.510 -11.092  -1.829  0.00  0.00    -0.039 A 
ATOM     20  C   UNL     1      -4.690 -11.231  -2.537  0.00  0.00    +0.051 A 
ATOM     21  C   UNL     1      -4.657 -11.591  -3.874  0.00  0.00    +0.138 A 
ATOM     22  C   UNL     1      -3.433 -11.812  -4.502  0.00  0.00    +0.076 A 
ATOM     23  C   UNL     1      -2.254 -11.671  -3.785  0.00  0.00    +0.027 A 
ATOM     24  C   UNL     1      -2.296 -11.306  -2.453  0.00  0.00    +0.006 A 
BRANCH  22  25
ATOM     25  N   UNL     1      -3.394 -12.177  -5.854  0.00  0.00    -0.279 N 
ATOM     26  C   UNL     1      -2.296 -11.915  -6.590  0.00  0.00    +0.241 C 
ATOM     27  O   UNL     1      -1.381 -11.272  -6.111  0.00  0.00    -0.270 OA
ATOM     28  H   UNL     1      -4.157 -12.618  -6.259  0.00  0.00    +0.155 HD
BRANCH  26  29
ATOM     29  C   UNL     1      -2.206 -12.402  -7.966  0.00  0.00    +0.067 C 
ATOM     30  C   UNL     1      -1.105 -12.139  -8.705  0.00  0.00    +0.005 C 
BRANCH  30  31
ATOM     31  C   UNL     1      -1.014 -12.628 -10.082  0.00  0.00    -0.004 C 
ATOM     32  C   UNL     1       0.072 -12.368 -10.811  0.00  0.00    -0.030 C 
ATOM     33  C   UNL     1       0.166 -12.871 -12.229  0.00  0.00    +0.035 C 
ENDBRANCH  30  31
ENDBRANCH  26  29
ENDBRANCH  22  25
BRANCH  21  34
ATOM     34  O   UNL     1      -5.817 -11.729  -4.571  0.00  0.00    -0.505 OA
ATOM     35  H   UNL     1      -6.116 -10.916  -5.002  0.00  0.00    +0.292 HD
ENDBRANCH  21  34
ENDBRANCH   1  19
TORSDOF 10
