REMARK  Name = ZINC35341233
REMARK  3 active torsions:
REMARK  status: ('A' for Active; 'I' for Inactive)
REMARK    1  A    between atoms: C_5  and  N_16
REMARK    2  A    between atoms: C_6  and  N_7
REMARK    3  A    between atoms: N_7  and  C_8
REMARK                            x       y       z     vdW  Elec       q    Type
REMARK                         _______ _______ _______ _____ _____    ______ ____
ROOT
ATOM      1  C   UNL     1      -0.017   1.382   0.010  0.00  0.00    +0.030 A 
ATOM      2  C   UNL     1       1.170   2.091   0.002  0.00  0.00    -0.024 A 
ATOM      3  C   UNL     1       2.384   1.417  -0.013  0.00  0.00    +0.038 A 
ATOM      4  C   UNL     1       2.409   0.029  -0.021  0.00  0.00    +0.048 A 
ATOM      5  C   UNL     1       1.220  -0.684  -0.013  0.00  0.00    +0.047 A 
ATOM      6  C   UNL     1       0.002  -0.004   0.002  0.00  0.00    +0.049 A 
ATOM      7  N   UNL     1       3.584   2.140  -0.021  0.00  0.00    -0.285 N 
ATOM      8  C   UNL     1       3.604   3.432   0.356  0.00  0.00    +0.218 C 
ATOM      9  O   UNL     1       4.648   4.048   0.330  0.00  0.00    -0.275 OA
ATOM     10  C   UNL     1       2.345   4.121   0.808  0.00  0.00    +0.101 C 
ATOM     11  C   UNL     1       1.149   3.598   0.010  0.00  0.00    +0.046 C 
ATOM     12  H   UNL     1       4.406   1.707  -0.300  0.00  0.00    +0.155 HD
ENDROOT
BRANCH   5  13
ATOM     13  N   UNL     1       1.242  -2.084  -0.020  0.00  0.00    -0.356 N 
ATOM     14  H   UNL     1       2.089  -2.555  -0.031  0.00  0.00    +0.142 HD
ATOM     15  H   UNL     1       0.410  -2.582  -0.014  0.00  0.00    +0.142 HD
ENDBRANCH   5  13
BRANCH   6  16
ATOM     16  N   UNL     1      -1.202  -0.722   0.009  0.00  0.00    -0.338 N 
ATOM     17  H   UNL     1      -1.189  -1.692   0.004  0.00  0.00    +0.146 HD
BRANCH  16  18
ATOM     18  C   UNL     1      -2.481  -0.008   0.025  0.00  0.00    +0.093 C 
ATOM     19  C   UNL     1      -2.876   0.318   1.475  0.00  0.00    +0.046 C 
ATOM     20  C   UNL     1      -4.353   0.777   1.529  0.00  0.00    +0.168 C 
ATOM     21  S   UNL     1      -5.099  -0.090   0.089  0.00  0.00    -0.029 S 
ATOM     22  O   UNL     1      -5.992  -1.089   0.562  0.00  0.00    -0.174 OA
ATOM     23  O   UNL     1      -5.562   0.877  -0.844  0.00  0.00    -0.174 OA
ATOM     24  C   UNL     1      -3.592  -0.906  -0.589  0.00  0.00    +0.188 C 
ENDBRANCH  16  18
ENDBRANCH   6  16
TORSDOF 3
