REMARK  Name = ZINC42407012
REMARK  2 active torsions:
REMARK  status: ('A' for Active; 'I' for Inactive)
REMARK    1  A    between atoms: C_5  and  C_8
REMARK    2  A    between atoms: C_17  and  C_20
REMARK                            x       y       z     vdW  Elec       q    Type
REMARK                         _______ _______ _______ _____ _____    ______ ____
ROOT
ATOM      1  C   UNL     1       0.678   1.049   0.748  0.00  0.00    +0.004 C 
ATOM      2  C   UNL     1       2.206   1.136   0.722  0.00  0.00    +0.019 C 
ATOM      3  C   UNL     1       2.691   1.100  -0.731  0.00  0.00    +0.110 C 
ATOM      4  N   UNL     1       2.143  -0.098  -1.382  0.00  0.00    -0.274 N 
ATOM      5  C   UNL     1       0.693  -0.326  -1.337  0.00  0.00    +0.163 C 
ATOM      6  C   UNL     1       0.230  -0.274   0.122  0.00  0.00    +0.032 C 
ATOM      7  C   UNL     1       2.957  -0.970  -2.010  0.00  0.00    +0.305 C 
ATOM      8  O   UNL     1       2.607  -2.124  -2.164  0.00  0.00    -0.252 OA
ATOM      9  N   UNL     1       4.158  -0.563  -2.466  0.00  0.00    -0.285 N 
ATOM     10  C   UNL     1       4.507   0.864  -2.486  0.00  0.00    +0.109 C 
ATOM     11  C   UNL     1       4.955   1.242  -3.901  0.00  0.00    +0.020 C 
ATOM     12  C   UNL     1       6.088   0.311  -4.338  0.00  0.00    +0.018 C 
ATOM     13  C   UNL     1       5.584  -1.134  -4.361  0.00  0.00    +0.119 C 
ATOM     14  C   UNL     1       5.146  -1.539  -2.946  0.00  0.00    +0.124 C 
ENDROOT
BRANCH   5  15
ATOM     15  C   UNL     1       0.375  -1.678  -1.923  0.00  0.00    +0.231 C 
ATOM     16  O   UNL     1       0.667  -2.686  -1.315  0.00  0.00    -0.274 OA
ATOM     17  N   UNL     1      -0.232  -1.767  -3.123  0.00  0.00    -0.328 N 
ATOM     18  H   UNL     1      -0.465  -0.961  -3.609  0.00  0.00    +0.145 HD
ATOM     19  H   UNL     1      -0.436  -2.637  -3.500  0.00  0.00    +0.145 HD
ENDBRANCH   5  15
BRANCH  13  20
ATOM     20  C   UNL     1       6.691  -2.045  -4.824  0.00  0.00    +0.361 C 
ATOM     21  O   UNL     1       7.783  -1.583  -5.110  0.00  0.00    -0.246 OA
ATOM     22  O   UNL     1       6.496  -3.245  -4.913  0.00  0.00    -0.246 OA
ENDBRANCH  13  20
TORSDOF 2
