REMARK  Name = ZINC35021845
REMARK  5 active torsions:
REMARK  status: ('A' for Active; 'I' for Inactive)
REMARK    1  A    between atoms: C_3  and  C_6
REMARK    2  A    between atoms: N_8  and  N_9
REMARK    3  A    between atoms: C_10  and  C_12
REMARK    4  A    between atoms: C_12  and  N_13
REMARK    5  A    between atoms: N_13  and  C_14
REMARK                            x       y       z     vdW  Elec       q    Type
REMARK                         _______ _______ _______ _____ _____    ______ ____
ROOT
ATOM      1  N   UNL     1       6.046   1.141  -0.050  0.00  0.00    -0.233 N 
ATOM      2  C   UNL     1       7.024   0.214  -0.065  0.00  0.00    +0.246 C 
ATOM      3  O   UNL     1       6.741  -0.965  -0.068  0.00  0.00    -0.273 OA
ATOM      4  H   UNL     1       6.272   2.085  -0.048  0.00  0.00    +0.173 HD
ENDROOT
BRANCH   1   7
ATOM      5  C   UNL     1       3.725   1.670  -0.025  0.00  0.00    +0.267 C 
ATOM      6  O   UNL     1       4.008   2.853  -0.022  0.00  0.00    -0.268 OA
ATOM      7  N   UNL     1       4.703   0.743  -0.039  0.00  0.00    -0.230 N 
ATOM      8  H   UNL     1       4.477  -0.201  -0.042  0.00  0.00    +0.173 HD
BRANCH   5  11
ATOM      9  C   UNL     1      -0.016   1.352   0.009  0.00  0.00    +0.008 A 
ATOM     10  C   UNL     1       1.175   2.036   0.002  0.00  0.00    +0.021 A 
ATOM     11  C   UNL     1       2.320   1.253  -0.013  0.00  0.00    +0.075 A 
ATOM     12  S   UNL     1       1.636  -0.394  -0.016  0.00  0.00    -0.092 S 
ATOM     13  C   UNL     1       0.002  -0.004   0.002  0.00  0.00    +0.046 A 
ENDBRANCH   5  11
ENDBRANCH   1   7
BRANCH   2  14
ATOM     14  C   UNL     1       8.469   0.643  -0.076  0.00  0.00    +0.199 C 
BRANCH  14  15
ATOM     15  N   UNL     1       9.330  -0.542  -0.091  0.00  0.00    -0.330 N 
ATOM     16  H   UNL     1       8.935  -1.428  -0.091  0.00  0.00    +0.147 HD
BRANCH  15  17
ATOM     17  C   UNL     1      10.729  -0.395  -0.104  0.00  0.00    +0.112 A 
ATOM     18  C   UNL     1      11.295   0.865  -0.097  0.00  0.00    +0.142 A 
ATOM     19  N   UNL     1      12.623   0.972  -0.110  0.00  0.00    -0.229 NA
ATOM     20  C   UNL     1      13.387  -0.089  -0.128  0.00  0.00    +0.180 A 
ATOM     21  N   UNL     1      12.913  -1.375  -0.136  0.00  0.00    -0.261 N 
ATOM     22  C   UNL     1      11.555  -1.525  -0.117  0.00  0.00    +0.280 A 
ATOM     23  O   UNL     1      11.063  -2.643  -0.118  0.00  0.00    -0.265 OA
ATOM     24  C   UNL     1      13.851  -2.380  -0.156  0.00  0.00    +0.104 A 
ATOM     25  C   UNL     1      15.155  -2.104  -0.167  0.00  0.00    +0.067 A 
ATOM     26  S   UNL     1      15.152  -0.319  -0.149  0.00  0.00    -0.058 S 
ENDBRANCH  15  17
ENDBRANCH  14  15
ENDBRANCH   2  14
TORSDOF 5
