REMARK  Name = ZINC60370712
REMARK  8 active torsions:
REMARK  status: ('A' for Active; 'I' for Inactive)
REMARK    1  A    between atoms: C_1  and  C_2
REMARK    2  A    between atoms: C_4  and  O_23
REMARK    3  A    between atoms: C_5  and  O_21
REMARK    4  A    between atoms: C_7  and  N_8
REMARK    5  A    between atoms: N_11  and  C_12
REMARK    6  A    between atoms: C_18  and  O_20
REMARK    7  A    between atoms: O_21  and  C_22
REMARK    8  A    between atoms: O_23  and  C_24
REMARK                            x       y       z     vdW  Elec       q    Type
REMARK                         _______ _______ _______ _____ _____    ______ ____
ROOT
ATOM      1  N   UNL     1       0.025  -0.009   2.417  0.00  0.00    -0.269 N 
ATOM      2  C   UNL     1      -0.056  -0.685   3.580  0.00  0.00    +0.304 C 
ATOM      3  O   UNL     1      -0.040  -1.901   3.578  0.00  0.00    -0.252 OA
ATOM      4  N   UNL     1      -0.155  -0.015   4.745  0.00  0.00    -0.294 N 
ATOM      5  H   UNL     1       0.079   0.960   2.423  0.00  0.00    +0.156 HD
ATOM      6  H   UNL     1      -0.168   0.956   4.746  0.00  0.00    +0.151 HD
ENDROOT
BRANCH   1  13
ATOM      7  C   UNL     1      -1.264   1.184   0.183  0.00  0.00    +0.046 C 
ATOM      8  C   UNL     1      -0.585  -0.158   0.085  0.00  0.00    -0.026 A 
ATOM      9  C   UNL     1      -0.572  -0.840  -1.117  0.00  0.00    +0.054 A 
ATOM     10  C   UNL     1       0.051  -2.073  -1.210  0.00  0.00    +0.162 A 
ATOM     11  C   UNL     1       0.667  -2.626  -0.091  0.00  0.00    +0.163 A 
ATOM     12  C   UNL     1       0.655  -1.943   1.113  0.00  0.00    +0.073 A 
ATOM     13  C   UNL     1       0.034  -0.704   1.201  0.00  0.00    +0.041 A 
BRANCH  11  14
ATOM     14  O   UNL     1       1.279  -3.837  -0.180  0.00  0.00    -0.491 OA
ATOM     15  C   UNL     1       1.891  -4.344   1.008  0.00  0.00    +0.277 C 
ENDBRANCH  11  14
BRANCH  10  16
ATOM     16  O   UNL     1       0.062  -2.743  -2.393  0.00  0.00    -0.491 OA
ATOM     17  C   UNL     1      -0.590  -2.116  -3.500  0.00  0.00    +0.277 C 
ENDBRANCH  10  16
ENDBRANCH   1  13
BRANCH   4  18
ATOM     18  C   UNL     1      -0.244  -0.750   6.009  0.00  0.00    +0.103 C 
ATOM     19  C   UNL     1      -1.701  -1.133   6.274  0.00  0.00    +0.025 C 
ATOM     20  C   UNL     1      -1.794  -1.902   7.594  0.00  0.00    +0.002 C 
ATOM     21  C   UNL     1      -1.282  -1.019   8.735  0.00  0.00    +0.003 C 
ATOM     22  C   UNL     1       0.175  -0.636   8.469  0.00  0.00    +0.033 C 
ATOM     23  C   UNL     1       0.268   0.132   7.149  0.00  0.00    +0.135 C 
BRANCH  23  24
ATOM     24  O   UNL     1       1.629   0.490   6.901  0.00  0.00    -0.390 OA
ATOM     25  H   UNL     1       2.019   1.051   7.585  0.00  0.00    +0.210 HD
ENDBRANCH  23  24
ENDBRANCH   4  18
TORSDOF 5
