REMARK  Name = ZINC57544081
REMARK  9 active torsions:
REMARK  status: ('A' for Active; 'I' for Inactive)
REMARK    1  A    between atoms: C_1  and  C_2
REMARK    2  A    between atoms: C_5  and  N_25
REMARK    3  A    between atoms: C_7  and  N_8
REMARK    4  A    between atoms: N_11  and  C_12
REMARK    5  A    between atoms: C_12  and  C_14
REMARK    6  A    between atoms: C_12  and  C_22
REMARK    7  A    between atoms: C_17  and  O_20
REMARK    8  A    between atoms: O_20  and  C_21
REMARK    9  A    between atoms: C_26  and  C_28
REMARK                            x       y       z     vdW  Elec       q    Type
REMARK                         _______ _______ _______ _____ _____    ______ ____
ROOT
ATOM      1  N   UNL     1       0.437  -0.233   2.348  0.00  0.00    -0.269 N 
ATOM      2  C   UNL     1       0.824  -0.933   3.432  0.00  0.00    +0.304 C 
ATOM      3  O   UNL     1       1.081  -2.117   3.332  0.00  0.00    -0.252 OA
ATOM      4  N   UNL     1       0.926  -0.321   4.628  0.00  0.00    -0.292 N 
ATOM      5  H   UNL     1       0.292   0.724   2.414  0.00  0.00    +0.156 HD
ATOM      6  H   UNL     1       0.721   0.624   4.708  0.00  0.00    +0.151 HD
ENDROOT
BRANCH   1  13
ATOM      7  C   UNL     1      -1.442   0.869   0.520  0.00  0.00    +0.045 C 
ATOM      8  C   UNL     1      -0.665  -0.383   0.203  0.00  0.00    -0.029 A 
ATOM      9  C   UNL     1      -0.852  -1.024  -1.006  0.00  0.00    +0.007 A 
ATOM     10  C   UNL     1      -0.141  -2.171  -1.300  0.00  0.00    +0.024 A 
ATOM     11  C   UNL     1       0.764  -2.684  -0.380  0.00  0.00    +0.035 A 
ATOM     12  C   UNL     1       0.954  -2.043   0.836  0.00  0.00    +0.047 A 
ATOM     13  C   UNL     1       0.243  -0.887   1.125  0.00  0.00    +0.039 A 
BRANCH  11  14
ATOM     14  N   UNL     1       1.483  -3.847  -0.678  0.00  0.00    -0.285 N 
ATOM     15  C   UNL     1       1.896  -4.080  -1.939  0.00  0.00    +0.220 C 
ATOM     16  O   UNL     1       1.574  -3.323  -2.832  0.00  0.00    -0.275 OA
ATOM     17  H   UNL     1       1.685  -4.486   0.024  0.00  0.00    +0.155 HD
BRANCH  15  18
ATOM     18  C   UNL     1       2.756  -5.279  -2.242  0.00  0.00    +0.075 C 
ATOM     19  C   UNL     1       4.209  -5.022  -2.649  0.00  0.00    +0.013 C 
ATOM     20  C   UNL     1       3.192  -5.488  -3.694  0.00  0.00    +0.013 C 
ENDBRANCH  15  18
ENDBRANCH  11  14
ENDBRANCH   1  13
BRANCH   4  21
ATOM     21  C   UNL     1       1.347  -1.081   5.807  0.00  0.00    +0.108 C 
BRANCH  21  22
ATOM     22  C   UNL     1       1.964  -0.146   6.815  0.00  0.00    -0.027 A 
ATOM     23  C   UNL     1       1.405   1.099   7.033  0.00  0.00    +0.009 A 
ATOM     24  C   UNL     1       1.968   1.959   7.956  0.00  0.00    +0.046 A 
ATOM     25  C   UNL     1       3.097   1.571   8.665  0.00  0.00    +0.120 A 
ATOM     26  C   UNL     1       3.656   0.321   8.444  0.00  0.00    +0.046 A 
ATOM     27  C   UNL     1       3.085  -0.537   7.524  0.00  0.00    +0.009 A 
BRANCH  25  28
ATOM     28  O   UNL     1       3.653   2.416   9.573  0.00  0.00    -0.495 OA
ATOM     29  C   UNL     1       4.814   1.950  10.265  0.00  0.00    +0.277 C 
ENDBRANCH  25  28
ENDBRANCH  21  22
BRANCH  21  30
ATOM     30  C   UNL     1       0.132  -1.772   6.429  0.00  0.00    +0.014 C 
ATOM     31  C   UNL     1       0.237  -3.272   6.708  0.00  0.00    +0.006 C 
ATOM     32  C   UNL     1      -0.637  -2.768   5.559  0.00  0.00    +0.006 C 
ENDBRANCH  21  30
ENDBRANCH   4  21
TORSDOF 7
