REMARK  Name = ZINC64959911
REMARK  4 active torsions:
REMARK  status: ('A' for Active; 'I' for Inactive)
REMARK    1  A    between atoms: C_1  and  C_2
REMARK    2  A    between atoms: C_9  and  C_15
REMARK    3  A    between atoms: N_17  and  C_18
REMARK    4  A    between atoms: C_23  and  C_24
REMARK                            x       y       z     vdW  Elec       q    Type
REMARK                         _______ _______ _______ _____ _____    ______ ____
ROOT
ATOM      1  C   UNL     1      -0.013   1.486  -0.022  0.00  0.00    +0.044 C 
ATOM      2  C   UNL     1       0.012  -0.020  -0.018  0.00  0.00    -0.049 A 
ATOM      3  C   UNL     1       0.027  -0.712  -1.216  0.00  0.00    +0.005 A 
ATOM      4  C   UNL     1       0.042  -2.095  -1.212  0.00  0.00    +0.030 A 
ATOM      5  C   UNL     1       0.046  -2.782  -0.016  0.00  0.00    +0.126 A 
ATOM      6  C   UNL     1       0.043  -2.098   1.192  0.00  0.00    +0.056 A 
ATOM      7  C   UNL     1       0.024  -0.704   1.179  0.00  0.00    +0.028 A 
ATOM      8  N   UNL     1       0.089  -2.757   2.417  0.00  0.00    -0.319 N 
ATOM      9  C   UNL     1      -0.321  -4.148   2.595  0.00  0.00    +0.247 C 
ATOM     10  N   UNL     1       0.346  -4.974   1.569  0.00  0.00    -0.161 NA
ATOM     11  S   UNL     1       0.045  -4.550  -0.016  0.00  0.00    +0.062 S 
ATOM     12  O   UNL     1      -1.281  -4.964  -0.313  0.00  0.00    -0.153 OA
ATOM     13  O   UNL     1       1.171  -4.965  -0.778  0.00  0.00    -0.153 OA
ATOM     14  H   UNL     1       0.410  -2.269   3.191  0.00  0.00    +0.148 HD
ATOM     15  H   UNL     1       0.923  -5.718   1.802  0.00  0.00    +0.151 HD
ENDROOT
BRANCH   9  16
ATOM     16  C   UNL     1      -1.816  -4.258   2.444  0.00  0.00    +0.254 C 
ATOM     17  O   UNL     1      -2.444  -3.346   1.949  0.00  0.00    -0.272 OA
ATOM     18  N   UNL     1      -2.456  -5.369   2.860  0.00  0.00    -0.282 N 
ATOM     19  H   UNL     1      -1.948  -6.129   3.182  0.00  0.00    +0.155 HD
BRANCH  18  20
ATOM     20  C   UNL     1      -3.848  -5.425   2.827  0.00  0.00    +0.046 A 
ATOM     21  C   UNL     1      -4.594  -4.255   2.884  0.00  0.00    +0.024 A 
ATOM     22  C   UNL     1      -5.973  -4.313   2.852  0.00  0.00    +0.002 A 
ATOM     23  C   UNL     1      -6.622  -5.534   2.762  0.00  0.00    +0.001 A 
ATOM     24  C   UNL     1      -5.897  -6.705   2.704  0.00  0.00    +0.015 A 
ATOM     25  C   UNL     1      -4.501  -6.662   2.730  0.00  0.00    +0.058 A 
BRANCH  25  26
ATOM     26  C   UNL     1      -3.719  -7.911   2.661  0.00  0.00    +0.243 C 
ATOM     27  O   UNL     1      -2.509  -7.878   2.780  0.00  0.00    -0.270 OA
ATOM     28  N   UNL     1      -4.345  -9.088   2.468  0.00  0.00    -0.325 N 
ATOM     29  H   UNL     1      -5.310  -9.115   2.373  0.00  0.00    +0.145 HD
ATOM     30  H   UNL     1      -3.831  -9.910   2.423  0.00  0.00    +0.145 HD
ENDBRANCH  25  26
ENDBRANCH  18  20
ENDBRANCH   9  16
TORSDOF 3
