REMARK  Name = ZINC51837902
REMARK  5 active torsions:
REMARK  status: ('A' for Active; 'I' for Inactive)
REMARK    1  A    between atoms: C_3  and  N_25
REMARK    2  A    between atoms: C_6  and  N_7
REMARK    3  A    between atoms: C_8  and  C_10
REMARK    4  A    between atoms: C_16  and  C_19
REMARK    5  A    between atoms: N_21  and  C_22
REMARK                            x       y       z     vdW  Elec       q    Type
REMARK                         _______ _______ _______ _____ _____    ______ ____
ROOT
ATOM      1  N   UNL     1      -1.314  -0.551   0.053  0.00  0.00    -0.278 N 
ATOM      2  C   UNL     1      -1.092  -1.877   0.149  0.00  0.00    +0.303 C 
ATOM      3  O   UNL     1       0.026  -2.290   0.378  0.00  0.00    -0.265 OA
ATOM      4  H   UNL     1      -2.217  -0.217  -0.062  0.00  0.00    +0.155 HD
ENDROOT
BRANCH   2   5
ATOM      5  C   UNL     1      -2.222  -2.837  -0.025  0.00  0.00    +0.302 C 
ATOM      6  O   UNL     1      -3.357  -2.425  -0.139  0.00  0.00    -0.265 OA
ATOM      7  N   UNL     1      -1.980  -4.163  -0.056  0.00  0.00    -0.293 N 
ATOM      8  C   UNL     1      -0.620  -4.681   0.145  0.00  0.00    +0.108 C 
ATOM      9  C   UNL     1      -0.263  -5.598  -1.030  0.00  0.00    +0.020 C 
ATOM     10  C   UNL     1      -1.334  -6.681  -1.170  0.00  0.00    +0.016 C 
ATOM     11  C   UNL     1      -2.688  -6.029  -1.461  0.00  0.00    +0.092 C 
ATOM     12  C   UNL     1      -3.073  -5.118  -0.286  0.00  0.00    +0.121 C 
BRANCH  11  13
ATOM     13  C   UNL     1      -3.736  -7.098  -1.632  0.00  0.00    +0.218 C 
ATOM     14  O   UNL     1      -3.430  -8.268  -1.531  0.00  0.00    -0.275 OA
ATOM     15  N   UNL     1      -5.012  -6.755  -1.897  0.00  0.00    -0.312 N 
ATOM     16  H   UNL     1      -5.256  -5.820  -1.977  0.00  0.00    +0.149 HD
BRANCH  15  17
ATOM     17  C   UNL     1      -6.030  -7.795  -2.063  0.00  0.00    +0.073 C 
ATOM     18  C   UNL     1      -7.019  -7.636  -3.220  0.00  0.00    +0.024 C 
ATOM     19  C   UNL     1      -7.484  -7.412  -1.780  0.00  0.00    +0.024 C 
ENDBRANCH  15  17
ENDBRANCH  11  13
ENDBRANCH   2   5
BRANCH   1  25
ATOM     20  C   UNL     1      -0.252   1.500  -0.653  0.00  0.00    +0.025 A 
ATOM     21  C   UNL     1       0.806   2.383  -0.588  0.00  0.00    +0.025 A 
ATOM     22  C   UNL     1       1.883   2.116   0.248  0.00  0.00    +0.038 A 
ATOM     23  C   UNL     1       1.894   0.961   1.020  0.00  0.00    +0.025 A 
ATOM     24  C   UNL     1       0.836   0.078   0.955  0.00  0.00    +0.025 A 
ATOM     25  C   UNL     1      -0.241   0.344   0.118  0.00  0.00    +0.034 A 
BRANCH  22  26
ATOM     26  N   UNL     1       2.957   3.013   0.314  0.00  0.00    -0.254 N 
ATOM     27  C   UNL     1       4.099   2.908   1.234  0.00  0.00    +0.134 C 
ATOM     28  C   UNL     1       4.968   4.132   0.885  0.00  0.00    +0.125 C 
ATOM     29  N   UNL     1       4.223   4.796  -0.195  0.00  0.00    -0.297 N 
ATOM     30  C   UNL     1       3.111   4.098  -0.456  0.00  0.00    +0.307 C 
ATOM     31  O   UNL     1       2.310   4.422  -1.312  0.00  0.00    -0.252 OA
ATOM     32  H   UNL     1       4.497   5.609  -0.649  0.00  0.00    +0.150 HD
ENDBRANCH  22  26
ENDBRANCH   1  25
TORSDOF 5
