REMARK  Name = ZINC01430909
REMARK  6 active torsions:
REMARK  status: ('A' for Active; 'I' for Inactive)
REMARK    1  A    between atoms: C_5  and  C_7
REMARK    2  A    between atoms: C_7  and  S_8
REMARK    3  A    between atoms: S_8  and  C_9
REMARK    4  A    between atoms: C_16  and  N_28
REMARK    5  A    between atoms: C_17  and  C_26
REMARK    6  A    between atoms: C_18  and  C_20
REMARK                            x       y       z     vdW  Elec       q    Type
REMARK                         _______ _______ _______ _____ _____    ______ ____
ROOT
ATOM      1  C   UNL     1      -5.686   1.321   1.139  0.00  0.00    +0.193 A 
ATOM      2  N   UNL     1      -5.840   2.637   1.179  0.00  0.00    -0.207 NA
ATOM      3  C   UNL     1      -4.842   3.448   0.835  0.00  0.00    +0.128 A 
ATOM      4  C   UNL     1      -3.631   2.891   0.431  0.00  0.00    +0.067 A 
ATOM      5  C   UNL     1      -3.507   1.512   0.402  0.00  0.00    +0.232 A 
ATOM      6  N   UNL     1      -4.547   0.762   0.760  0.00  0.00    -0.186 NA
ATOM      7  O   UNL     1      -2.351   0.927   0.018  0.00  0.00    -0.423 OA
ATOM      8  C   UNL     1      -1.209   1.636   0.017  0.00  0.00    +0.200 C 
ATOM      9  C   UNL     1      -1.202   2.990   0.029  0.00  0.00    +0.098 C 
ATOM     10  C   UNL     1      -2.483   3.777   0.034  0.00  0.00    +0.104 C 
ATOM     11  N   UNL     1      -5.006   4.823   0.876  0.00  0.00    -0.343 N 
ATOM     12  H   UNL     1      -5.853   5.203   1.158  0.00  0.00    +0.144 HD
ATOM     13  H   UNL     1      -4.273   5.407   0.624  0.00  0.00    +0.144 HD
ENDROOT
BRANCH  10  14
ATOM     14  C   UNL     1      -2.735   4.334  -1.343  0.00  0.00    -0.016 A 
ATOM     15  C   UNL     1      -2.818   5.704  -1.542  0.00  0.00    +0.007 A 
ATOM     16  C   UNL     1      -3.050   6.171  -2.826  0.00  0.00    +0.020 A 
ATOM     17  C   UNL     1      -3.192   5.263  -3.859  0.00  0.00    +0.111 A 
ATOM     18  N   UNL     1      -3.107   3.966  -3.632  0.00  0.00    -0.263 NA
ATOM     19  C   UNL     1      -2.881   3.486  -2.425  0.00  0.00    +0.115 A 
ENDBRANCH  10  14
BRANCH   8  20
ATOM     20  N   UNL     1      -0.011   0.966   0.007  0.00  0.00    -0.328 N 
ATOM     21  H   UNL     1       0.002  -0.004   0.002  0.00  0.00    +0.145 HD
ATOM     22  H   UNL     1       0.822   1.462   0.002  0.00  0.00    +0.145 HD
ENDBRANCH   8  20
BRANCH   9  23
ATOM     23  C   UNL     1       0.049   3.685   0.034  0.00  0.00    +0.101 C 
ATOM     24  N   UNL     1       1.042   4.237   0.037  0.00  0.00    -0.191 NA
ENDBRANCH   9  23
BRANCH   1  25
ATOM     25  S   UNL     1      -7.035   0.287   1.604  0.00  0.00    -0.081 S 
BRANCH  25  26
ATOM     26  C   UNL     1      -8.271   1.546   2.010  0.00  0.00    +0.114 C 
BRANCH  26  31
ATOM     27  C   UNL     1     -10.921  -0.040   4.181  0.00  0.00    +0.000 A 
ATOM     28  C   UNL     1     -11.890  -0.358   3.248  0.00  0.00    +0.001 A 
ATOM     29  C   UNL     1     -11.688  -0.060   1.913  0.00  0.00    +0.020 A 
ATOM     30  C   UNL     1     -10.519   0.561   1.512  0.00  0.00    +0.045 A 
ATOM     31  C   UNL     1      -9.548   0.874   2.446  0.00  0.00    -0.019 A 
ATOM     32  C   UNL     1      -9.750   0.576   3.781  0.00  0.00    +0.006 A 
ATOM     33 CL   UNL     1     -10.268   0.942  -0.163  0.00  0.00    -0.083 Cl
ENDBRANCH  26  31
ENDBRANCH  25  26
ENDBRANCH   1  25
TORSDOF 6
