REMARK  Name = ZINC66241533
REMARK  6 active torsions:
REMARK  status: ('A' for Active; 'I' for Inactive)
REMARK    1  A    between atoms: C_5  and  C_7
REMARK    2  A    between atoms: C_10  and  N_12
REMARK    3  A    between atoms: C_13  and  C_15
REMARK    4  A    between atoms: C_18  and  N_21
REMARK    5  A    between atoms: C_22  and  N_28
REMARK    6  A    between atoms: C_23  and  C_26
REMARK                            x       y       z     vdW  Elec       q    Type
REMARK                         _______ _______ _______ _____ _____    ______ ____
ROOT
ATOM      1  C   UNL     1       1.620  -5.836   3.337  0.00  0.00    +0.037 A 
ATOM      2  C   UNL     1       2.393  -6.597   2.456  0.00  0.00    +0.015 A 
ATOM      3  C   UNL     1       2.967  -7.772   2.886  0.00  0.00    +0.028 A 
ATOM      4  C   UNL     1       2.778  -8.202   4.196  0.00  0.00    +0.067 A 
ATOM      5  C   UNL     1       2.009  -7.447   5.074  0.00  0.00    +0.028 A 
ATOM      6  C   UNL     1       1.436  -6.268   4.652  0.00  0.00    +0.015 A 
ENDROOT
BRANCH   4   7
ATOM      7  N   UNL     1       3.361  -9.396   4.629  0.00  0.00    -0.218 N 
ATOM      8  C   UNL     1       3.847  -9.638   5.874  0.00  0.00    +0.137 A 
ATOM      9  C   UNL     1       4.334 -10.942   5.875  0.00  0.00    +0.111 A 
ATOM     10  C   UNL     1       4.119 -11.466   4.578  0.00  0.00    +0.155 A 
ATOM     11  N   UNL     1       3.541 -10.548   3.855  0.00  0.00    -0.172 NA
BRANCH   8  12
ATOM     12  N   UNL     1       3.855  -8.757   6.938  0.00  0.00    -0.342 N 
ATOM     13  H   UNL     1       3.489  -7.865   6.832  0.00  0.00    +0.144 HD
ATOM     14  H   UNL     1       4.228  -9.031   7.791  0.00  0.00    +0.144 HD
ENDBRANCH   8  12
BRANCH   9  15
ATOM     15  C   UNL     1       4.939 -11.624   6.979  0.00  0.00    +0.104 C 
ATOM     16  N   UNL     1       5.418 -12.166   7.855  0.00  0.00    -0.191 NA
ENDBRANCH   9  15
ENDBRANCH   4   7
BRANCH   1  18
ATOM     17  N   UNL     1       1.181  -4.160   1.609  0.00  0.00    -0.308 N 
ATOM     18  C   UNL     1       1.003  -4.575   2.879  0.00  0.00    +0.244 C 
ATOM     19  O   UNL     1       0.335  -3.911   3.648  0.00  0.00    -0.270 OA
ATOM     20  H   UNL     1       1.715  -4.689   0.996  0.00  0.00    +0.149 HD
BRANCH  17  23
ATOM     21  C   UNL     1       1.229  -2.186  -0.022  0.00  0.00    +0.042 C 
ATOM     22  C   UNL     1      -0.105  -2.909  -0.219  0.00  0.00    +0.033 C 
ATOM     23  C   UNL     1       0.570  -2.908   1.155  0.00  0.00    +0.081 C 
BRANCH  21  28
ATOM     24  C   UNL     1      -0.017   1.378   0.010  0.00  0.00    +0.000 A 
ATOM     25  C   UNL     1       1.171   2.086   0.002  0.00  0.00    +0.001 A 
ATOM     26  C   UNL     1       2.377   1.412  -0.013  0.00  0.00    +0.020 A 
ATOM     27  C   UNL     1       2.397   0.029  -0.021  0.00  0.00    +0.044 A 
ATOM     28  C   UNL     1       1.208  -0.679  -0.013  0.00  0.00    -0.024 A 
ATOM     29  C   UNL     1       0.002  -0.004   0.002  0.00  0.00    +0.005 A 
ATOM     30 CL   UNL     1       3.912  -0.818  -0.041  0.00  0.00    -0.083 Cl
ENDBRANCH  21  28
ENDBRANCH  17  23
ENDBRANCH   1  18
TORSDOF 6
