REMARK  Name = ZINC40166783
REMARK  5 active torsions:
REMARK  status: ('A' for Active; 'I' for Inactive)
REMARK    1  A    between atoms: C_3  and  N_8
REMARK    2  A    between atoms: C_6  and  N_7
REMARK    3  A    between atoms: N_8  and  C_9
REMARK    4  A    between atoms: C_9  and  N_11
REMARK    5  A    between atoms: N_11  and  C_12
REMARK                            x       y       z     vdW  Elec       q    Type
REMARK                         _______ _______ _______ _____ _____    ______ ____
ROOT
ATOM      1  N   UNL     1       3.585   2.131  -0.022  0.00  0.00    -0.297 N 
ATOM      2  H   UNL     1       3.573   3.097  -0.098  0.00  0.00    +0.154 HD
ENDROOT
BRANCH   1   5
ATOM      3  C   UNL     1       1.030  -0.350   0.902  0.00  0.00    +0.024 A 
ATOM      4  C   UNL     1       2.217   0.356   0.882  0.00  0.00    +0.025 A 
ATOM      5  C   UNL     1       2.381   1.414  -0.002  0.00  0.00    +0.033 A 
ATOM      6  C   UNL     1       1.351   1.763  -0.866  0.00  0.00    +0.025 A 
ATOM      7  C   UNL     1       0.164   1.058  -0.846  0.00  0.00    +0.024 A 
ATOM      8  C   UNL     1       0.001  -0.001   0.038  0.00  0.00    +0.025 A 
BRANCH   8   9
ATOM      9  N   UNL     1      -1.202  -0.716   0.058  0.00  0.00    -0.358 N 
ATOM     10  H   UNL     1      -1.316  -1.455   0.676  0.00  0.00    +0.142 HD
ATOM     11  H   UNL     1      -1.921  -0.472  -0.545  0.00  0.00    +0.142 HD
ENDBRANCH   8   9
ENDBRANCH   1   5
BRANCH   1  12
ATOM     12  C   UNL     1       4.760   1.476   0.064  0.00  0.00    +0.135 C 
ATOM     13  S   UNL     1       4.789  -0.236   0.056  0.00  0.00    -0.019 S 
BRANCH  12  14
ATOM     14  N   UNL     1       5.912   2.169   0.158  0.00  0.00    -0.318 N 
ATOM     15  H   UNL     1       5.896   3.139   0.163  0.00  0.00    +0.148 HD
BRANCH  14  16
ATOM     16  C   UNL     1       7.189   1.458   0.252  0.00  0.00    +0.118 C 
ATOM     17  C   UNL     1       8.321   2.362  -0.305  0.00  0.00    +0.197 C 
ATOM     18  S   UNL     1       9.666   1.875   0.857  0.00  0.00    -0.008 S 
ATOM     19  O   UNL     1      10.322   3.018   1.387  0.00  0.00    -0.170 OA
ATOM     20  O   UNL     1      10.398   0.765   0.355  0.00  0.00    -0.170 OA
ATOM     21  C   UNL     1       8.653   1.236   2.179  0.00  0.00    +0.132 C 
ATOM     22  C   UNL     1       7.453   1.105   1.681  0.00  0.00    +0.015 C 
ENDBRANCH  14  16
ENDBRANCH  12  14
ENDBRANCH   1  12
TORSDOF 5
