REMARK  Name = ZINC31164070
REMARK  8 active torsions:
REMARK  status: ('A' for Active; 'I' for Inactive)
REMARK    1  A    between atoms: C_1  and  C_2
REMARK    2  A    between atoms: C_2  and  C_22
REMARK    3  A    between atoms: C_6  and  C_21
REMARK    4  A    between atoms: C_9  and  O_20
REMARK    5  A    between atoms: C_12  and  C_18
REMARK    6  A    between atoms: C_13  and  C_14
REMARK    7  A    between atoms: C_13  and  O_17
REMARK    8  A    between atoms: C_18  and  O_19
REMARK                            x       y       z     vdW  Elec       q    Type
REMARK                         _______ _______ _______ _____ _____    ______ ____
ROOT
ATOM      1  C   UNL     1      -2.252   1.486  -1.151  0.00  0.00    +0.011 C 
ATOM      2  C   UNL     1      -1.817   0.002  -1.116  0.00  0.00    -0.029 C 
ATOM      3  C   UNL     1      -3.098  -0.810  -1.315  0.00  0.00    +0.007 C 
ATOM      4  C   UNL     1      -2.853  -2.295  -1.064  0.00  0.00    +0.001 C 
ATOM      5  C   UNL     1      -2.399  -2.462   0.389  0.00  0.00    +0.011 C 
ATOM      6  C   UNL     1      -1.063  -1.751   0.597  0.00  0.00    +0.017 C 
ATOM      7  C   UNL     1      -1.147  -0.275   0.218  0.00  0.00    +0.037 C 
ATOM      8  C   UNL     1       0.248   0.347   0.295  0.00  0.00    +0.142 C 
ATOM      9  C   UNL     1       0.943  -0.061   1.566  0.00  0.00    +0.009 C 
ATOM     10  C   UNL     1       0.550  -1.017   2.339  0.00  0.00    -0.003 C 
ATOM     11  C   UNL     1      -0.662  -1.863   2.077  0.00  0.00    +0.196 C 
ATOM     12  C   UNL     1       0.019  -2.478  -0.220  0.00  0.00    +0.015 C 
ATOM     13  C   UNL     1      -0.891  -0.226  -2.309  0.00  0.00    +0.011 C 
ENDROOT
BRANCH  11  14
ATOM     14  C   UNL     1      -1.770  -1.422   2.990  0.00  0.00    +0.392 C 
ATOM     15  O   UNL     1      -2.607  -0.646   2.594  0.00  0.00    -0.243 OA
ATOM     16  O   UNL     1      -1.831  -1.891   4.246  0.00  0.00    -0.243 OA
ENDBRANCH  11  14
BRANCH  11  17
ATOM     17  O   UNL     1      -0.336  -3.228   2.361  0.00  0.00    -0.373 OA
ATOM     18  H   UNL     1      -0.022  -3.519   3.374  0.00  0.00    +0.211 HD
ENDBRANCH  11  17
BRANCH   8  19
ATOM     19  O   UNL     1       0.154   1.776   0.306  0.00  0.00    -0.387 OA
ATOM     20  H   UNL     1       1.068   2.387   0.359  0.00  0.00    +0.210 HD
ENDBRANCH   8  19
BRANCH  10  21
ATOM     21  C   UNL     1       1.354  -1.305   3.581  0.00  0.00    +0.190 C 
BRANCH  21  22
ATOM     22  O   UNL     1       2.459  -0.402   3.653  0.00  0.00    -0.391 OA
ATOM     23  H   UNL     1       3.163  -0.461   4.497  0.00  0.00    +0.210 HD
ENDBRANCH  21  22
ENDBRANCH  10  21
TORSDOF 5
