REMARK  Name = ZINC06607320
REMARK  6 active torsions:
REMARK  status: ('A' for Active; 'I' for Inactive)
REMARK    1  A    between atoms: C_1  and  O_2
REMARK    2  A    between atoms: O_2  and  C_3
REMARK    3  A    between atoms: C_8  and  C_9
REMARK    4  A    between atoms: C_11  and  C_14
REMARK    5  A    between atoms: C_14  and  S_15
REMARK    6  A    between atoms: S_15  and  C_16
REMARK                            x       y       z     vdW  Elec       q    Type
REMARK                         _______ _______ _______ _____ _____    ______ ____
ROOT
ATOM      1  C   UNL     1      -0.011  -2.830  -0.013  0.00  0.00    +0.112 A 
ATOM      2  N   UNL     1       0.148  -4.146  -0.027  0.00  0.00    -0.243 NA
ATOM      3  C   UNL     1       1.344  -4.688  -0.041  0.00  0.00    +0.059 A 
ATOM      4  C   UNL     1       2.447  -3.894  -0.041  0.00  0.00    +0.071 A 
ATOM      5  S   UNL     1       1.689  -2.275  -0.027  0.00  0.00    -0.075 S 
ENDROOT
BRANCH   1  11
ATOM      6  C   UNL     1      -1.200  -0.637   0.010  0.00  0.00    +0.130 A 
ATOM      7  C   UNL     1      -2.373   0.099   0.019  0.00  0.00    +0.047 A 
ATOM      8  C   UNL     1      -3.596  -0.545   0.028  0.00  0.00    +0.019 A 
ATOM      9  C   UNL     1      -3.657  -1.929   0.027  0.00  0.00    +0.019 A 
ATOM     10  C   UNL     1      -2.497  -2.676   0.018  0.00  0.00    +0.029 A 
ATOM     11  C   UNL     1      -1.257  -2.036   0.003  0.00  0.00    +0.050 A 
ATOM     12 BR   UNL     1      -5.337  -2.798   0.038  0.00  0.00    -0.050 Br
BRANCH   6  14
ATOM     13  C   UNL     1      -0.017   1.425   0.010  0.00  0.00    +0.277 C 
ATOM     14  O   UNL     1       0.002  -0.004   0.002  0.00  0.00    -0.494 OA
ENDBRANCH   6  14
ENDBRANCH   1  11
BRANCH   3  15
ATOM     15  C   UNL     1       1.493  -6.188  -0.056  0.00  0.00    +0.133 C 
BRANCH  15  16
ATOM     16  S   UNL     1       1.541  -6.773  -1.772  0.00  0.00    -0.078 S 
BRANCH  16  17
ATOM     17  C   UNL     1       1.716  -8.520  -1.622  0.00  0.00    +0.210 A 
ATOM     18  N   UNL     1       1.801  -9.383  -2.641  0.00  0.00    -0.188 NA
ATOM     19  C   UNL     1       1.924 -10.607  -2.174  0.00  0.00    +0.209 A 
ATOM     20  N   UNL     1       1.919 -10.542  -0.826  0.00  0.00    -0.246 N 
ATOM     21  H   UNL     1       1.995 -11.287  -0.209  0.00  0.00    +0.192 HD
ATOM     22  N   UNL     1       1.789  -9.184  -0.494  0.00  0.00    -0.144 NA
ATOM     23  N   UNL     1       2.038 -11.759  -2.932  0.00  0.00    -0.328 N 
ATOM     24  H   UNL     1       2.031 -11.705  -3.900  0.00  0.00    +0.145 HD
ATOM     25  H   UNL     1       2.125 -12.620  -2.495  0.00  0.00    +0.145 HD
ENDBRANCH  16  17
ENDBRANCH  15  16
ENDBRANCH   3  15
TORSDOF 5
