REMARK  Name = ZINC59021203
REMARK  13 active torsions:
REMARK  status: ('A' for Active; 'I' for Inactive)
REMARK    1  A    between atoms: C_1  and  C_2
REMARK    2  A    between atoms: C_2  and  N_3
REMARK    3  A    between atoms: N_3  and  C_4
REMARK    4  A    between atoms: N_3  and  C_6
REMARK    5  A    between atoms: C_4  and  C_5
REMARK    6  A    between atoms: C_9  and  N_12
REMARK    7  A    between atoms: C_13  and  C_15
REMARK    8  A    between atoms: C_15  and  S_16
REMARK    9  A    between atoms: S_16  and  C_17
REMARK   10  A    between atoms: N_22  and  N_23
REMARK   11  A    between atoms: C_24  and  C_25
REMARK   12  A    between atoms: C_24  and  C_26
REMARK   13  A    between atoms: C_29  and  C_32
REMARK                            x       y       z     vdW  Elec       q    Type
REMARK                         _______ _______ _______ _____ _____    ______ ____
ROOT
ATOM      1  S   UNL     1      -3.375  -9.084   2.313  0.00  0.00    -0.075 S 
ENDROOT
BRANCH   1   2
ATOM      2  C   UNL     1      -3.319 -10.838   2.161  0.00  0.00    +0.211 A 
ATOM      3  N   UNL     1      -4.014 -11.705   2.905  0.00  0.00    -0.186 NA
ATOM      4  C   UNL     1      -3.736 -12.935   2.528  0.00  0.00    +0.232 A 
ATOM      5  N   UNL     1      -2.842 -12.869   1.518  0.00  0.00    -0.245 N 
ATOM      6  N   UNL     1      -2.593 -11.505   1.296  0.00  0.00    -0.144 NA
ATOM      7  N   UNL     1      -4.266 -14.092   3.070  0.00  0.00    -0.205 N 
ATOM      8  H   UNL     1      -3.998 -14.957   2.724  0.00  0.00    +0.177 HD
ATOM      9  H   UNL     1      -2.451 -13.617   1.038  0.00  0.00    +0.192 HD
BRANCH   7  10
ATOM     10  N   UNL     1      -5.189 -14.013   4.121  0.00  0.00    -0.184 NA
ATOM     11  C   UNL     1      -5.611 -15.098   4.697  0.00  0.00    +0.063 C 
ATOM     12  C   UNL     1      -6.694 -15.023   5.742  0.00  0.00    +0.068 C 
BRANCH  11  13
ATOM     13  C   UNL     1      -5.030 -16.402   4.328  0.00  0.00    -0.003 A 
ATOM     14  C   UNL     1      -3.674 -16.654   4.550  0.00  0.00    +0.010 A 
ATOM     15  C   UNL     1      -3.138 -17.876   4.203  0.00  0.00    +0.004 A 
ATOM     16  C   UNL     1      -3.939 -18.852   3.636  0.00  0.00    -0.050 A 
ATOM     17  C   UNL     1      -5.283 -18.609   3.414  0.00  0.00    +0.004 A 
ATOM     18  C   UNL     1      -5.834 -17.393   3.761  0.00  0.00    +0.010 A 
ATOM     19  C   UNL     1      -3.345 -20.185   3.260  0.00  0.00    +0.044 C 
ENDBRANCH  11  13
ENDBRANCH   7  10
ENDBRANCH   1   2
BRANCH   1  20
ATOM     20  C   UNL     1      -2.232  -8.495   1.034  0.00  0.00    +0.173 C 
BRANCH  20  22
ATOM     21  N   UNL     1      -1.396  -6.327   0.186  0.00  0.00    -0.285 N 
ATOM     22  C   UNL     1      -2.185  -6.989   1.056  0.00  0.00    +0.227 C 
ATOM     23  O   UNL     1      -2.857  -6.373   1.855  0.00  0.00    -0.275 OA
ATOM     24  H   UNL     1      -0.910  -6.815  -0.497  0.00  0.00    +0.155 HD
BRANCH  21  28
ATOM     25  C   UNL     1      -1.047  -2.183   0.430  0.00  0.00    +0.014 A 
ATOM     26  C   UNL     1      -1.205  -2.931   1.582  0.00  0.00    +0.023 A 
ATOM     27  C   UNL     1      -1.321  -4.305   1.505  0.00  0.00    +0.025 A 
ATOM     28  C   UNL     1      -1.280  -4.935   0.268  0.00  0.00    +0.034 A 
ATOM     29  C   UNL     1      -1.122  -4.181  -0.887  0.00  0.00    +0.025 A 
ATOM     30  C   UNL     1      -1.011  -2.807  -0.803  0.00  0.00    +0.023 A 
BRANCH  25  31
ATOM     31  N   UNL     1      -0.930  -0.792   0.512  0.00  0.00    -0.394 NA
ATOM     32  H   UNL     1      -0.827  -0.408  -0.415  0.00  0.00    +0.126 HD
BRANCH  31  34
ATOM     33  C   UNL     1      -3.346  -0.496   0.244  0.00  0.00    +0.022 C 
ATOM     34  C   UNL     1      -2.135  -0.235   1.142  0.00  0.00    +0.081 C 
ENDBRANCH  31  34
BRANCH  31  35
ATOM     35  C   UNL     1       0.248  -0.446   1.318  0.00  0.00    +0.081 C 
ATOM     36  C   UNL     1       1.512  -0.947   0.616  0.00  0.00    +0.022 C 
ENDBRANCH  31  35
ENDBRANCH  25  31
ENDBRANCH  21  28
ENDBRANCH  20  22
ENDBRANCH   1  20
TORSDOF 9
