REMARK  Name = ZINC04261071
REMARK  7 active torsions:
REMARK  status: ('A' for Active; 'I' for Inactive)
REMARK    1  A    between atoms: C_4  and  O_30
REMARK    2  A    between atoms: C_5  and  C_7
REMARK    3  A    between atoms: N_8  and  N_9
REMARK    4  A    between atoms: C_10  and  C_12
REMARK    5  A    between atoms: N_14  and  C_15
REMARK    6  A    between atoms: C_20  and  C_21
REMARK    7  A    between atoms: N_23  and  C_24
REMARK                            x       y       z     vdW  Elec       q    Type
REMARK                         _______ _______ _______ _____ _____    ______ ____
ROOT
ATOM      1  C   UNL     1       3.783  -6.326   0.491  0.00  0.00    +0.305 C 
ATOM      2  O   UNL     1       2.891  -6.950   1.029  0.00  0.00    -0.265 OA
ATOM      3  N   UNL     1       4.802  -6.980  -0.100  0.00  0.00    -0.277 N 
ATOM      4  H   UNL     1       5.479  -6.485  -0.586  0.00  0.00    +0.155 HD
ENDROOT
BRANCH   3   5
ATOM      5  C   UNL     1       4.883  -8.366  -0.011  0.00  0.00    +0.046 A 
ATOM      6  C   UNL     1       3.726  -9.135  -0.015  0.00  0.00    +0.024 A 
ATOM      7  C   UNL     1       3.808 -10.510   0.073  0.00  0.00    +0.002 A 
ATOM      8  C   UNL     1       5.042 -11.134   0.166  0.00  0.00    +0.001 A 
ATOM      9  C   UNL     1       6.201 -10.387   0.171  0.00  0.00    +0.015 A 
ATOM     10  C   UNL     1       6.134  -8.996   0.076  0.00  0.00    +0.058 A 
BRANCH  10  11
ATOM     11  C   UNL     1       7.371  -8.192   0.075  0.00  0.00    +0.246 C 
ATOM     12  O   UNL     1       7.306  -6.978   0.096  0.00  0.00    -0.270 OA
ATOM     13  N   UNL     1       8.572  -8.803   0.051  0.00  0.00    -0.308 N 
ATOM     14  H   UNL     1       8.623  -9.771   0.034  0.00  0.00    +0.149 HD
BRANCH  13  15
ATOM     15  C   UNL     1       9.800  -8.004   0.049  0.00  0.00    +0.073 C 
ATOM     16  C   UNL     1      10.142  -7.597  -1.385  0.00  0.00    +0.022 C 
ATOM     17  C   UNL     1      11.425  -6.763  -1.387  0.00  0.00    +0.002 C 
ATOM     18  C   UNL     1      12.572  -7.591  -0.804  0.00  0.00    +0.000 C 
ATOM     19  C   UNL     1      12.230  -7.998   0.630  0.00  0.00    +0.002 C 
ATOM     20  C   UNL     1      10.947  -8.832   0.632  0.00  0.00    +0.022 C 
ENDBRANCH  13  15
ENDBRANCH  10  11
ENDBRANCH   3   5
BRANCH   1  22
ATOM     21  N   UNL     1       2.730  -4.181   1.072  0.00  0.00    -0.199 N 
ATOM     22  C   UNL     1       3.749  -4.835   0.482  0.00  0.00    +0.318 C 
ATOM     23  O   UNL     1       4.641  -4.211  -0.057  0.00  0.00    -0.263 OA
ATOM     24  H   UNL     1       2.018  -4.679   1.503  0.00  0.00    +0.178 HD
BRANCH  21  26
ATOM     25  C   UNL     1       1.715  -2.149   1.633  0.00  0.00    +0.142 C 
ATOM     26  N   UNL     1       2.698  -2.780   1.064  0.00  0.00    -0.187 NA
BRANCH  25  31
ATOM     27  C   UNL     1       0.602   1.385   2.223  0.00  0.00    +0.001 A 
ATOM     28  C   UNL     1       1.619   2.096   1.609  0.00  0.00    +0.004 A 
ATOM     29  C   UNL     1       2.668   1.433   1.002  0.00  0.00    +0.046 A 
ATOM     30  C   UNL     1       2.709   0.048   1.004  0.00  0.00    +0.125 A 
ATOM     31  C   UNL     1       1.682  -0.676   1.625  0.00  0.00    +0.036 A 
ATOM     32  C   UNL     1       0.627   0.006   2.235  0.00  0.00    +0.013 A 
BRANCH  30  33
ATOM     33  O   UNL     1       3.740  -0.604   0.407  0.00  0.00    -0.506 OA
ATOM     34  H   UNL     1       4.488  -0.778   0.994  0.00  0.00    +0.292 HD
ENDBRANCH  30  33
ENDBRANCH  25  31
ENDBRANCH  21  26
ENDBRANCH   1  22
TORSDOF 7
