REMARK  Name = ZINC63103351
REMARK  4 active torsions:
REMARK  status: ('A' for Active; 'I' for Inactive)
REMARK    1  A    between atoms: C_1  and  S_2
REMARK    2  A    between atoms: S_2  and  C_5
REMARK    3  A    between atoms: C_8  and  N_11
REMARK    4  A    between atoms: C_17  and  N_21
REMARK                            x       y       z     vdW  Elec       q    Type
REMARK                         _______ _______ _______ _____ _____    ______ ____
ROOT
ATOM      1  N   UNL     1       2.839  -1.461  -4.994  0.00  0.00    -0.294 N 
ATOM      2  C   UNL     1       4.219  -1.524  -5.011  0.00  0.00    +0.163 A 
ATOM      3  N   UNL     1       5.062  -1.391  -4.014  0.00  0.00    -0.225 NA
ATOM      4  C   UNL     1       6.402  -1.478  -4.178  0.00  0.00    +0.080 A 
ATOM      5  C   UNL     1       7.411  -1.354  -3.195  0.00  0.00    +0.031 A 
ATOM      6  C   UNL     1       8.735  -1.469  -3.529  0.00  0.00    +0.025 A 
ATOM      7  C   UNL     1       9.134  -1.711  -4.841  0.00  0.00    +0.026 A 
ATOM      8  C   UNL     1       8.168  -1.838  -5.831  0.00  0.00    +0.040 A 
ATOM      9  C   UNL     1       6.841  -1.723  -5.499  0.00  0.00    +0.043 A 
ATOM     10  S   UNL     1       5.310  -1.816  -6.396  0.00  0.00    -0.052 S 
ATOM     11  H   UNL     1       2.334  -1.664  -5.797  0.00  0.00    +0.154 HD
ENDROOT
BRANCH   1  15
ATOM     12  C   UNL     1       0.847  -0.402  -1.493  0.00  0.00    +0.088 A 
ATOM     13  C   UNL     1       2.150   0.013  -1.698  0.00  0.00    +0.029 A 
ATOM     14  C   UNL     1       2.813  -0.337  -2.857  0.00  0.00    +0.025 A 
ATOM     15  C   UNL     1       2.170  -1.106  -3.818  0.00  0.00    +0.033 A 
ATOM     16  C   UNL     1       0.861  -1.521  -3.610  0.00  0.00    +0.025 A 
ATOM     17  C   UNL     1       0.205  -1.172  -2.446  0.00  0.00    +0.029 A 
BRANCH  12  19
ATOM     18  C   UNL     1       0.373  -1.290   1.157  0.00  0.00    +0.200 C 
ATOM     19  S   UNL     1       0.004   0.046  -0.012  0.00  0.00    -0.006 S 
ATOM     20  O   UNL     1      -1.374   0.026  -0.359  0.00  0.00    -0.170 OA
ATOM     21  O   UNL     1       0.627   1.252   0.409  0.00  0.00    -0.170 OA
ENDBRANCH  12  19
ENDBRANCH   1  15
BRANCH   7  22
ATOM     22  N   UNL     1      10.493  -1.824  -5.159  0.00  0.00    -0.358 N 
ATOM     23  H   UNL     1      11.162  -1.734  -4.463  0.00  0.00    +0.142 HD
ATOM     24  H   UNL     1      10.764  -1.993  -6.075  0.00  0.00    +0.142 HD
ENDBRANCH   7  22
TORSDOF 3
