REMARK  Name = ZINC02728214
REMARK  7 active torsions:
REMARK  status: ('A' for Active; 'I' for Inactive)
REMARK    1  A    between atoms: C_1  and  C_2
REMARK    2  A    between atoms: C_4  and  C_23
REMARK    3  A    between atoms: C_5  and  C_17
REMARK    4  A    between atoms: C_7  and  C_8
REMARK    5  A    between atoms: C_8  and  O_9
REMARK    6  A    between atoms: O_9  and  C_10
REMARK    7  A    between atoms: N_18  and  N_19
REMARK                            x       y       z     vdW  Elec       q    Type
REMARK                         _______ _______ _______ _____ _____    ______ ____
ROOT
ATOM      1  C   UNL     1      -1.113  -6.369  -0.540  0.00  0.00    +0.044 C 
ATOM      2  C   UNL     1      -1.092  -4.888  -0.261  0.00  0.00    -0.044 A 
ATOM      3  C   UNL     1       0.093  -4.183  -0.372  0.00  0.00    +0.007 A 
ATOM      4  C   UNL     1       0.119  -2.828  -0.119  0.00  0.00    -0.042 A 
ATOM      5  C   UNL     1      -1.055  -2.167   0.250  0.00  0.00    -0.002 A 
ATOM      6  C   UNL     1      -2.246  -2.886   0.366  0.00  0.00    +0.017 A 
ATOM      7  C   UNL     1      -2.259  -4.241   0.105  0.00  0.00    -0.007 A 
ATOM      8  C   UNL     1       1.411  -2.061  -0.241  0.00  0.00    +0.044 C 
ENDROOT
BRANCH   5   9
ATOM      9  C   UNL     1      -1.035  -0.717   0.522  0.00  0.00    +0.138 C 
ATOM     10  N   UNL     1       0.090  -0.072   0.518  0.00  0.00    -0.186 NA
BRANCH  10  11
ATOM     11  N   UNL     1       0.109   1.305   0.777  0.00  0.00    -0.191 N 
ATOM     12  C   UNL     1       1.279   1.975   0.773  0.00  0.00    +0.317 C 
ATOM     13  O   UNL     1       1.295   3.170   0.997  0.00  0.00    -0.251 OA
ATOM     14  N   UNL     1       2.430   1.321   0.521  0.00  0.00    -0.312 N 
ATOM     15  H   UNL     1      -0.720   1.776   0.955  0.00  0.00    +0.179 HD
ATOM     16  H   UNL     1       2.417   0.368   0.342  0.00  0.00    +0.147 HD
ATOM     17  H   UNL     1       3.271   1.804   0.518  0.00  0.00    +0.147 HD
ENDBRANCH  10  11
ENDBRANCH   5   9
BRANCH   7  18
ATOM     18  C   UNL     1      -3.544  -5.018   0.224  0.00  0.00    +0.264 C 
BRANCH  18  19
ATOM     19  O   UNL     1      -4.600  -4.136   0.612  0.00  0.00    -0.486 OA
BRANCH  19  20
ATOM     20  C   UNL     1      -5.835  -4.681   0.764  0.00  0.00    +0.135 A 
ATOM     21  C   UNL     1      -6.029  -6.036   0.540  0.00  0.00    +0.047 A 
ATOM     22  C   UNL     1      -7.284  -6.590   0.701  0.00  0.00    +0.004 A 
ATOM     23  C   UNL     1      -8.350  -5.792   1.075  0.00  0.00    +0.001 A 
ATOM     24  C   UNL     1      -8.162  -4.440   1.294  0.00  0.00    +0.019 A 
ATOM     25  C   UNL     1      -6.906  -3.882   1.139  0.00  0.00    +0.059 A 
ATOM     26 BR   UNL     1      -6.649  -2.033   1.438  0.00  0.00    -0.047 Br
ENDBRANCH  19  20
ENDBRANCH  18  19
ENDBRANCH   7  18
TORSDOF 5
