REMARK  Name = ZINC36782178
REMARK  6 active torsions:
REMARK  status: ('A' for Active; 'I' for Inactive)
REMARK    1  A    between atoms: C_2  and  N_20
REMARK    2  A    between atoms: C_6  and  S_7
REMARK    3  A    between atoms: S_7  and  N_10
REMARK    4  A    between atoms: N_10  and  C_11
REMARK    5  A    between atoms: C_11  and  C_12
REMARK    6  A    between atoms: N_14  and  C_15
REMARK                            x       y       z     vdW  Elec       q    Type
REMARK                         _______ _______ _______ _____ _____    ______ ____
ROOT
ATOM      1  S   UNL     1      -1.512  -0.905   0.012  0.00  0.00    +0.062 S 
ATOM      2  O   UNL     1      -1.393  -1.888   1.031  0.00  0.00    -0.153 OA
ATOM      3  O   UNL     1      -2.558   0.058  -0.000  0.00  0.00    -0.153 OA
ENDROOT
BRANCH   1   9
ATOM      4  C   UNL     1      -0.017   1.377   0.010  0.00  0.00    +0.054 A 
ATOM      5  C   UNL     1       1.177   2.087   0.002  0.00  0.00    +0.028 A 
ATOM      6  C   UNL     1       2.387   1.407  -0.013  0.00  0.00    +0.045 A 
ATOM      7  C   UNL     1       2.402   0.025  -0.021  0.00  0.00    +0.080 A 
ATOM      8  C   UNL     1       1.210  -0.681  -0.013  0.00  0.00    +0.168 A 
ATOM      9  C   UNL     1       0.002  -0.004   0.002  0.00  0.00    +0.143 A 
ATOM     10  F   UNL     1       1.225  -2.032  -0.021  0.00  0.00    -0.202 F 
ATOM     11 CL   UNL     1       3.914  -0.827  -0.040  0.00  0.00    -0.080 Cl
BRANCH   5  12
ATOM     12  N   UNL     1       1.160   3.485   0.009  0.00  0.00    -0.358 N 
ATOM     13  H   UNL     1       0.314   3.960   0.019  0.00  0.00    +0.142 HD
ATOM     14  H   UNL     1       1.994   3.981   0.004  0.00  0.00    +0.142 HD
ENDBRANCH   5  12
ENDBRANCH   1   9
BRANCH   1  15
ATOM     15  N   UNL     1      -1.605  -1.722  -1.426  0.00  0.00    -0.181 NA
ATOM     16  H   UNL     1      -2.301  -1.502  -2.064  0.00  0.00    +0.149 HD
BRANCH  15  17
ATOM     17  C   UNL     1      -0.635  -2.777  -1.733  0.00  0.00    +0.201 C 
BRANCH  17  18
ATOM     18  C   UNL     1      -1.137  -3.599  -2.892  0.00  0.00    +0.229 C 
ATOM     19  O   UNL     1      -2.200  -3.330  -3.410  0.00  0.00    -0.274 OA
ATOM     20  N   UNL     1      -0.405  -4.633  -3.352  0.00  0.00    -0.311 N 
ATOM     21  H   UNL     1       0.445  -4.847  -2.937  0.00  0.00    +0.149 HD
BRANCH  20  22
ATOM     22  C   UNL     1      -0.893  -5.432  -4.478  0.00  0.00    +0.073 C 
ATOM     23  C   UNL     1      -0.760  -6.952  -4.376  0.00  0.00    +0.024 C 
ATOM     24  C   UNL     1       0.147  -6.167  -5.326  0.00  0.00    +0.024 C 
ENDBRANCH  20  22
ENDBRANCH  17  18
ENDBRANCH  15  17
ENDBRANCH   1  15
TORSDOF 6
