REMARK  Name = ZINC03770109
REMARK  13 active torsions:
REMARK  status: ('A' for Active; 'I' for Inactive)
REMARK    1  A    between atoms: C_1  and  C_2
REMARK    2  A    between atoms: C_5  and  N_9
REMARK    3  A    between atoms: C_6  and  C_8
REMARK    4  A    between atoms: C_10  and  C_12
REMARK    5  A    between atoms: C_17  and  C_20
REMARK    6  A    between atoms: C_20  and  C_21
REMARK    7  A    between atoms: C_21  and  O_23
REMARK    8  A    between atoms: O_23  and  C_24
REMARK    9  A    between atoms: C_25  and  N_39
REMARK   10  A    between atoms: C_26  and  C_37
REMARK   11  A    between atoms: C_27  and  C_29
REMARK   12  A    between atoms: C_33  and  O_35
REMARK   13  A    between atoms: O_35  and  C_36
REMARK                            x       y       z     vdW  Elec       q    Type
REMARK                         _______ _______ _______ _____ _____    ______ ____
ROOT
ATOM      1  C   UNL     1      -2.460  -3.627   1.183  0.00  0.00    +0.055 C 
ATOM      2  C   UNL     1      -2.598  -4.955   0.935  0.00  0.00    +0.086 C 
ATOM      3  N   UNL     1      -2.682  -5.508  -0.329  0.00  0.00    -0.220 N 
ATOM      4  C   UNL     1      -2.818  -6.845  -0.453  0.00  0.00    +0.239 C 
ATOM      5  O   UNL     1      -2.896  -7.372  -1.542  0.00  0.00    -0.274 OA
ATOM      6  C   UNL     1      -2.870  -7.661   0.818  0.00  0.00    +0.150 C 
ATOM      7  S   UNL     1      -2.708  -6.328   2.068  0.00  0.00    -0.096 S 
ATOM      8  C   UNL     1      -2.623  -4.658  -1.444  0.00  0.00    +0.110 C 
ATOM      9  C   UNL     1      -2.488  -3.318  -1.363  0.00  0.00    +0.077 C 
ATOM     10  C   UNL     1      -2.392  -2.675   0.006  0.00  0.00    +0.100 C 
ENDROOT
BRANCH  10  11
ATOM     11  C   UNL     1      -1.090  -1.921   0.083  0.00  0.00    -0.031 A 
ATOM     12  C   UNL     1       0.110  -2.608   0.050  0.00  0.00    +0.005 A 
ATOM     13  C   UNL     1       1.306  -1.919   0.120  0.00  0.00    +0.004 A 
ATOM     14  C   UNL     1       1.306  -0.541   0.218  0.00  0.00    +0.045 A 
ATOM     15  C   UNL     1       0.104   0.150   0.257  0.00  0.00    +0.120 A 
ATOM     16  C   UNL     1      -1.095  -0.544   0.186  0.00  0.00    +0.050 A 
BRANCH  15  17
ATOM     17  O   UNL     1       0.101   1.506   0.359  0.00  0.00    -0.495 OA
ATOM     18  C   UNL     1       1.373   2.154   0.428  0.00  0.00    +0.277 C 
ENDBRANCH  15  17
ENDBRANCH  10  11
BRANCH   1  20
ATOM     19  N   UNL     1      -2.245  -1.825   2.729  0.00  0.00    -0.281 N 
ATOM     20  C   UNL     1      -2.382  -3.146   2.501  0.00  0.00    +0.248 C 
ATOM     21  O   UNL     1      -2.438  -3.924   3.438  0.00  0.00    -0.270 OA
ATOM     22  H   UNL     1      -2.140  -1.212   1.984  0.00  0.00    +0.155 HD
BRANCH  19  27
ATOM     23  C   UNL     1      -2.285   0.154   8.045  0.00  0.00    +0.044 C 
ATOM     24  C   UNL     1      -2.275  -0.372   6.633  0.00  0.00    -0.050 A 
ATOM     25  C   UNL     1      -1.711  -1.605   6.359  0.00  0.00    +0.005 A 
ATOM     26  C   UNL     1      -1.699  -2.089   5.066  0.00  0.00    +0.024 A 
ATOM     27  C   UNL     1      -2.255  -1.337   4.040  0.00  0.00    +0.037 A 
ATOM     28  C   UNL     1      -2.817  -0.097   4.316  0.00  0.00    -0.029 A 
ATOM     29  C   UNL     1      -2.830   0.379   5.613  0.00  0.00    +0.008 A 
ATOM     30  C   UNL     1      -3.416   0.725   3.204  0.00  0.00    +0.045 C 
ENDBRANCH  19  27
ENDBRANCH   1  20
BRANCH   8  31
ATOM     31  N   UNL     1      -2.709  -5.224  -2.693  0.00  0.00    -0.345 N 
ATOM     32  H   UNL     1      -3.270  -6.003  -2.835  0.00  0.00    +0.144 HD
ATOM     33  H   UNL     1      -2.209  -4.845  -3.433  0.00  0.00    +0.144 HD
ENDBRANCH   8  31
BRANCH   9  34
ATOM     34  C   UNL     1      -2.436  -2.517  -2.549  0.00  0.00    +0.099 C 
ATOM     35  N   UNL     1      -2.395  -1.882  -3.490  0.00  0.00    -0.191 NA
ENDBRANCH   9  34
BRANCH   6  36
ATOM     36  C   UNL     1      -4.208  -8.390   0.955  0.00  0.00    +0.144 C 
BRANCH  36  37
ATOM     37  C   UNL     1      -4.242  -9.136   2.264  0.00  0.00    +0.308 C 
ATOM     38  O   UNL     1      -3.293  -9.089   3.011  0.00  0.00    -0.251 OA
BRANCH  37  39
ATOM     39  O   UNL     1      -5.326  -9.853   2.600  0.00  0.00    -0.468 OA
ATOM     40  C   UNL     1      -5.289 -10.546   3.876  0.00  0.00    +0.280 C 
ENDBRANCH  37  39
ENDBRANCH  36  37
ENDBRANCH   6  36
TORSDOF 9
