REMARK  Name = ZINC26288731
REMARK  12 active torsions:
REMARK  status: ('A' for Active; 'I' for Inactive)
REMARK    1  A    between atoms: C_1  and  C_2
REMARK    2  A    between atoms: C_5  and  C_7
REMARK    3  A    between atoms: C_7  and  C_8
REMARK    4  A    between atoms: C_7  and  C_29
REMARK    5  A    between atoms: C_7  and  O_33
REMARK    6  A    between atoms: C_8  and  C_9
REMARK    7  A    between atoms: C_9  and  N_10
REMARK    8  A    between atoms: N_13  and  C_14
REMARK    9  A    between atoms: C_14  and  C_16
REMARK   10  A    between atoms: C_14  and  C_17
REMARK   11  A    between atoms: C_20  and  N_23
REMARK   12  A    between atoms: C_24  and  C_26
REMARK                            x       y       z     vdW  Elec       q    Type
REMARK                         _______ _______ _______ _____ _____    ______ ____
ROOT
ATOM      1  N   UNL     1      -1.136   1.378  -0.239  0.00  0.00    -0.299 N 
ATOM      2  C   UNL     1       0.053   0.743  -0.238  0.00  0.00    +0.300 C 
ATOM      3  O   UNL     1       0.095  -0.468  -0.140  0.00  0.00    -0.253 OA
ATOM      4  N   UNL     1       1.195   1.451  -0.350  0.00  0.00    -0.293 N 
ATOM      5  H   UNL     1      -1.174   2.474  -0.328  0.00  0.00    +0.150 HD
ATOM      6  H   UNL     1       1.156   2.546  -0.438  0.00  0.00    +0.151 HD
ENDROOT
BRANCH   4   7
ATOM      7  C   UNL     1       2.487   0.760  -0.354  0.00  0.00    +0.102 C 
ATOM      8  C   UNL     1       2.945   0.527   1.087  0.00  0.00    +0.033 C 
BRANCH   7   9
ATOM      9  C   UNL     1       3.505   1.605  -1.075  0.00  0.00    -0.027 A 
ATOM     10  C   UNL     1       3.514   2.977  -0.898  0.00  0.00    +0.007 A 
ATOM     11  C   UNL     1       4.449   3.753  -1.553  0.00  0.00    +0.023 A 
ATOM     12  C   UNL     1       5.375   3.156  -2.399  0.00  0.00    +0.033 A 
ATOM     13  C   UNL     1       5.360   1.780  -2.579  0.00  0.00    +0.023 A 
ATOM     14  C   UNL     1       4.426   1.008  -1.917  0.00  0.00    +0.007 A 
BRANCH  12  15
ATOM     15  N   UNL     1       6.320   3.941  -3.069  0.00  0.00    -0.285 N 
ATOM     16  C   UNL     1       6.741   3.586  -4.299  0.00  0.00    +0.220 C 
ATOM     17  O   UNL     1       6.233   2.640  -4.864  0.00  0.00    -0.275 OA
ATOM     18  H   UNL     1       6.720   4.848  -2.592  0.00  0.00    +0.155 HD
BRANCH  16  19
ATOM     19  C   UNL     1       7.842   4.364  -4.973  0.00  0.00    +0.075 C 
ATOM     20  C   UNL     1       7.468   5.200  -6.199  0.00  0.00    +0.013 C 
ATOM     21  C   UNL     1       8.274   3.911  -6.369  0.00  0.00    +0.013 C 
ENDBRANCH  16  19
ENDBRANCH  12  15
ENDBRANCH   7   9
ENDBRANCH   4   7
BRANCH   1  22
ATOM     22  C   UNL     1      -2.377   0.609  -0.123  0.00  0.00    +0.109 C 
BRANCH  22  23
ATOM     23  C   UNL     1      -3.573   1.563  -0.151  0.00  0.00    +0.071 C 
BRANCH  23  24
ATOM     24  C   UNL     1      -4.862   0.772   0.085  0.00  0.00    +0.220 C 
BRANCH  24  29
ATOM     25  C   UNL     1      -3.731  -0.114   4.920  0.00  0.00    +0.086 C 
ATOM     26  C   UNL     1      -4.311  -0.277   3.539  0.00  0.00    +0.102 A 
ATOM     27  C   UNL     1      -5.084  -1.298   3.126  0.00  0.00    +0.045 A 
ATOM     28  C   UNL     1      -5.401  -1.050   1.771  0.00  0.00    +0.048 A 
ATOM     29  C   UNL     1      -4.803   0.108   1.437  0.00  0.00    +0.146 A 
ATOM     30  O   UNL     1      -4.140   0.568   2.510  0.00  0.00    -0.462 OA
ENDBRANCH  24  29
BRANCH  24  31
ATOM     31  C   UNL     1      -6.059   1.723   0.036  0.00  0.00    +0.425 C 
ATOM     32  F   UNL     1      -6.159   2.282  -1.242  0.00  0.00    -0.167 F 
ATOM     33  F   UNL     1      -7.230   1.014   0.327  0.00  0.00    -0.167 F 
ATOM     34  F   UNL     1      -5.885   2.742   0.979  0.00  0.00    -0.167 F 
ENDBRANCH  24  31
BRANCH  24  35
ATOM     35  O   UNL     1      -5.002  -0.224  -0.930  0.00  0.00    -0.373 OA
ATOM     36  H   UNL     1      -5.063   0.073  -1.987  0.00  0.00    +0.211 HD
ENDBRANCH  24  35
ENDBRANCH  23  24
ENDBRANCH  22  23
ENDBRANCH   1  22
TORSDOF 10
