REMARK  Name = ZINC21252833
REMARK  4 active torsions:
REMARK  status: ('A' for Active; 'I' for Inactive)
REMARK    1  A    between atoms: C_1  and  O_2
REMARK    2  A    between atoms: O_2  and  C_3
REMARK    3  A    between atoms: C_7  and  C_9
REMARK    4  A    between atoms: C_14  and  C_20
REMARK                            x       y       z     vdW  Elec       q    Type
REMARK                         _______ _______ _______ _____ _____    ______ ____
ROOT
ATOM      1  C   UNL     1       2.006  -0.700  -3.728  0.00  0.00    +0.032 C 
ATOM      2  C   UNL     1       2.782  -1.102  -2.472  0.00  0.00    +0.059 C 
ATOM      3  C   UNL     1       2.054  -0.608  -1.246  0.00  0.00    +0.018 C 
ATOM      4  C   UNL     1       0.710  -0.491  -1.240  0.00  0.00    +0.020 C 
ATOM      5  C   UNL     1       0.002  -0.004   0.002  0.00  0.00    +0.065 C 
ATOM      6  C   UNL     1       0.743  -0.511   1.241  0.00  0.00    +0.109 C 
ATOM      7  C   UNL     1       2.215  -0.232   1.084  0.00  0.00    +0.218 C 
ATOM      8  O   UNL     1       2.887   0.037   2.057  0.00  0.00    -0.275 OA
ATOM      9  N   UNL     1       2.785  -0.281  -0.133  0.00  0.00    -0.289 N 
ATOM     10  C   UNL     1      -0.058  -0.813  -2.372  0.00  0.00    +0.162 C 
ATOM     11  O   UNL     1      -1.267  -0.706  -2.325  0.00  0.00    -0.292 OA
ATOM     12  C   UNL     1       0.595  -1.290  -3.642  0.00  0.00    +0.088 C 
ATOM     13  H   UNL     1       3.857  -0.053  -0.226  0.00  0.00    +0.155 HD
ENDROOT
BRANCH   5  14
ATOM     14  C   UNL     1      -0.018   1.503   0.010  0.00  0.00    -0.001 A 
ATOM     15  C   UNL     1       1.169   2.210   0.003  0.00  0.00    +0.045 A 
ATOM     16  C   UNL     1       1.150   3.594   0.010  0.00  0.00    +0.124 A 
ATOM     17  C   UNL     1      -0.058   4.270   0.024  0.00  0.00    +0.041 A 
ATOM     18  C   UNL     1      -1.245   3.563   0.032  0.00  0.00    +0.041 A 
ATOM     19  C   UNL     1      -1.226   2.179   0.020  0.00  0.00    +0.127 A 
ATOM     20  F   UNL     1      -2.387   1.487   0.022  0.00  0.00    -0.205 F 
ATOM     21  F   UNL     1       2.311   4.285   0.003  0.00  0.00    -0.205 F 
ENDBRANCH   5  14
BRANCH   1  26
ATOM     22  C   UNL     1       3.787  -0.858  -7.057  0.00  0.00    +0.120 A 
ATOM     23  C   UNL     1       3.986  -2.224  -7.197  0.00  0.00    +0.045 A 
ATOM     24  C   UNL     1       3.544  -3.089  -6.216  0.00  0.00    +0.004 A 
ATOM     25  C   UNL     1       2.904  -2.595  -5.093  0.00  0.00    +0.004 A 
ATOM     26  C   UNL     1       2.705  -1.235  -4.952  0.00  0.00    -0.040 A 
ATOM     27  C   UNL     1       3.140  -0.365  -5.933  0.00  0.00    +0.049 A 
BRANCH  22  29
ATOM     28  C   UNL     1       4.873  -0.583  -9.154  0.00  0.00    +0.277 C 
ATOM     29  O   UNL     1       4.221  -0.004  -8.022  0.00  0.00    -0.495 OA
ENDBRANCH  22  29
ENDBRANCH   1  26
TORSDOF 3
