REMARK  Name = ZINC39446795
REMARK  8 active torsions:
REMARK  status: ('A' for Active; 'I' for Inactive)
REMARK    1  A    between atoms: C_1  and  C_2
REMARK    2  A    between atoms: C_6  and  C_8
REMARK    3  A    between atoms: N_10  and  C_11
REMARK    4  A    between atoms: C_13  and  C_18
REMARK    5  A    between atoms: C_16  and  O_17
REMARK    6  A    between atoms: C_18  and  C_19
REMARK    7  A    between atoms: C_18  and  C_20
REMARK    8  A    between atoms: C_18  and  C_21
REMARK                            x       y       z     vdW  Elec       q    Type
REMARK                         _______ _______ _______ _____ _____    ______ ____
ROOT
ATOM      1  C   UNL     1      -1.201  -0.707   2.049  0.00  0.00    +0.246 C 
ATOM      2  O   UNL     1      -2.139  -1.471   1.968  0.00  0.00    -0.273 OA
ATOM      3  N   UNL     1      -1.252   0.332   2.907  0.00  0.00    -0.281 N 
ATOM      4  H   UNL     1      -0.472   0.896   3.031  0.00  0.00    +0.155 HD
ENDROOT
BRANCH   1  10
ATOM      5  C   UNL     1      -0.042   1.515   0.005  0.00  0.00    +0.042 C 
ATOM      6  C   UNL     1      -0.016   0.009  -0.007  0.00  0.00    -0.028 C 
ATOM      7  C   UNL     1      -0.013  -0.792  -1.079  0.00  0.00    +0.040 C 
ATOM      8  C   UNL     1      -0.002  -2.212  -0.638  0.00  0.00    +0.048 C 
ATOM      9  N   UNL     1       0.022  -2.280   0.643  0.00  0.00    -0.270 NA
ATOM     10  C   UNL     1       0.020  -0.918   1.192  0.00  0.00    +0.218 C 
ATOM     11  C   UNL     1      -0.043  -3.348  -1.631  0.00  0.00    +0.056 C 
ATOM     12  C   UNL     1       0.393  -2.883  -3.007  0.00  0.00    +0.014 C 
ATOM     13  C   UNL     1      -0.239  -1.592  -3.479  0.00  0.00    +0.080 C 
ATOM     14  C   UNL     1      -0.009  -0.454  -2.516  0.00  0.00    +0.165 C 
ATOM     15  O   UNL     1       0.170   0.681  -2.902  0.00  0.00    -0.292 OA
ENDBRANCH   1  10
BRANCH   3  16
ATOM     16  C   UNL     1      -2.429   0.597   3.618  0.00  0.00    +0.076 A 
ATOM     17  C   UNL     1      -3.653   0.177   3.118  0.00  0.00    +0.031 A 
ATOM     18  C   UNL     1      -4.813   0.439   3.822  0.00  0.00    -0.040 A 
ATOM     19  C   UNL     1      -4.758   1.119   5.024  0.00  0.00    +0.008 A 
ATOM     20  C   UNL     1      -3.542   1.541   5.529  0.00  0.00    +0.047 A 
ATOM     21  C   UNL     1      -2.373   1.277   4.833  0.00  0.00    +0.138 A 
BRANCH  18  22
ATOM     22  C   UNL     1      -6.142  -0.017   3.277  0.00  0.00    -0.013 C 
ATOM     23  C   UNL     1      -6.136  -1.539   3.126  0.00  0.00    +0.015 C 
ATOM     24  C   UNL     1      -7.257   0.396   4.240  0.00  0.00    +0.015 C 
ATOM     25  C   UNL     1      -6.383   0.630   1.911  0.00  0.00    +0.015 C 
ENDBRANCH  18  22
BRANCH  21  26
ATOM     26  O   UNL     1      -1.176   1.685   5.331  0.00  0.00    -0.505 OA
ATOM     27  H   UNL     1      -0.914   2.572   5.048  0.00  0.00    +0.292 HD
ENDBRANCH  21  26
ENDBRANCH   3  16
TORSDOF 4
