REMARK  Name = ZINC34198910
REMARK  6 active torsions:
REMARK  status: ('A' for Active; 'I' for Inactive)
REMARK    1  A    between atoms: C_1  and  C_2
REMARK    2  A    between atoms: C_2  and  C_21
REMARK    3  A    between atoms: C_6  and  O_20
REMARK    4  A    between atoms: C_8  and  O_19
REMARK    5  A    between atoms: C_10  and  O_18
REMARK    6  A    between atoms: C_12  and  O_17
REMARK                            x       y       z     vdW  Elec       q    Type
REMARK                         _______ _______ _______ _____ _____    ______ ____
ROOT
ATOM      1  C   UNL     1      -0.019   1.526   0.010  0.00  0.00    +0.074 C 
ATOM      2  C   UNL     1       0.002  -0.004   0.002  0.00  0.00    +0.166 C 
ATOM      3  O   UNL     1      -1.342  -0.509   0.150  0.00  0.00    -0.341 OA
ATOM      4  C   UNL     1      -1.171  -1.698   0.945  0.00  0.00    +0.184 C 
ATOM      5  C   UNL     1      -2.452  -2.147   1.606  0.00  0.00    +0.177 C 
ATOM      6  C   UNL     1      -2.983  -1.090   2.574  0.00  0.00    +0.176 C 
ATOM      7  C   UNL     1      -1.912  -0.834   3.641  0.00  0.00    +0.176 C 
ATOM      8  C   UNL     1      -0.675  -0.256   2.959  0.00  0.00    +0.177 C 
ATOM      9  C   UNL     1      -0.097  -1.248   1.956  0.00  0.00    +0.184 C 
ATOM     10  O   UNL     1       0.795  -0.483   1.101  0.00  0.00    -0.341 OA
ATOM     11  C   UNL     1       0.595  -0.503  -1.317  0.00  0.00    +0.074 C 
ENDROOT
BRANCH   8  12
ATOM     12  O   UNL     1      -1.034   0.947   2.276  0.00  0.00    -0.386 OA
ATOM     13  H   UNL     1      -1.393   1.635   2.854  0.00  0.00    +0.210 HD
ENDBRANCH   8  12
BRANCH   7  14
ATOM     14  O   UNL     1      -2.410   0.094   4.607  0.00  0.00    -0.386 OA
ATOM     15  H   UNL     1      -3.205  -0.207   5.069  0.00  0.00    +0.210 HD
ENDBRANCH   7  14
BRANCH   6  16
ATOM     16  O   UNL     1      -3.255   0.120   1.864  0.00  0.00    -0.386 OA
ATOM     17  H   UNL     1      -3.595   0.834   2.420  0.00  0.00    +0.210 HD
ENDBRANCH   6  16
BRANCH   5  18
ATOM     18  O   UNL     1      -3.436  -2.393   0.600  0.00  0.00    -0.386 OA
ATOM     19  H   UNL     1      -4.289  -2.686   0.948  0.00  0.00    +0.210 HD
ENDBRANCH   5  18
TORSDOF 4
