REMARK  Name = ZINC21595798
REMARK  13 active torsions:
REMARK  status: ('A' for Active; 'I' for Inactive)
REMARK    1  A    between atoms: C_1  and  C_2
REMARK    2  A    between atoms: C_2  and  C_3
REMARK    3  A    between atoms: C_2  and  C_4
REMARK    4  A    between atoms: C_2  and  C_5
REMARK    5  A    between atoms: C_12  and  N_17
REMARK    6  A    between atoms: C_13  and  C_14
REMARK    7  A    between atoms: N_17  and  C_18
REMARK    8  A    between atoms: C_18  and  N_20
REMARK    9  A    between atoms: C_21  and  C_23
REMARK   10  A    between atoms: C_26  and  O_31
REMARK   11  A    between atoms: C_28  and  O_29
REMARK   12  A    between atoms: O_29  and  C_30
REMARK   13  A    between atoms: O_31  and  C_32
REMARK                            x       y       z     vdW  Elec       q    Type
REMARK                         _______ _______ _______ _____ _____    ______ ____
ROOT
ATOM      1  C   UNL     1       6.584   6.678  -0.404  0.00  0.00    -0.000 C 
ATOM      2  C   UNL     1       5.688   7.583   0.446  0.00  0.00    +0.009 C 
ATOM      3  C   UNL     1       4.231   7.439   0.003  0.00  0.00    +0.037 C 
ATOM      4  C   UNL     1       3.865   5.960  -0.003  0.00  0.00    -0.023 A 
ATOM      5  C   UNL     1       4.821   5.006  -0.017  0.00  0.00    -0.004 A 
ATOM      6  S   UNL     1       3.933   3.475  -0.009  0.00  0.00    -0.077 S 
ATOM      7  C   UNL     1       2.314   4.090   0.002  0.00  0.00    +0.084 A 
ATOM      8  C   UNL     1       2.498   5.466   0.008  0.00  0.00    +0.068 A 
ATOM      9  C   UNL     1       6.304   5.215  -0.031  0.00  0.00    +0.046 C 
ENDROOT
BRANCH   8  10
ATOM     10  C   UNL     1       1.357   6.386   0.023  0.00  0.00    +0.244 C 
ATOM     11  O   UNL     1       0.894   6.763   1.083  0.00  0.00    -0.270 OA
ATOM     12  N   UNL     1       0.822   6.814  -1.137  0.00  0.00    -0.325 N 
ATOM     13  H   UNL     1      -0.034   7.505  -1.126  0.00  0.00    +0.145 HD
ATOM     14  H   UNL     1       1.241   6.474  -2.095  0.00  0.00    +0.145 HD
ENDBRANCH   8  10
BRANCH   1  16
ATOM     15  C   UNL     1       8.358   6.776   1.352  0.00  0.00    +0.011 C 
ATOM     16  C   UNL     1       8.053   7.005  -0.130  0.00  0.00    -0.035 C 
ATOM     17  C   UNL     1       8.945   6.099  -0.980  0.00  0.00    +0.011 C 
ATOM     18  C   UNL     1       8.324   8.468  -0.486  0.00  0.00    +0.011 C 
ENDBRANCH   1  16
BRANCH   7  19
ATOM     19  N   UNL     1       1.123   3.381   0.009  0.00  0.00    -0.291 N 
ATOM     20  H   UNL     1       0.164   3.918   0.022  0.00  0.00    +0.154 HD
BRANCH  19  21
ATOM     21  C   UNL     1       1.142   2.033   0.002  0.00  0.00    +0.141 C 
ATOM     22  S   UNL     1       2.636   1.198  -0.017  0.00  0.00    -0.018 S 
BRANCH  21  23
ATOM     23  N   UNL     1      -0.016   1.344   0.009  0.00  0.00    -0.263 N 
ATOM     24  C   UNL     1       0.002  -0.004   0.002  0.00  0.00    +0.253 C 
ATOM     25  O   UNL     1       1.063  -0.598  -0.011  0.00  0.00    -0.270 OA
ATOM     26  H   UNL     1      -0.976   1.881   0.021  0.00  0.00    +0.157 HD
BRANCH  24  27
ATOM     27  C   UNL     1      -1.263  -0.757   0.010  0.00  0.00    +0.079 A 
ATOM     28  C   UNL     1      -2.485  -0.078   0.031  0.00  0.00    +0.020 A 
ATOM     29  C   UNL     1      -3.657  -0.777   0.033  0.00  0.00    +0.046 A 
ATOM     30  C   UNL     1      -3.646  -2.169   0.025  0.00  0.00    +0.124 A 
ATOM     31  C   UNL     1      -2.443  -2.859   0.010  0.00  0.00    +0.092 A 
ATOM     32  C   UNL     1      -1.247  -2.161   0.002  0.00  0.00    +0.136 A 
BRANCH  32  33
ATOM     33  O   UNL     1      -0.067  -2.830  -0.013  0.00  0.00    -0.494 OA
ATOM     34  C   UNL     1      -0.131  -4.257  -0.020  0.00  0.00    +0.277 C 
ENDBRANCH  32  33
BRANCH  30  35
ATOM     35  O   UNL     1      -4.818  -2.854   0.033  0.00  0.00    -0.495 OA
ATOM     36  C   UNL     1      -6.021  -2.083   0.048  0.00  0.00    +0.277 C 
ENDBRANCH  30  35
ENDBRANCH  24  27
ENDBRANCH  21  23
ENDBRANCH  19  21
ENDBRANCH   7  19
TORSDOF 8
