REMARK  Name = ZINC20914325
REMARK  12 active torsions:
REMARK  status: ('A' for Active; 'I' for Inactive)
REMARK    1  A    between atoms: C_1  and  C_2
REMARK    2  A    between atoms: C_4  and  C_32
REMARK    3  A    between atoms: C_6  and  N_8
REMARK    4  A    between atoms: C_9  and  C_11
REMARK    5  A    between atoms: C_11  and  S_12
REMARK    6  A    between atoms: S_12  and  C_13
REMARK    7  A    between atoms: N_17  and  N_18
REMARK    8  A    between atoms: N_19  and  N_20
REMARK    9  A    between atoms: C_21  and  C_22
REMARK   10  A    between atoms: C_25  and  C_28
REMARK   11  A    between atoms: C_28  and  O_30
REMARK   12  A    between atoms: O_30  and  C_31
REMARK                            x       y       z     vdW  Elec       q    Type
REMARK                         _______ _______ _______ _____ _____    ______ ____
ROOT
ATOM      1  C   UNL     1      -4.054   1.821  -0.330  0.00  0.00    +0.210 A 
ATOM      2  N   UNL     1      -4.021   3.118  -0.144  0.00  0.00    -0.119 NA
ATOM      3  N   UNL     1      -5.214   3.595  -0.159  0.00  0.00    -0.109 NA
ATOM      4  C   UNL     1      -6.081   2.631  -0.345  0.00  0.00    +0.254 A 
ATOM      5  N   UNL     1      -5.370   1.465  -0.461  0.00  0.00    -0.211 N 
ATOM      6  N   UNL     1      -7.460   2.765  -0.413  0.00  0.00    -0.204 N 
ATOM      7  H   UNL     1      -8.092   1.879  -0.575  0.00  0.00    +0.177 HD
ENDROOT
BRANCH   5   8
ATOM      8  N   UNL     1      -5.869   0.210  -0.665  0.00  0.00    -0.294 N 
ATOM      9  H   UNL     1      -6.955   0.058  -0.754  0.00  0.00    +0.163 HD
ATOM     10  H   UNL     1      -5.186  -0.649  -0.741  0.00  0.00    +0.163 HD
ENDBRANCH   5   8
BRANCH   6  11
ATOM     11  N   UNL     1      -8.049   4.029  -0.277  0.00  0.00    -0.188 NA
ATOM     12  C   UNL     1      -9.341   4.155  -0.340  0.00  0.00    +0.138 C 
BRANCH  12  13
ATOM     13  C   UNL     1      -9.960   5.483  -0.196  0.00  0.00    -0.005 A 
ATOM     14  C   UNL     1      -9.156   6.609   0.015  0.00  0.00    +0.010 A 
ATOM     15  C   UNL     1      -9.730   7.842   0.143  0.00  0.00    +0.015 A 
ATOM     16  C   UNL     1     -11.121   7.977   0.074  0.00  0.00    +0.059 A 
ATOM     17  C   UNL     1     -11.924   6.850  -0.131  0.00  0.00    +0.015 A 
ATOM     18  C   UNL     1     -11.351   5.618  -0.265  0.00  0.00    +0.010 A 
BRANCH  16  19
ATOM     19  C   UNL     1     -11.740   9.307   0.219  0.00  0.00    +0.339 C 
ATOM     20  O   UNL     1     -12.948   9.424   0.160  0.00  0.00    -0.245 OA
BRANCH  19  21
ATOM     21  O   UNL     1     -10.966  10.392   0.418  0.00  0.00    -0.464 OA
ATOM     22  C   UNL     1     -11.644  11.669   0.552  0.00  0.00    +0.280 C 
ENDBRANCH  19  21
ENDBRANCH  16  19
ENDBRANCH  12  13
ENDBRANCH   6  11
BRANCH   1  23
ATOM     23  S   UNL     1      -2.665   0.737  -0.391  0.00  0.00    -0.075 S 
BRANCH  23  24
ATOM     24  C   UNL     1      -1.326   1.929  -0.144  0.00  0.00    +0.173 C 
BRANCH  24  26
ATOM     25  N   UNL     1       1.143   1.898   0.001  0.00  0.00    -0.285 N 
ATOM     26  C   UNL     1      -0.003   1.208  -0.160  0.00  0.00    +0.227 C 
ATOM     27  O   UNL     1       0.031   0.006  -0.322  0.00  0.00    -0.275 OA
ATOM     28  H   UNL     1       1.120   2.997   0.061  0.00  0.00    +0.155 HD
BRANCH  25  34
ATOM     29  C   UNL     1       5.978   1.746  -0.877  0.00  0.00    +0.044 C 
ATOM     30  C   UNL     1       4.723   1.121  -0.326  0.00  0.00    -0.048 A 
ATOM     31  C   UNL     1       4.775  -0.125   0.271  0.00  0.00    +0.006 A 
ATOM     32  C   UNL     1       3.625  -0.701   0.778  0.00  0.00    -0.048 A 
ATOM     33  C   UNL     1       2.420  -0.033   0.690  0.00  0.00    +0.026 A 
ATOM     34  C   UNL     1       2.363   1.219   0.092  0.00  0.00    +0.034 A 
ATOM     35  C   UNL     1       3.519   1.792  -0.422  0.00  0.00    +0.026 A 
ATOM     36  C   UNL     1       3.687  -2.060   1.428  0.00  0.00    +0.044 C 
ENDBRANCH  25  34
ENDBRANCH  24  26
ENDBRANCH  23  24
ENDBRANCH   1  23
TORSDOF 9
