REMARK  Name = ZINC35465391
REMARK  8 active torsions:
REMARK  status: ('A' for Active; 'I' for Inactive)
REMARK    1  A    between atoms: C_1  and  C_2
REMARK    2  A    between atoms: C_4  and  C_21
REMARK    3  A    between atoms: C_5  and  C_18
REMARK    4  A    between atoms: C_5  and  O_20
REMARK    5  A    between atoms: C_6  and  O_17
REMARK    6  A    between atoms: C_13  and  C_15
REMARK    7  A    between atoms: C_13  and  C_16
REMARK    8  A    between atoms: C_18  and  O_19
REMARK                            x       y       z     vdW  Elec       q    Type
REMARK                         _______ _______ _______ _____ _____    ______ ____
ROOT
ATOM      1  C   UNL     1      -0.019   1.526   0.010  0.00  0.00    +0.012 C 
ATOM      2  C   UNL     1       0.002  -0.004   0.002  0.00  0.00    -0.009 C 
ATOM      3  C   UNL     1       1.352  -0.669  -0.218  0.00  0.00    +0.030 C 
ATOM      4  C   UNL     1       0.708  -0.685   1.178  0.00  0.00    +0.111 C 
ATOM      5  C   UNL     1       0.276  -2.054   1.692  0.00  0.00    +0.131 C 
ATOM      6  C   UNL     1      -1.106  -2.466   1.169  0.00  0.00    +0.153 C 
ATOM      7  C   UNL     1      -1.128  -2.182  -0.321  0.00  0.00    +0.025 C 
ATOM      8  C   UNL     1      -1.263  -0.657  -0.494  0.00  0.00    +0.002 C 
ATOM      9  C   UNL     1      -1.617  -0.480  -1.965  0.00  0.00    +0.011 C 
ATOM     10  C   UNL     1      -2.354  -1.783  -2.366  0.00  0.00    -0.034 C 
ATOM     11  C   UNL     1      -2.347  -2.708  -1.087  0.00  0.00    +0.012 C 
ATOM     12  C   UNL     1      -1.635  -2.455  -3.537  0.00  0.00    +0.011 C 
ATOM     13  C   UNL     1      -3.802  -1.471  -2.747  0.00  0.00    +0.011 C 
ENDROOT
BRANCH   4  14
ATOM     14  C   UNL     1       1.323   0.215   2.218  0.00  0.00    +0.365 C 
ATOM     15  O   UNL     1       1.401  -0.157   3.377  0.00  0.00    -0.246 OA
ATOM     16  O   UNL     1       1.743   1.315   1.902  0.00  0.00    -0.246 OA
ENDBRANCH   4  14
BRANCH   6  17
ATOM     17  O   UNL     1      -1.318  -3.860   1.403  0.00  0.00    -0.389 OA
ATOM     18  H   UNL     1      -1.283  -4.113   2.336  0.00  0.00    +0.210 HD
ENDBRANCH   6  17
BRANCH   5  19
ATOM     19  O   UNL     1       0.240  -2.022   3.120  0.00  0.00    -0.383 OA
ATOM     20  H   UNL     1      -0.026  -2.859   3.526  0.00  0.00    +0.210 HD
ENDBRANCH   5  19
BRANCH   5  21
ATOM     21  C   UNL     1       1.304  -3.096   1.248  0.00  0.00    +0.194 C 
BRANCH  21  22
ATOM     22  O   UNL     1       0.854  -4.400   1.622  0.00  0.00    -0.392 OA
ATOM     23  H   UNL     1       1.458  -5.112   1.371  0.00  0.00    +0.210 HD
ENDBRANCH  21  22
ENDBRANCH   5  21
TORSDOF 5
