REMARK  Name = ZINC12640215
REMARK  12 active torsions:
REMARK  status: ('A' for Active; 'I' for Inactive)
REMARK    1  A    between atoms: C_1  and  C_2
REMARK    2  A    between atoms: C_7  and  C_39
REMARK    3  A    between atoms: C_10  and  C_12
REMARK    4  A    between atoms: C_12  and  O_13
REMARK    5  A    between atoms: O_13  and  C_14
REMARK    6  A    between atoms: C_17  and  C_20
REMARK    7  A    between atoms: N_22  and  N_23
REMARK    8  A    between atoms: C_24  and  C_25
REMARK    9  A    between atoms: C_28  and  O_35
REMARK   10  A    between atoms: C_30  and  O_31
REMARK   11  A    between atoms: O_31  and  C_32
REMARK   12  A    between atoms: O_35  and  C_36
REMARK                            x       y       z     vdW  Elec       q    Type
REMARK                         _______ _______ _______ _____ _____    ______ ____
ROOT
ATOM      1  C   UNL     1      -1.293   2.138   0.235  0.00  0.00    +0.263 C 
ATOM      2  O   UNL     1      -2.341   1.519   0.245  0.00  0.00    -0.268 OA
ATOM      3  N   UNL     1      -1.306   3.485   0.265  0.00  0.00    -0.203 N 
ATOM      4  H   UNL     1      -0.470   3.978   0.257  0.00  0.00    +0.178 HD
ENDROOT
BRANCH   1   8
ATOM      5  C   UNL     1       2.402   0.051   0.091  0.00  0.00    +0.121 A 
ATOM      6  C   UNL     1       1.207  -0.658   0.109  0.00  0.00    +0.046 A 
ATOM      7  C   UNL     1       0.006   0.015   0.158  0.00  0.00    +0.016 A 
ATOM      8  C   UNL     1      -0.009   1.412   0.189  0.00  0.00    +0.039 A 
ATOM      9  C   UNL     1       1.196   2.121   0.171  0.00  0.00    +0.016 A 
ATOM     10  C   UNL     1       2.392   1.440   0.122  0.00  0.00    +0.046 A 
BRANCH   5  11
ATOM     11  O   UNL     1       3.583  -0.616   0.043  0.00  0.00    -0.483 OA
BRANCH  11  12
ATOM     12  C   UNL     1       4.774   0.174   0.026  0.00  0.00    +0.324 C 
BRANCH  12  20
ATOM     13  C   UNL     1       8.073   1.579  -1.498  0.00  0.00    +0.028 C 
ATOM     14  C   UNL     1       7.411   1.247  -0.159  0.00  0.00    +0.073 C 
ATOM     15  C   UNL     1       8.317   1.706   0.995  0.00  0.00    +0.022 C 
ATOM     16  C   UNL     1       9.614   0.895   0.970  0.00  0.00    +0.004 C 
ATOM     17  C   UNL     1       9.295  -0.588   1.169  0.00  0.00    +0.022 C 
ATOM     18  C   UNL     1       8.401  -1.072   0.024  0.00  0.00    +0.073 C 
ATOM     19  N   UNL     1       7.217  -0.205  -0.051  0.00  0.00    -0.293 N 
ATOM     20  C   UNL     1       5.977  -0.732  -0.028  0.00  0.00    +0.254 C 
ATOM     21  O   UNL     1       5.829  -1.936  -0.050  0.00  0.00    -0.272 OA
ATOM     22  C   UNL     1       7.964  -2.514   0.288  0.00  0.00    +0.028 C 
ENDBRANCH  12  20
ENDBRANCH  11  12
ENDBRANCH   5  11
ENDBRANCH   1   8
BRANCH   3  23
ATOM     23  N   UNL     1      -2.525   4.173   0.308  0.00  0.00    -0.187 NA
ATOM     24  C   UNL     1      -2.537   5.472   0.338  0.00  0.00    +0.142 C 
BRANCH  24  25
ATOM     25  C   UNL     1      -3.819   6.196   0.383  0.00  0.00    +0.037 A 
ATOM     26  C   UNL     1      -3.835   7.593   0.415  0.00  0.00    +0.016 A 
ATOM     27  C   UNL     1      -5.036   8.266   0.457  0.00  0.00    +0.047 A 
ATOM     28  C   UNL     1      -6.234   7.560   0.469  0.00  0.00    +0.130 A 
ATOM     29  C   UNL     1      -6.228   6.173   0.438  0.00  0.00    +0.092 A 
ATOM     30  C   UNL     1      -5.028   5.486   0.390  0.00  0.00    +0.139 A 
BRANCH  30  31
ATOM     31  O   UNL     1      -5.022   4.128   0.354  0.00  0.00    -0.433 OA
BRANCH  31  32
ATOM     32  C   UNL     1      -6.291   3.473   0.363  0.00  0.00    +0.541 C 
ATOM     33  F   UNL     1      -6.984   3.815   1.529  0.00  0.00    -0.166 F 
ATOM     34  F   UNL     1      -7.032   3.875  -0.754  0.00  0.00    -0.166 F 
ENDBRANCH  31  32
ENDBRANCH  30  31
BRANCH  28  35
ATOM     35  O   UNL     1      -7.414   8.231   0.510  0.00  0.00    -0.434 OA
BRANCH  35  36
ATOM     36  C   UNL     1      -7.348   9.659   0.539  0.00  0.00    +0.541 C 
ATOM     37  F   UNL     1      -6.642  10.069   1.675  0.00  0.00    -0.166 F 
ATOM     38  F   UNL     1      -6.693  10.119  -0.608  0.00  0.00    -0.166 F 
ENDBRANCH  35  36
ENDBRANCH  28  35
ENDBRANCH  24  25
ENDBRANCH   3  23
TORSDOF 10
