REMARK  Name = ZINC13627969
REMARK  5 active torsions:
REMARK  status: ('A' for Active; 'I' for Inactive)
REMARK    1  A    between atoms: C_1  and  C_2
REMARK    2  A    between atoms: C_2  and  C_3
REMARK    3  A    between atoms: C_3  and  C_4
REMARK    4  A    between atoms: C_4  and  N_5
REMARK    5  A    between atoms: C_8  and  C_14
REMARK                            x       y       z     vdW  Elec       q    Type
REMARK                         _______ _______ _______ _____ _____    ______ ____
ROOT
ATOM      1  C   UNL     1      -0.013   1.086   0.008  0.00  0.00    +0.018 C 
ATOM      2  C   UNL     1      -0.751   1.590  -1.209  0.00  0.00    +0.011 A 
ATOM      3  C   UNL     1      -2.023   2.059  -1.153  0.00  0.00    -0.022 A 
ATOM      4  C   UNL     1      -2.392   2.449  -2.496  0.00  0.00    +0.004 A 
ATOM      5  C   UNL     1      -3.558   2.994  -3.042  0.00  0.00    +0.030 A 
ATOM      6  C   UNL     1      -3.554   3.244  -4.393  0.00  0.00    +0.042 A 
ATOM      7  C   UNL     1      -2.452   2.974  -5.188  0.00  0.00    +0.022 A 
ATOM      8  C   UNL     1      -1.285   2.435  -4.674  0.00  0.00    +0.027 A 
ATOM      9  C   UNL     1      -1.260   2.171  -3.307  0.00  0.00    +0.047 A 
ATOM     10  N   UNL     1      -0.293   1.652  -2.493  0.00  0.00    -0.359 N 
ATOM     11  H   UNL     1       0.724   1.308  -2.731  0.00  0.00    +0.166 HD
ATOM     12 CL   UNL     1      -4.975   3.919  -5.127  0.00  0.00    -0.084 Cl
ATOM     13  C   UNL     1      -2.832   2.127   0.118  0.00  0.00    +0.018 C 
ATOM     14  C   UNL     1      -2.143   1.243   1.167  0.00  0.00    -0.076 C 
ATOM     15  N   UNL     1      -0.710   1.564   1.213  0.00  0.00    +0.388 N 
ATOM     16  H   UNL     1      -0.273   1.087   2.103  0.00  0.00    -0.084 HD
ATOM     17  H   UNL     1      -0.599   2.656   1.291  0.00  0.00    -0.084 HD
ENDROOT
BRANCH   1  21
ATOM     18  N   UNL     1       2.918   3.441   0.096  0.00  0.00    -0.288 N 
ATOM     19  C   UNL     1       1.647   2.992   0.102  0.00  0.00    +0.260 A 
ATOM     20  O   UNL     1       0.720   3.776   0.202  0.00  0.00    -0.267 OA
ATOM     21  C   UNL     1       1.400   1.611  -0.003  0.00  0.00    +0.073 A 
ATOM     22  C   UNL     1       2.455   0.756  -0.120  0.00  0.00    +0.258 A 
ATOM     23  N   UNL     1       3.732   1.256  -0.127  0.00  0.00    -0.302 N 
ATOM     24  C   UNL     1       3.946   2.580  -0.020  0.00  0.00    +0.163 A 
ATOM     25  S   UNL     1       5.550   3.179  -0.032  0.00  0.00    -0.013 S 
ATOM     26  O   UNL     1       2.244  -0.573  -0.228  0.00  0.00    -0.267 OA
ATOM     27  H   UNL     1       4.589   0.574  -0.221  0.00  0.00    +0.171 HD
BRANCH  18  28
ATOM     28  C   UNL     1       3.182   4.878   0.210  0.00  0.00    +0.127 C 
BRANCH  28  29
ATOM     29  C   UNL     1       3.216   5.502  -1.186  0.00  0.00    +0.021 C 
BRANCH  29  31
ATOM     30  C   UNL     1       3.525   7.627  -2.463  0.00  0.00    +0.004 C 
ATOM     31  C   UNL     1       3.492   7.003  -1.067  0.00  0.00    -0.002 C 
ENDBRANCH  29  31
ENDBRANCH  28  29
ENDBRANCH  18  28
ENDBRANCH   1  21
TORSDOF 4
