REMARK  Name = ZINC10149994
REMARK  12 active torsions:
REMARK  status: ('A' for Active; 'I' for Inactive)
REMARK    1  A    between atoms: C_1  and  C_2
REMARK    2  A    between atoms: C_2  and  C_3
REMARK    3  A    between atoms: C_3  and  O_4
REMARK    4  A    between atoms: O_4  and  C_5
REMARK    5  A    between atoms: C_9  and  C_11
REMARK    6  A    between atoms: N_13  and  C_14
REMARK    7  A    between atoms: C_14  and  N_16
REMARK    8  A    between atoms: N_16  and  C_17
REMARK    9  A    between atoms: C_18  and  C_25
REMARK   10  A    between atoms: C_19  and  C_23
REMARK   11  A    between atoms: C_20  and  C_22
REMARK   12  A    between atoms: C_23  and  C_24
REMARK                            x       y       z     vdW  Elec       q    Type
REMARK                         _______ _______ _______ _____ _____    ______ ____
ROOT
ATOM      1  C   UNL     1       1.081   7.360   0.031  0.00  0.00    +0.141 C 
ATOM      2  S   UNL     1      -0.410   8.200   0.050  0.00  0.00    -0.018 S 
ENDROOT
BRANCH   1   5
ATOM      3  C   UNL     1      -0.064   5.326   0.031  0.00  0.00    +0.250 C 
ATOM      4  O   UNL     1      -1.123   5.923   0.044  0.00  0.00    -0.270 OA
ATOM      5  N   UNL     1       1.096   6.012   0.023  0.00  0.00    -0.264 N 
ATOM      6  H   UNL     1       1.941   5.536   0.013  0.00  0.00    +0.157 HD
BRANCH   3  11
ATOM      7  C   UNL     1      -1.226   1.751   0.017  0.00  0.00    +0.121 A 
ATOM      8  C   UNL     1      -0.013   1.076   0.008  0.00  0.00    +0.046 A 
ATOM      9  C   UNL     1       1.177   1.781   0.000  0.00  0.00    +0.004 A 
ATOM     10  C   UNL     1       1.166   3.161   0.007  0.00  0.00    +0.013 A 
ATOM     11  C   UNL     1      -0.049   3.848   0.023  0.00  0.00    +0.041 A 
ATOM     12  C   UNL     1      -1.248   3.135   0.031  0.00  0.00    +0.058 A 
BRANCH   7  13
ATOM     13  O   UNL     1      -2.392   1.053   0.019  0.00  0.00    -0.492 OA
BRANCH  13  14
ATOM     14  C   UNL     1      -2.294  -0.373   0.010  0.00  0.00    +0.229 C 
BRANCH  14  16
ATOM     15  C   UNL     1      -3.594  -2.507   0.004  0.00  0.00    +0.007 C 
ATOM     16  C   UNL     1      -3.699  -0.980   0.013  0.00  0.00    +0.038 C 
ENDBRANCH  14  16
ENDBRANCH  13  14
ENDBRANCH   7  13
ENDBRANCH   3  11
ENDBRANCH   1   5
BRANCH   1  17
ATOM     17  N   UNL     1       2.241   8.046   0.023  0.00  0.00    -0.291 N 
ATOM     18  H   UNL     1       3.087   7.570   0.013  0.00  0.00    +0.154 HD
BRANCH  17  19
ATOM     19  C   UNL     1       2.227   9.432   0.031  0.00  0.00    +0.084 A 
ATOM     20  C   UNL     1       3.307  10.307   0.025  0.00  0.00    +0.068 A 
ATOM     21  C   UNL     1       3.000  11.717   0.035  0.00  0.00    -0.024 A 
ATOM     22  C   UNL     1       1.700  12.062   0.049  0.00  0.00    -0.008 A 
ATOM     23  S   UNL     1       0.859  10.493   0.042  0.00  0.00    -0.078 S 
ATOM     24  C   UNL     1       1.100  13.445   0.061  0.00  0.00    +0.052 C 
BRANCH  20  25
ATOM     25  C   UNL     1       4.690   9.821   0.011  0.00  0.00    +0.244 C 
ATOM     26  O   UNL     1       5.255   9.625  -1.049  0.00  0.00    -0.270 OA
ATOM     27  N   UNL     1       5.336   9.592   1.171  0.00  0.00    -0.325 N 
ATOM     28  H   UNL     1       4.886   9.749   2.016  0.00  0.00    +0.145 HD
ATOM     29  H   UNL     1       6.251   9.271   1.162  0.00  0.00    +0.145 HD
ENDBRANCH  20  25
BRANCH  21  30
ATOM     30  C   UNL     1       4.089  12.759   0.031  0.00  0.00    +0.033 C 
ATOM     31  C   UNL     1       4.445  13.118  -1.413  0.00  0.00    +0.009 C 
ENDBRANCH  21  30
ENDBRANCH  17  19
ENDBRANCH   1  17
TORSDOF 9
