REMARK  Name = ZINC51730444
REMARK  6 active torsions:
REMARK  status: ('A' for Active; 'I' for Inactive)
REMARK    1  A    between atoms: C_1  and  C_2
REMARK    2  A    between atoms: N_6  and  C_11
REMARK    3  A    between atoms: C_7  and  C_10
REMARK    4  A    between atoms: C_13  and  N_21
REMARK    5  A    between atoms: C_15  and  S_17
REMARK    6  A    between atoms: S_17  and  N_20
REMARK                            x       y       z     vdW  Elec       q    Type
REMARK                         _______ _______ _______ _____ _____    ______ ____
ROOT
ATOM      1  C   UNL     1       2.342  -3.437  -0.038  0.00  0.00    +0.034 A 
ATOM      2  C   UNL     1       2.792  -3.959  -1.243  0.00  0.00    +0.046 A 
ATOM      3  C   UNL     1       3.843  -4.866  -1.253  0.00  0.00    +0.028 A 
ATOM      4  C   UNL     1       4.442  -5.247  -0.058  0.00  0.00    +0.051 A 
ATOM      5  C   UNL     1       3.991  -4.725   1.139  0.00  0.00    +0.108 A 
ATOM      6  C   UNL     1       2.949  -3.818   1.152  0.00  0.00    +0.051 A 
ENDROOT
BRANCH   1  11
ATOM      7  C   UNL     1      -0.018   1.525   0.041  0.00  0.00    +0.007 C 
ATOM      8  C   UNL     1       0.002  -0.004   0.017  0.00  0.00    -0.011 C 
ATOM      9  C   UNL     1       0.729  -0.484  -1.241  0.00  0.00    +0.022 C 
ATOM     10  C   UNL     1       0.718  -2.016  -1.280  0.00  0.00    +0.105 C 
ATOM     11  N   UNL     1       1.285  -2.525  -0.024  0.00  0.00    -0.327 N 
ATOM     12  C   UNL     1       0.719  -2.056   1.248  0.00  0.00    +0.071 C 
ATOM     13  C   UNL     1       0.730  -0.524   1.258  0.00  0.00    +0.025 C 
ATOM     14  C   UNL     1      -0.719  -2.562   1.387  0.00  0.00    +0.028 C 
ENDBRANCH   1  11
BRANCH   5  15
ATOM     15  S   UNL     1       4.753  -5.212   2.651  0.00  0.00    +0.056 S 
ATOM     16  O   UNL     1       3.792  -4.999   3.677  0.00  0.00    -0.153 OA
ATOM     17  O   UNL     1       5.348  -6.480   2.417  0.00  0.00    -0.153 OA
BRANCH  15  18
ATOM     18  N   UNL     1       5.993  -4.152   2.938  0.00  0.00    -0.204 NA
ATOM     19  H   UNL     1       6.171  -3.433   2.312  0.00  0.00    +0.144 HD
ATOM     20  H   UNL     1       6.542  -4.251   3.732  0.00  0.00    +0.144 HD
ENDBRANCH  15  18
ENDBRANCH   5  15
BRANCH   3  21
ATOM     21  N   UNL     1       4.299  -5.394  -2.463  0.00  0.00    -0.358 N 
ATOM     22  H   UNL     1       3.880  -5.128  -3.297  0.00  0.00    +0.142 HD
ATOM     23  H   UNL     1       5.033  -6.028  -2.470  0.00  0.00    +0.142 HD
ENDBRANCH   3  21
TORSDOF 4
