REMARK  Name = ZINC20998405
REMARK  7 active torsions:
REMARK  status: ('A' for Active; 'I' for Inactive)
REMARK    1  A    between atoms: C_1  and  C_2
REMARK    2  A    between atoms: C_2  and  C_3
REMARK    3  A    between atoms: C_2  and  C_4
REMARK    4  A    between atoms: C_6  and  C_10
REMARK    5  A    between atoms: C_10  and  N_11
REMARK    6  A    between atoms: C_24  and  C_26
REMARK    7  A    between atoms: C_30  and  O_32
REMARK                            x       y       z     vdW  Elec       q    Type
REMARK                         _______ _______ _______ _____ _____    ______ ____
ROOT
ATOM      1  N   UNL     1      -0.709   1.995  -1.193  0.00  0.00    -0.284 NA
ATOM      2  C   UNL     1      -0.573   3.452  -1.332  0.00  0.00    +0.090 C 
ATOM      3  C   UNL     1       0.871   3.796  -1.720  0.00  0.00    +0.053 C 
ATOM      4  C   UNL     1       1.794   3.060  -0.781  0.00  0.00    -0.016 A 
ATOM      5  C   UNL     1       3.200   3.276  -0.522  0.00  0.00    +0.003 A 
ATOM      6  C   UNL     1       4.131   4.188  -1.030  0.00  0.00    +0.010 A 
ATOM      7  C   UNL     1       5.412   4.103  -0.544  0.00  0.00    +0.001 A 
ATOM      8  C   UNL     1       5.779   3.161   0.404  0.00  0.00    +0.002 A 
ATOM      9  C   UNL     1       4.879   2.247   0.923  0.00  0.00    +0.026 A 
ATOM     10  C   UNL     1       3.570   2.309   0.448  0.00  0.00    +0.047 A 
ATOM     11  N   UNL     1       2.455   1.575   0.738  0.00  0.00    -0.356 N 
ATOM     12  H   UNL     1       2.510   0.760   1.474  0.00  0.00    +0.166 HD
ATOM     13  C   UNL     1       1.397   2.030  -0.000  0.00  0.00    +0.042 A 
ATOM     14  C   UNL     1      -0.018   1.503   0.010  0.00  0.00    +0.135 C 
ENDROOT
BRANCH  14  15
ATOM     15  C   UNL     1       0.002  -0.004   0.002  0.00  0.00    -0.021 A 
ATOM     16  C   UNL     1       0.208  -0.686  -1.183  0.00  0.00    +0.006 A 
ATOM     17  C   UNL     1       0.228  -2.068  -1.194  0.00  0.00    +0.004 A 
ATOM     18  C   UNL     1       0.043  -2.772  -0.020  0.00  0.00    +0.045 A 
ATOM     19  C   UNL     1      -0.165  -2.091   1.170  0.00  0.00    +0.117 A 
ATOM     20  C   UNL     1      -0.179  -0.703   1.179  0.00  0.00    +0.051 A 
BRANCH  19  21
ATOM     21  O   UNL     1      -0.347  -2.781   2.327  0.00  0.00    -0.507 OA
ATOM     22  H   UNL     1      -0.512  -2.240   3.270  0.00  0.00    +0.292 HD
ENDBRANCH  19  21
ENDBRANCH  14  15
BRANCH   1  23
ATOM     23  C   UNL     1      -2.122   1.595  -1.189  0.00  0.00    +0.142 C 
BRANCH  23  26
ATOM     24  C   UNL     1      -3.771   2.755  -4.273  0.00  0.00    +0.039 A 
ATOM     25  C   UNL     1      -3.088   1.814  -3.581  0.00  0.00    +0.049 A 
ATOM     26  C   UNL     1      -2.850   2.314  -2.296  0.00  0.00    +0.077 A 
ATOM     27  N   UNL     1      -3.364   3.515  -2.223  0.00  0.00    -0.177 NA
ATOM     28  N   UNL     1      -3.951   3.816  -3.459  0.00  0.00    -0.281 N 
ATOM     29  H   UNL     1      -4.485   4.705  -3.824  0.00  0.00    +0.189 HD
BRANCH  24  31
ATOM     30  C   UNL     1      -5.579   3.365  -5.856  0.00  0.00    +0.014 C 
ATOM     31  C   UNL     1      -4.240   2.641  -5.701  0.00  0.00    +0.031 C 
ATOM     32  C   UNL     1      -3.205   3.277  -6.631  0.00  0.00    +0.014 C 
ENDBRANCH  24  31
ENDBRANCH  23  26
ENDBRANCH   1  23
TORSDOF 5
