REMARK  Name = ZINC39362751
REMARK  9 active torsions:
REMARK  status: ('A' for Active; 'I' for Inactive)
REMARK    1  A    between atoms: C_1  and  C_2
REMARK    2  A    between atoms: C_5  and  C_35
REMARK    3  A    between atoms: C_6  and  N_8
REMARK    4  A    between atoms: C_9  and  C_11
REMARK    5  A    between atoms: C_11  and  S_12
REMARK    6  A    between atoms: S_12  and  C_13
REMARK    7  A    between atoms: C_16  and  C_26
REMARK    8  A    between atoms: N_18  and  C_19
REMARK    9  A    between atoms: C_26  and  C_27
REMARK                            x       y       z     vdW  Elec       q    Type
REMARK                         _______ _______ _______ _____ _____    ______ ____
ROOT
ATOM      1  C   UNL     1       0.538  -2.770   7.657  0.00  0.00    +0.180 C 
ATOM      2  N   UNL     1       0.557  -4.059   7.611  0.00  0.00    -0.162 NA
ATOM      3  N   UNL     1       0.680  -4.616   8.890  0.00  0.00    -0.246 N 
ATOM      4  C   UNL     1       0.742  -3.482   9.828  0.00  0.00    +0.187 C 
ATOM      5  N   UNL     1       0.649  -2.297   8.957  0.00  0.00    -0.258 N 
ATOM      6  H   UNL     1       0.717  -5.559   9.114  0.00  0.00    +0.170 HD
ENDROOT
BRANCH   5   7
ATOM      7  C   UNL     1       0.668  -0.959   9.361  0.00  0.00    +0.038 A 
ATOM      8  C   UNL     1       1.810  -0.423   9.941  0.00  0.00    +0.026 A 
ATOM      9  C   UNL     1       1.827   0.899  10.339  0.00  0.00    +0.040 A 
ATOM     10  C   UNL     1       0.705   1.691  10.160  0.00  0.00    +0.124 A 
ATOM     11  C   UNL     1      -0.436   1.159   9.582  0.00  0.00    +0.040 A 
ATOM     12  C   UNL     1      -0.455  -0.161   9.177  0.00  0.00    +0.026 A 
ATOM     13  F   UNL     1       0.722   2.984  10.551  0.00  0.00    -0.205 F 
ENDBRANCH   5   7
BRANCH   1  14
ATOM     14  S   UNL     1       0.394  -1.734   6.239  0.00  0.00    -0.079 S 
BRANCH  14  15
ATOM     15  C   UNL     1       0.284  -2.900   4.853  0.00  0.00    +0.173 C 
BRANCH  15  17
ATOM     16  N   UNL     1       0.058  -2.797   2.392  0.00  0.00    -0.285 N 
ATOM     17  C   UNL     1       0.156  -2.134   3.562  0.00  0.00    +0.227 C 
ATOM     18  O   UNL     1       0.140  -0.922   3.574  0.00  0.00    -0.275 OA
ATOM     19  H   UNL     1      -0.010  -3.765   2.387  0.00  0.00    +0.155 HD
BRANCH  16  25
ATOM     20  C   UNL     1       1.275   1.227  -0.157  0.00  0.00    +0.044 C 
ATOM     21  C   UNL     1       0.638  -0.137  -0.079  0.00  0.00    -0.049 A 
ATOM     22  C   UNL     1       0.049  -0.690  -1.202  0.00  0.00    +0.004 A 
ATOM     23  C   UNL     1      -0.536  -1.941  -1.134  0.00  0.00    +0.005 A 
ATOM     24  C   UNL     1      -0.534  -2.642   0.056  0.00  0.00    -0.029 A 
ATOM     25  C   UNL     1       0.056  -2.090   1.185  0.00  0.00    +0.037 A 
ATOM     26  C   UNL     1       0.647  -0.835   1.112  0.00  0.00    +0.027 A 
ATOM     27  C   UNL     1      -1.172  -4.005   0.129  0.00  0.00    +0.045 C 
ENDBRANCH  16  25
ENDBRANCH  15  17
ENDBRANCH  14  15
ENDBRANCH   1  14
BRANCH   4  28
ATOM     28  C   UNL     1      -0.432  -3.530  10.807  0.00  0.00    +0.097 C 
BRANCH  28  29
ATOM     29  C   UNL     1      -0.292  -4.736  11.700  0.00  0.00    +0.029 A 
ATOM     30  N   UNL     1      -0.753  -5.956  11.285  0.00  0.00    -0.311 N 
ATOM     31  C   UNL     1      -0.632  -7.039  12.074  0.00  0.00    +0.327 A 
ATOM     32  O   UNL     1      -1.049  -8.113  11.685  0.00  0.00    -0.247 OA
ATOM     33  N   UNL     1      -0.057  -6.950  13.287  0.00  0.00    -0.275 N 
ATOM     34  C   UNL     1       0.410  -5.766  13.733  0.00  0.00    +0.254 A 
ATOM     35  O   UNL     1       0.931  -5.685  14.831  0.00  0.00    -0.268 OA
ATOM     36  C   UNL     1       0.294  -4.620  12.911  0.00  0.00    +0.091 A 
ATOM     37  H   UNL     1       0.023  -7.741  13.843  0.00  0.00    +0.173 HD
ATOM     38  H   UNL     1      -1.171  -6.040  10.414  0.00  0.00    +0.170 HD
ENDBRANCH  28  29
ENDBRANCH   4  28
TORSDOF 7
