REMARK  Name = ZINC36635763
REMARK  3 active torsions:
REMARK  status: ('A' for Active; 'I' for Inactive)
REMARK    1  A    between atoms: C_6  and  N_7
REMARK    2  A    between atoms: N_7  and  C_8
REMARK    3  A    between atoms: N_13  and  C_16
REMARK                            x       y       z     vdW  Elec       q    Type
REMARK                         _______ _______ _______ _____ _____    ______ ____
ROOT
ATOM      1  C   UNL     1      -1.113  -2.325  -0.058  0.00  0.00    +0.166 C 
ATOM      2  C   UNL     1      -2.567  -2.605  -0.488  0.00  0.00    +0.128 C 
ATOM      3  C   UNL     1      -3.153  -3.338   0.699  0.00  0.00    +0.228 C 
ATOM      4  O   UNL     1      -4.291  -3.748   0.779  0.00  0.00    -0.275 OA
ATOM      5  N   UNL     1      -2.216  -3.462   1.646  0.00  0.00    -0.209 N 
ATOM      6  C   UNL     1      -1.026  -2.929   1.326  0.00  0.00    +0.247 C 
ATOM      7  O   UNL     1      -0.040  -2.930   2.032  0.00  0.00    -0.273 OA
ENDROOT
BRANCH   5   8
ATOM      8  C   UNL     1      -2.456  -4.099   2.873  0.00  0.00    +0.044 A 
ATOM      9  C   UNL     1      -2.691  -5.467   2.911  0.00  0.00    +0.027 A 
ATOM     10  C   UNL     1      -2.927  -6.093   4.119  0.00  0.00    +0.040 A 
ATOM     11  C   UNL     1      -2.929  -5.357   5.292  0.00  0.00    +0.124 A 
ATOM     12  C   UNL     1      -2.695  -3.992   5.256  0.00  0.00    +0.040 A 
ATOM     13  C   UNL     1      -2.453  -3.364   4.050  0.00  0.00    +0.027 A 
ATOM     14  F   UNL     1      -3.161  -5.971   6.473  0.00  0.00    -0.205 F 
ENDBRANCH   5   8
BRANCH   1  15
ATOM     15  N   UNL     1      -0.859  -0.883  -0.008  0.00  0.00    -0.333 N 
ATOM     16  H   UNL     1      -1.597  -0.264   0.100  0.00  0.00    +0.147 HD
BRANCH  15  22
ATOM     17  C   UNL     1       0.690   0.967  -0.069  0.00  0.00    +0.024 A 
ATOM     18  C   UNL     1       1.983   1.442  -0.176  0.00  0.00    +0.017 A 
ATOM     19  C   UNL     1       3.035   0.558  -0.330  0.00  0.00    +0.018 A 
ATOM     20  C   UNL     1       2.797  -0.804  -0.378  0.00  0.00    +0.017 A 
ATOM     21  C   UNL     1       1.507  -1.285  -0.271  0.00  0.00    +0.024 A 
ATOM     22  C   UNL     1       0.448  -0.399  -0.116  0.00  0.00    +0.028 A 
ATOM     23 BR   UNL     1       4.804   1.212  -0.477  0.00  0.00    -0.050 Br
ENDBRANCH  15  22
ENDBRANCH   1  15
TORSDOF 3
