REMARK  Name = ZINC14644408
REMARK  11 active torsions:
REMARK  status: ('A' for Active; 'I' for Inactive)
REMARK    1  A    between atoms: C_1  and  C_2
REMARK    2  A    between atoms: C_2  and  C_4
REMARK    3  A    between atoms: C_2  and  O_23
REMARK    4  A    between atoms: N_6  and  N_7
REMARK    5  A    between atoms: C_8  and  C_10
REMARK    6  A    between atoms: C_13  and  N_16
REMARK    7  A    between atoms: C_17  and  C_19
REMARK    8  A    between atoms: C_19  and  C_20
REMARK    9  A    between atoms: C_20  and  C_21
REMARK   10  A    between atoms: C_20  and  C_22
REMARK   11  A    between atoms: O_23  and  C_24
REMARK                            x       y       z     vdW  Elec       q    Type
REMARK                         _______ _______ _______ _____ _____    ______ ____
ROOT
ATOM      1  N   UNL     1       0.774  -0.947  -3.586  0.00  0.00    -0.230 N 
ATOM      2  C   UNL     1       0.378  -0.513  -4.798  0.00  0.00    +0.260 C 
ATOM      3  O   UNL     1      -0.564   0.250  -4.893  0.00  0.00    -0.269 OA
ATOM      4  H   UNL     1       1.526  -1.556  -3.510  0.00  0.00    +0.173 HD
ENDROOT
BRANCH   2   5
ATOM      5  C   UNL     1       1.088  -0.963  -6.011  0.00  0.00    +0.038 A 
ATOM      6  C   UNL     1       2.167  -1.845  -5.905  0.00  0.00    +0.015 A 
ATOM      7  C   UNL     1       2.827  -2.263  -7.038  0.00  0.00    +0.024 A 
ATOM      8  C   UNL     1       2.421  -1.809  -8.289  0.00  0.00    +0.033 A 
ATOM      9  C   UNL     1       1.347  -0.931  -8.399  0.00  0.00    +0.024 A 
ATOM     10  C   UNL     1       0.679  -0.514  -7.270  0.00  0.00    +0.015 A 
BRANCH   8  11
ATOM     11  N   UNL     1       3.091  -2.235  -9.435  0.00  0.00    -0.285 N 
ATOM     12  C   UNL     1       4.424  -2.429  -9.403  0.00  0.00    +0.217 C 
ATOM     13  O   UNL     1       5.029  -2.314  -8.358  0.00  0.00    -0.275 OA
ATOM     14  H   UNL     1       2.598  -2.392 -10.256  0.00  0.00    +0.155 HD
BRANCH  12  15
ATOM     15  C   UNL     1       5.164  -2.789 -10.666  0.00  0.00    +0.099 C 
BRANCH  15  16
ATOM     16  C   UNL     1       6.653  -2.952 -10.356  0.00  0.00    -0.008 C 
ATOM     17  C   UNL     1       7.385  -3.439 -11.608  0.00  0.00    +0.008 C 
ATOM     18  C   UNL     1       7.233  -1.606  -9.917  0.00  0.00    +0.008 C 
ENDBRANCH  15  16
ENDBRANCH  12  15
ENDBRANCH   8  11
ENDBRANCH   2   5
BRANCH   1  21
ATOM     19  C   UNL     1       0.496  -0.954  -1.221  0.00  0.00    +0.270 C 
ATOM     20  O   UNL     1       1.436  -1.715  -1.127  0.00  0.00    -0.270 OA
ATOM     21  N   UNL     1       0.101  -0.520  -2.434  0.00  0.00    -0.231 N 
ATOM     22  H   UNL     1      -0.651   0.089  -2.510  0.00  0.00    +0.173 HD
BRANCH  19  24
ATOM     23  C   UNL     1      -0.035   1.013   0.191  0.00  0.00    +0.062 C 
ATOM     24  C   UNL     1      -0.228  -0.494   0.018  0.00  0.00    +0.257 C 
BRANCH  24  25
ATOM     25  O   UNL     1       0.297  -1.177   1.158  0.00  0.00    -0.479 OA
BRANCH  25  26
ATOM     26  C   UNL     1      -0.523  -1.302   2.234  0.00  0.00    +0.136 A 
ATOM     27  C   UNL     1      -1.765  -0.683   2.237  0.00  0.00    +0.048 A 
ATOM     28  C   UNL     1      -2.597  -0.813   3.332  0.00  0.00    +0.023 A 
ATOM     29  C   UNL     1      -2.194  -1.558   4.426  0.00  0.00    +0.042 A 
ATOM     30  C   UNL     1      -0.956  -2.176   4.425  0.00  0.00    +0.039 A 
ATOM     31  C   UNL     1      -0.122  -2.054   3.330  0.00  0.00    +0.061 A 
ATOM     32 BR   UNL     1       1.566  -2.905   3.326  0.00  0.00    -0.046 Br
ATOM     33 CL   UNL     1      -3.242  -1.718   5.800  0.00  0.00    -0.084 Cl
ENDBRANCH  25  26
ENDBRANCH  24  25
ENDBRANCH  19  24
ENDBRANCH   1  21
TORSDOF 8
