REMARK  Name = ZINC03897369
REMARK  0 active torsions:
REMARK  status: ('A' for Active; 'I' for Inactive)
REMARK                            x       y       z     vdW  Elec       q    Type
REMARK                         _______ _______ _______ _____ _____    ______ ____
ROOT
ATOM      1  C   UNL     1      -3.460   7.532  -0.488  0.00  0.00    +0.131 C 
ATOM      2  C   UNL     1      -4.614   6.912   0.302  0.00  0.00    +0.178 C 
ATOM      3  O   UNL     1      -4.098   6.258   1.463  0.00  0.00    -0.377 OA
ATOM      4  C   UNL     1      -5.069   5.490   2.177  0.00  0.00    +0.178 C 
ATOM      5  C   UNL     1      -4.459   4.989   3.488  0.00  0.00    +0.131 C 
ATOM      6  N   UNL     1      -4.455   3.512   3.478  0.00  0.00    -0.324 N 
ATOM      7  C   UNL     1      -3.239   2.911   3.353  0.00  0.00    +0.130 C 
ATOM      8  S   UNL     1      -1.805   3.837   3.220  0.00  0.00    -0.019 S 
ATOM      9  N   UNL     1      -3.201   1.549   3.336  0.00  0.00    -0.324 N 
ATOM     10  C   UNL     1      -1.866   0.932   3.199  0.00  0.00    +0.131 C 
ATOM     11  C   UNL     1      -1.619   0.613   1.723  0.00  0.00    +0.178 C 
ATOM     12  O   UNL     1      -0.681   1.547   1.184  0.00  0.00    -0.376 OA
ATOM     13  C   UNL     1      -0.013   1.086   0.008  0.00  0.00    +0.188 C 
ATOM     14  C   UNL     1      -0.753   1.593  -1.232  0.00  0.00    +0.188 C 
ATOM     15  O   UNL     1      -0.353   2.936  -1.509  0.00  0.00    -0.376 OA
ATOM     16  C   UNL     1      -0.464   3.303  -2.885  0.00  0.00    +0.178 C 
ATOM     17  C   UNL     1      -0.371   4.825  -3.017  0.00  0.00    +0.131 C 
ATOM     18  N   UNL     1      -1.729   5.396  -2.914  0.00  0.00    -0.324 N 
ATOM     19  C   UNL     1      -1.977   6.177  -1.825  0.00  0.00    +0.130 C 
ATOM     20  S   UNL     1      -0.762   6.467  -0.654  0.00  0.00    -0.019 S 
ATOM     21  N   UNL     1      -3.220   6.719  -1.698  0.00  0.00    -0.324 N 
ATOM     22  H   UNL     1      -5.274   2.998   3.556  0.00  0.00    +0.148 HD
ATOM     23  H   UNL     1      -4.006   1.014   3.409  0.00  0.00    +0.148 HD
ATOM     24  H   UNL     1      -2.408   5.225  -3.585  0.00  0.00    +0.148 HD
ATOM     25  H   UNL     1      -3.910   6.579  -2.365  0.00  0.00    +0.148 HD
ENDROOT
TORSDOF 0
