REMARK  Name = ZINC09472418
REMARK  7 active torsions:
REMARK  status: ('A' for Active; 'I' for Inactive)
REMARK    1  A    between atoms: C_1  and  C_2
REMARK    2  A    between atoms: C_3  and  C_24
REMARK    3  A    between atoms: C_4  and  N_11
REMARK    4  A    between atoms: C_6  and  C_7
REMARK    5  A    between atoms: C_7  and  O_9
REMARK    6  A    between atoms: O_9  and  C_10
REMARK    7  A    between atoms: C_12  and  C_14
REMARK                            x       y       z     vdW  Elec       q    Type
REMARK                         _______ _______ _______ _____ _____    ______ ____
ROOT
ATOM      1  C   UNL     1      -5.815  10.569  -0.164  0.00  0.00    +0.046 C 
ATOM      2  C   UNL     1      -4.669   9.594  -0.081  0.00  0.00    -0.015 A 
ATOM      3  C   UNL     1      -4.889   8.226  -0.109  0.00  0.00    +0.069 A 
ATOM      4  C   UNL     1      -3.773   7.385  -0.028  0.00  0.00    +0.085 A 
ATOM      5  S   UNL     1      -2.454   8.503   0.092  0.00  0.00    -0.066 S 
ATOM      6  C   UNL     1      -3.375  10.028   0.024  0.00  0.00    +0.102 A 
ENDROOT
BRANCH   3   7
ATOM      7  C   UNL     1      -6.247   7.677  -0.220  0.00  0.00    +0.244 C 
ATOM      8  O   UNL     1      -6.892   7.442   0.785  0.00  0.00    -0.270 OA
ATOM      9  N   UNL     1      -6.778   7.434  -1.434  0.00  0.00    -0.325 N 
ATOM     10  H   UNL     1      -6.264   7.621  -2.235  0.00  0.00    +0.145 HD
ATOM     11  H   UNL     1      -7.675   7.071  -1.508  0.00  0.00    +0.145 HD
ENDBRANCH   3   7
BRANCH   4  12
ATOM     12  N   UNL     1      -3.734   6.006  -0.035  0.00  0.00    -0.275 N 
ATOM     13  C   UNL     1      -2.552   5.365   0.053  0.00  0.00    +0.249 C 
ATOM     14  O   UNL     1      -1.520   6.003   0.139  0.00  0.00    -0.270 OA
ATOM     15  H   UNL     1      -4.557   5.498  -0.103  0.00  0.00    +0.156 HD
BRANCH  13  16
ATOM     16  C   UNL     1      -2.510   3.892   0.045  0.00  0.00    +0.045 A 
ATOM     17  C   UNL     1      -3.683   3.149   0.068  0.00  0.00    +0.014 A 
ATOM     18  C   UNL     1      -3.640   1.762   0.062  0.00  0.00    +0.001 A 
ATOM     19  C   UNL     1      -2.463   1.079   0.032  0.00  0.00    +0.008 A 
ATOM     20  C   UNL     1      -1.237   1.766   0.001  0.00  0.00    -0.017 A 
ATOM     21  C   UNL     1      -1.233   3.183   0.013  0.00  0.00    -0.006 A 
ATOM     22  C   UNL     1      -0.013   3.871  -0.012  0.00  0.00    +0.009 A 
ATOM     23  C   UNL     1       1.155   3.170  -0.041  0.00  0.00    +0.001 A 
ATOM     24  C   UNL     1       1.154   1.777  -0.047  0.00  0.00    +0.001 A 
ATOM     25  C   UNL     1      -0.013   1.076  -0.024  0.00  0.00    +0.008 A 
ENDBRANCH  13  16
ENDBRANCH   4  12
BRANCH   6  26
ATOM     26  C   UNL     1      -2.873  11.401   0.074  0.00  0.00    +0.346 C 
ATOM     27  O   UNL     1      -3.651  12.335   0.021  0.00  0.00    -0.244 OA
BRANCH  26  28
ATOM     28  O   UNL     1      -1.548  11.631   0.180  0.00  0.00    -0.464 OA
ATOM     29  C   UNL     1      -1.128  12.996   0.224  0.00  0.00    +0.280 C 
ENDBRANCH  26  28
ENDBRANCH   6  26
TORSDOF 5
