REMARK  Name = ZINC02963417
REMARK  5 active torsions:
REMARK  status: ('A' for Active; 'I' for Inactive)
REMARK    1  A    between atoms: C_1  and  C_2
REMARK    2  A    between atoms: C_2  and  O_3
REMARK    3  A    between atoms: O_3  and  C_4
REMARK    4  A    between atoms: C_11  and  C_26
REMARK    5  A    between atoms: N_18  and  C_19
REMARK                            x       y       z     vdW  Elec       q    Type
REMARK                         _______ _______ _______ _____ _____    ______ ____
ROOT
ATOM      1  C   UNL     1       2.570   3.262   1.853  0.00  0.00    +0.162 A 
ATOM      2  C   UNL     1       3.746   2.652   1.454  0.00  0.00    +0.049 A 
ATOM      3  C   UNL     1       3.704   1.543   0.630  0.00  0.00    +0.004 A 
ATOM      4  C   UNL     1       2.488   1.045   0.203  0.00  0.00    +0.009 A 
ATOM      5  C   UNL     1       1.309   1.653   0.597  0.00  0.00    +0.018 A 
ATOM      6  C   UNL     1       1.340   2.760   1.425  0.00  0.00    +0.170 A 
ATOM      7  O   UNL     1       0.205   3.378   1.843  0.00  0.00    -0.464 OA
ATOM      8  C   UNL     1      -1.031   3.034   1.223  0.00  0.00    +0.183 C 
ATOM      9  C   UNL     1      -1.105   1.490   1.102  0.00  0.00    +0.096 C 
ATOM     10  C   UNL     1      -0.005   1.088   0.106  0.00  0.00    +0.111 C 
ATOM     11  N   UNL     1      -0.301   1.726  -1.188  0.00  0.00    -0.319 N 
ATOM     12  C   UNL     1      -0.813   2.967  -1.218  0.00  0.00    +0.141 C 
ATOM     13  S   UNL     1      -1.064   3.720  -2.735  0.00  0.00    -0.018 S 
ATOM     14  N   UNL     1      -1.135   3.639  -0.102  0.00  0.00    -0.244 N 
ATOM     15  C   UNL     1      -2.190   3.522   2.095  0.00  0.00    +0.079 C 
ATOM     16  H   UNL     1      -0.127   1.251  -2.016  0.00  0.00    +0.148 HD
ENDROOT
BRANCH  14  17
ATOM     17  C   UNL     1      -1.583   4.961  -0.211  0.00  0.00    +0.039 A 
ATOM     18  C   UNL     1      -0.690   6.013  -0.057  0.00  0.00    +0.026 A 
ATOM     19  C   UNL     1      -1.134   7.316  -0.169  0.00  0.00    +0.040 A 
ATOM     20  C   UNL     1      -2.470   7.574  -0.426  0.00  0.00    +0.124 A 
ATOM     21  C   UNL     1      -3.363   6.526  -0.576  0.00  0.00    +0.040 A 
ATOM     22  C   UNL     1      -2.922   5.222  -0.469  0.00  0.00    +0.026 A 
ATOM     23  F   UNL     1      -2.903   8.849  -0.531  0.00  0.00    -0.205 F 
ENDBRANCH  14  17
BRANCH   1  24
ATOM     24  O   UNL     1       2.612   4.354   2.663  0.00  0.00    -0.489 OA
BRANCH  24  26
ATOM     25  C   UNL     1       3.750   6.042   3.965  0.00  0.00    +0.048 C 
ATOM     26  C   UNL     1       3.904   4.815   3.064  0.00  0.00    +0.226 C 
ENDBRANCH  24  26
ENDBRANCH   1  24
TORSDOF 3
