REMARK  Name = ZINC50227386
REMARK  4 active torsions:
REMARK  status: ('A' for Active; 'I' for Inactive)
REMARK    1  A    between atoms: C_1  and  S_2
REMARK    2  A    between atoms: S_2  and  C_5
REMARK    3  A    between atoms: C_13  and  C_15
REMARK    4  A    between atoms: C_17  and  N_22
REMARK                            x       y       z     vdW  Elec       q    Type
REMARK                         _______ _______ _______ _____ _____    ______ ____
ROOT
ATOM      1  C   UNL     1       0.845  -0.444  -1.482  0.00  0.00    +0.090 A 
ATOM      2  C   UNL     1       0.128  -0.604  -2.659  0.00  0.00    +0.029 A 
ATOM      3  C   UNL     1       0.764  -0.933  -3.823  0.00  0.00    +0.032 A 
ATOM      4  C   UNL     1       2.151  -1.111  -3.833  0.00  0.00    +0.090 A 
ATOM      5  C   UNL     1       2.877  -0.949  -2.639  0.00  0.00    +0.068 A 
ATOM      6  C   UNL     1       2.213  -0.609  -1.468  0.00  0.00    +0.054 A 
ATOM      7  N   UNL     1       4.200  -1.186  -2.958  0.00  0.00    -0.338 N 
ATOM      8  H   UNL     1       4.954  -1.151  -2.348  0.00  0.00    +0.167 HD
ATOM      9  C   UNL     1       4.249  -1.478  -4.294  0.00  0.00    +0.141 A 
ATOM     10  N   UNL     1       3.042  -1.432  -4.802  0.00  0.00    -0.228 NA
ENDROOT
BRANCH   9  11
ATOM     11  C   UNL     1       5.479  -1.795  -5.051  0.00  0.00    +0.037 A 
ATOM     12  C   UNL     1       6.725  -1.705  -4.431  0.00  0.00    +0.035 A 
ATOM     13  C   UNL     1       7.873  -2.005  -5.146  0.00  0.00    +0.025 A 
ATOM     14  C   UNL     1       7.782  -2.393  -6.478  0.00  0.00    +0.024 A 
ATOM     15  C   UNL     1       6.548  -2.482  -7.094  0.00  0.00    +0.022 A 
ATOM     16  C   UNL     1       5.396  -2.192  -6.387  0.00  0.00    +0.052 A 
ATOM     17 CL   UNL     1       3.848  -2.313  -7.163  0.00  0.00    -0.083 Cl
BRANCH  13  18
ATOM     18  N   UNL     1       9.124  -1.916  -4.529  0.00  0.00    -0.358 N 
ATOM     19  H   UNL     1       9.188  -1.645  -3.600  0.00  0.00    +0.142 HD
ATOM     20  H   UNL     1       9.928  -2.125  -5.030  0.00  0.00    +0.142 HD
ENDBRANCH  13  18
ENDBRANCH   9  11
BRANCH   1  22
ATOM     21  C   UNL     1      -0.014   1.794   0.032  0.00  0.00    +0.200 C 
ATOM     22  S   UNL     1       0.000  -0.020   0.005  0.00  0.00    -0.006 S 
ATOM     23  O   UNL     1       0.828  -0.518   1.047  0.00  0.00    -0.170 OA
ATOM     24  O   UNL     1      -1.319  -0.517  -0.172  0.00  0.00    -0.170 OA
ENDBRANCH   1  22
TORSDOF 3
