REMARK  Name = ZINC20608680
REMARK  11 active torsions:
REMARK  status: ('A' for Active; 'I' for Inactive)
REMARK    1  A    between atoms: C_1  and  C_2
REMARK    2  A    between atoms: C_2  and  N_3
REMARK    3  A    between atoms: N_3  and  C_4
REMARK    4  A    between atoms: N_3  and  C_6
REMARK    5  A    between atoms: C_4  and  C_5
REMARK    6  A    between atoms: C_9  and  N_12
REMARK    7  A    between atoms: C_13  and  C_15
REMARK    8  A    between atoms: C_15  and  S_16
REMARK    9  A    between atoms: S_16  and  C_17
REMARK   10  A    between atoms: N_22  and  N_23
REMARK   11  A    between atoms: C_24  and  C_25
REMARK                            x       y       z     vdW  Elec       q    Type
REMARK                         _______ _______ _______ _____ _____    ______ ____
ROOT
ATOM      1  S   UNL     1      -0.194  -8.791  -4.267  0.00  0.00    -0.075 S 
ENDROOT
BRANCH   1   2
ATOM      2  C   UNL     1      -0.193 -10.549  -4.142  0.00  0.00    +0.211 A 
ATOM      3  N   UNL     1      -0.551 -11.397  -5.113  0.00  0.00    -0.186 NA
ATOM      4  C   UNL     1      -0.431 -12.636  -4.684  0.00  0.00    +0.232 A 
ATOM      5  N   UNL     1       0.012 -12.595  -3.410  0.00  0.00    -0.245 N 
ATOM      6  N   UNL     1       0.164 -11.238  -3.085  0.00  0.00    -0.144 NA
ATOM      7  N   UNL     1      -0.712 -13.778  -5.411  0.00  0.00    -0.205 N 
ATOM      8  H   UNL     1      -0.593 -14.652  -5.007  0.00  0.00    +0.177 HD
ATOM      9  H   UNL     1       0.194 -13.354  -2.833  0.00  0.00    +0.192 HD
BRANCH   7  10
ATOM     10  N   UNL     1      -1.167 -13.674  -6.732  0.00  0.00    -0.188 NA
ATOM     11  C   UNL     1      -1.430 -14.746  -7.415  0.00  0.00    +0.139 C 
BRANCH  11  12
ATOM     12  C   UNL     1      -1.910 -14.636  -8.805  0.00  0.00    +0.013 A 
ATOM     13  C   UNL     1      -2.199 -15.788  -9.541  0.00  0.00    +0.011 A 
ATOM     14  C   UNL     1      -2.647 -15.677 -10.840  0.00  0.00    +0.001 A 
ATOM     15  C   UNL     1      -2.810 -14.429 -11.417  0.00  0.00    +0.001 A 
ATOM     16  C   UNL     1      -2.526 -13.284 -10.695  0.00  0.00    +0.020 A 
ATOM     17  C   UNL     1      -2.083 -13.379  -9.391  0.00  0.00    +0.050 A 
ATOM     18 CL   UNL     1      -1.734 -11.940  -8.483  0.00  0.00    -0.083 Cl
ENDBRANCH  11  12
ENDBRANCH   7  10
ENDBRANCH   1   2
BRANCH   1  19
ATOM     19  C   UNL     1       0.392  -8.236  -2.643  0.00  0.00    +0.173 C 
BRANCH  19  21
ATOM     20  N   UNL     1       0.848  -6.090  -1.500  0.00  0.00    -0.285 N 
ATOM     21  C   UNL     1       0.439  -6.730  -2.614  0.00  0.00    +0.227 C 
ATOM     22  O   UNL     1       0.109  -6.094  -3.593  0.00  0.00    -0.275 OA
ATOM     23  H   UNL     1       1.181  -6.597  -0.744  0.00  0.00    +0.155 HD
BRANCH  20  27
ATOM     24  C   UNL     1       0.679  -1.931  -1.307  0.00  0.00    +0.014 A 
ATOM     25  C   UNL     1      -0.289  -2.629  -2.005  0.00  0.00    +0.023 A 
ATOM     26  C   UNL     1      -0.236  -4.008  -2.071  0.00  0.00    +0.025 A 
ATOM     27  C   UNL     1       0.791  -4.693  -1.436  0.00  0.00    +0.034 A 
ATOM     28  C   UNL     1       1.763  -3.989  -0.736  0.00  0.00    +0.025 A 
ATOM     29  C   UNL     1       1.706  -2.610  -0.678  0.00  0.00    +0.023 A 
BRANCH  24  30
ATOM     30  N   UNL     1       0.623  -0.536  -1.242  0.00  0.00    -0.394 NA
ATOM     31  H   UNL     1       1.402  -0.193  -0.702  0.00  0.00    +0.126 HD
BRANCH  30  33
ATOM     32  C   UNL     1       2.036  -0.324  -3.231  0.00  0.00    +0.022 C 
ATOM     33  C   UNL     1       0.685   0.020  -2.600  0.00  0.00    +0.081 C 
ENDBRANCH  30  33
BRANCH  30  34
ATOM     34  C   UNL     1      -0.635  -0.126  -0.603  0.00  0.00    +0.081 C 
ATOM     35  C   UNL     1      -0.651  -0.613   0.848  0.00  0.00    +0.022 C 
ENDBRANCH  30  34
ENDBRANCH  24  30
ENDBRANCH  20  27
ENDBRANCH  19  21
ENDBRANCH   1  19
TORSDOF 9
