REMARK  Name = ZINC40779876
REMARK  5 active torsions:
REMARK  status: ('A' for Active; 'I' for Inactive)
REMARK    1  A    between atoms: C_1  and  C_2
REMARK    2  A    between atoms: C_5  and  O_8
REMARK    3  A    between atoms: O_8  and  C_9
REMARK    4  A    between atoms: C_10  and  N_23
REMARK    5  A    between atoms: C_11  and  N_15
REMARK                            x       y       z     vdW  Elec       q    Type
REMARK                         _______ _______ _______ _____ _____    ______ ____
ROOT
ATOM      1  C   UNL     1       0.130  -4.777   1.167  0.00  0.00    +0.246 A 
ATOM      2  C   UNL     1       0.280  -6.163   1.213  0.00  0.00    +0.128 A 
ATOM      3  C   UNL     1       0.415  -6.771   2.464  0.00  0.00    +0.152 A 
ATOM      4  N   UNL     1       0.397  -6.010   3.555  0.00  0.00    -0.218 NA
ATOM      5  C   UNL     1       0.254  -4.703   3.466  0.00  0.00    +0.227 A 
ATOM      6  N   UNL     1       0.129  -4.091   2.306  0.00  0.00    -0.199 NA
ENDROOT
BRANCH   3   7
ATOM      7  N   UNL     1       0.566  -8.150   2.566  0.00  0.00    -0.283 N 
ATOM      8  C   UNL     1       0.580  -8.757   3.818  0.00  0.00    +0.124 A 
ATOM      9  C   UNL     1       0.611 -10.145   3.910  0.00  0.00    +0.045 A 
ATOM     10  C   UNL     1       0.624 -10.736   5.161  0.00  0.00    +0.020 A 
ATOM     11  C   UNL     1       0.605  -9.915   6.282  0.00  0.00    +0.036 A 
ATOM     12  C   UNL     1       0.574  -8.544   6.116  0.00  0.00    +0.128 A 
ATOM     13  N   UNL     1       0.568  -8.009   4.910  0.00  0.00    -0.239 NA
ATOM     14 BR   UNL     1       0.621 -10.668   8.017  0.00  0.00    -0.049 Br
ATOM     15  H   UNL     1       0.663  -8.688   1.765  0.00  0.00    +0.155 HD
ENDBRANCH   3   7
BRANCH   2  16
ATOM     16  N   UNL     1       0.292  -6.926   0.036  0.00  0.00    -0.351 N 
ATOM     17  H   UNL     1       0.197  -6.490  -0.826  0.00  0.00    +0.143 HD
ATOM     18  H   UNL     1       0.397  -7.889   0.083  0.00  0.00    +0.143 HD
ENDBRANCH   2  16
BRANCH   1  19
ATOM     19  O   UNL     1      -0.005  -4.138  -0.021  0.00  0.00    -0.436 OA
BRANCH  19  24
ATOM     20  C   UNL     1      -0.162   1.492   0.004  0.00  0.00    +0.044 C 
ATOM     21  C   UNL     1      -0.120  -0.014  -0.003  0.00  0.00    -0.050 A 
ATOM     22  C   UNL     1       1.067  -0.673   0.261  0.00  0.00    +0.007 A 
ATOM     23  C   UNL     1       1.108  -2.054   0.256  0.00  0.00    +0.046 A 
ATOM     24  C   UNL     1      -0.043  -2.780  -0.015  0.00  0.00    +0.130 A 
ATOM     25  C   UNL     1      -1.233  -2.116  -0.280  0.00  0.00    +0.046 A 
ATOM     26  C   UNL     1      -1.270  -0.736  -0.268  0.00  0.00    +0.007 A 
ENDBRANCH  19  24
ENDBRANCH   1  19
TORSDOF 4
