REMARK  Name = ZINC67144451
REMARK  6 active torsions:
REMARK  status: ('A' for Active; 'I' for Inactive)
REMARK    1  A    between atoms: C_6  and  N_7
REMARK    2  A    between atoms: N_7  and  N_8
REMARK    3  A    between atoms: C_9  and  C_11
REMARK    4  A    between atoms: C_16  and  C_19
REMARK    5  A    between atoms: N_21  and  N_22
REMARK    6  A    between atoms: N_22  and  C_23
REMARK                            x       y       z     vdW  Elec       q    Type
REMARK                         _______ _______ _______ _____ _____    ______ ____
ROOT
ATOM      1  C   UNL     1      -2.314  -4.319   0.002  0.00  0.00    +0.077 C 
ATOM      2  C   UNL     1      -1.598  -4.812  -1.257  0.00  0.00    +0.013 C 
ATOM      3  C   UNL     1      -1.576  -6.342  -1.266  0.00  0.00    +0.001 C 
ATOM      4  C   UNL     1      -3.011  -6.872  -1.254  0.00  0.00    +0.013 C 
ATOM      5  C   UNL     1      -3.727  -6.380   0.005  0.00  0.00    +0.077 C 
ATOM      6  C   UNL     1      -3.749  -4.850   0.013  0.00  0.00    +0.025 C 
ENDROOT
BRANCH   1   8
ATOM      7  N   UNL     1      -1.178  -2.121   0.002  0.00  0.00    -0.236 N 
ATOM      8  C   UNL     1      -2.336  -2.812   0.010  0.00  0.00    +0.232 C 
ATOM      9  O   UNL     1      -3.395  -2.221   0.024  0.00  0.00    -0.274 OA
ATOM     10  H   UNL     1      -0.331  -2.594  -0.009  0.00  0.00    +0.173 HD
BRANCH   7  11
ATOM     11  N   UNL     1      -1.198  -0.721   0.010  0.00  0.00    -0.264 N 
ATOM     12  H   UNL     1      -2.046  -0.248   0.021  0.00  0.00    +0.170 HD
BRANCH  11  18
ATOM     13  C   UNL     1      -0.017   1.385   0.010  0.00  0.00    +0.027 A 
ATOM     14  C   UNL     1       1.171   2.090   0.002  0.00  0.00    +0.040 A 
ATOM     15  C   UNL     1       2.379   1.414  -0.013  0.00  0.00    +0.124 A 
ATOM     16  C   UNL     1       2.400   0.030  -0.022  0.00  0.00    +0.040 A 
ATOM     17  C   UNL     1       1.215  -0.680  -0.014  0.00  0.00    +0.027 A 
ATOM     18  C   UNL     1       0.002  -0.004   0.002  0.00  0.00    +0.045 A 
ATOM     19  F   UNL     1       3.539   2.107  -0.021  0.00  0.00    -0.205 F 
ENDBRANCH  11  18
ENDBRANCH   7  11
ENDBRANCH   1   8
BRANCH   5  20
ATOM     20  C   UNL     1      -2.997  -6.878   1.226  0.00  0.00    +0.232 C 
ATOM     21  O   UNL     1      -2.540  -6.088   2.023  0.00  0.00    -0.274 OA
ATOM     22  N   UNL     1      -2.853  -8.203   1.430  0.00  0.00    -0.236 N 
ATOM     23  H   UNL     1      -3.219  -8.835   0.792  0.00  0.00    +0.173 HD
BRANCH  22  24
ATOM     24  N   UNL     1      -2.174  -8.666   2.565  0.00  0.00    -0.264 N 
ATOM     25  H   UNL     1      -1.808  -8.034   3.203  0.00  0.00    +0.170 HD
BRANCH  24  26
ATOM     26  C   UNL     1      -2.025 -10.040   2.777  0.00  0.00    +0.045 A 
ATOM     27  C   UNL     1      -2.543 -10.946   1.861  0.00  0.00    +0.027 A 
ATOM     28  C   UNL     1      -2.393 -12.302   2.073  0.00  0.00    +0.040 A 
ATOM     29  C   UNL     1      -1.728 -12.759   3.198  0.00  0.00    +0.124 A 
ATOM     30  C   UNL     1      -1.210 -11.858   4.112  0.00  0.00    +0.040 A 
ATOM     31  C   UNL     1      -1.352 -10.500   3.902  0.00  0.00    +0.027 A 
ATOM     32  F   UNL     1      -1.583 -14.087   3.403  0.00  0.00    -0.205 F 
ENDBRANCH  24  26
ENDBRANCH  22  24
ENDBRANCH   5  20
TORSDOF 6
