REMARK  Name = ZINC16790903
REMARK  8 active torsions:
REMARK  status: ('A' for Active; 'I' for Inactive)
REMARK    1  A    between atoms: C_4  and  C_7
REMARK    2  A    between atoms: C_8  and  C_9
REMARK    3  A    between atoms: N_11  and  C_12
REMARK    4  A    between atoms: C_12  and  C_14
REMARK    5  A    between atoms: C_12  and  N_18
REMARK    6  A    between atoms: N_18  and  C_19
REMARK    7  A    between atoms: C_19  and  N_21
REMARK    8  A    between atoms: N_21  and  C_22
REMARK                            x       y       z     vdW  Elec       q    Type
REMARK                         _______ _______ _______ _____ _____    ______ ____
ROOT
ATOM      1  C   UNL     1      -1.888   1.546  -0.276  0.00  0.00    +0.211 C 
ENDROOT
BRANCH   1   4
ATOM      2  C   UNL     1      -2.788   3.079  -1.942  0.00  0.00    +0.238 C 
ATOM      3  O   UNL     1      -1.854   3.826  -1.717  0.00  0.00    -0.271 OA
ATOM      4  N   UNL     1      -2.896   1.914  -1.273  0.00  0.00    -0.290 N 
ATOM      5  H   UNL     1      -3.641   1.319  -1.452  0.00  0.00    +0.151 HD
BRANCH   2   7
ATOM      6  C   UNL     1      -3.762   4.667  -3.512  0.00  0.00    +0.013 C 
ATOM      7  C   UNL     1      -3.796   3.447  -2.938  0.00  0.00    +0.068 C 
BRANCH   6  11
ATOM      8  C   UNL     1      -1.364   7.737  -1.834  0.00  0.00    +0.000 A 
ATOM      9  C   UNL     1      -1.401   7.565  -3.206  0.00  0.00    +0.001 A 
ATOM     10  C   UNL     1      -2.178   6.569  -3.760  0.00  0.00    +0.008 A 
ATOM     11  C   UNL     1      -2.930   5.732  -2.930  0.00  0.00    -0.025 A 
ATOM     12  C   UNL     1      -2.891   5.915  -1.544  0.00  0.00    +0.008 A 
ATOM     13  C   UNL     1      -2.105   6.912  -1.006  0.00  0.00    +0.001 A 
ENDBRANCH   6  11
ENDBRANCH   2   7
ENDBRANCH   1   4
BRANCH   1  14
ATOM     14  C   UNL     1      -2.582   1.013   0.979  0.00  0.00    +0.225 C 
ATOM     15 CL   UNL     1      -1.341   0.560   2.206  0.00  0.00    -0.080 Cl
ATOM     16 CL   UNL     1      -3.660   2.290   1.657  0.00  0.00    -0.080 Cl
ATOM     17 CL   UNL     1      -3.564  -0.438   0.552  0.00  0.00    -0.080 Cl
ENDBRANCH   1  14
BRANCH   1  18
ATOM     18  N   UNL     1      -1.012   0.508  -0.827  0.00  0.00    -0.305 N 
ATOM     19  H   UNL     1      -1.331  -0.404  -0.905  0.00  0.00    +0.150 HD
BRANCH  18  20
ATOM     20  C   UNL     1       0.237   0.822  -1.226  0.00  0.00    +0.136 C 
ATOM     21  S   UNL     1       0.800   2.433  -1.087  0.00  0.00    -0.019 S 
BRANCH  20  22
ATOM     22  N   UNL     1       1.042  -0.132  -1.732  0.00  0.00    -0.296 N 
ATOM     23  H   UNL     1       0.704  -1.031  -1.867  0.00  0.00    +0.154 HD
BRANCH  22  24
ATOM     24  C   UNL     1       2.362   0.174  -2.068  0.00  0.00    +0.040 A 
ATOM     25  C   UNL     1       2.646   1.298  -2.814  0.00  0.00    +0.024 A 
ATOM     26  C   UNL     1       3.958   1.613  -3.155  0.00  0.00    +0.002 A 
ATOM     27  C   UNL     1       4.995   0.822  -2.762  0.00  0.00    +0.008 A 
ATOM     28  C   UNL     1       4.748  -0.332  -2.000  0.00  0.00    -0.016 A 
ATOM     29  C   UNL     1       3.417  -0.660  -1.643  0.00  0.00    +0.003 A 
ATOM     30  C   UNL     1       3.171  -1.817  -0.886  0.00  0.00    +0.010 A 
ATOM     31  C   UNL     1       4.213  -2.602  -0.498  0.00  0.00    +0.001 A 
ATOM     32  C   UNL     1       5.523  -2.278  -0.845  0.00  0.00    +0.001 A 
ATOM     33  C   UNL     1       5.799  -1.167  -1.581  0.00  0.00    +0.008 A 
ENDBRANCH  22  24
ENDBRANCH  20  22
ENDBRANCH  18  20
ENDBRANCH   1  18
TORSDOF 8
