REMARK  Name = ZINC28362638
REMARK  10 active torsions:
REMARK  status: ('A' for Active; 'I' for Inactive)
REMARK    1  A    between atoms: C_1  and  C_2
REMARK    2  A    between atoms: C_2  and  C_4
REMARK    3  A    between atoms: C_2  and  N_14
REMARK    4  A    between atoms: C_15  and  C_17
REMARK    5  A    between atoms: C_17  and  C_19
REMARK    6  A    between atoms: C_17  and  N_20
REMARK    7  A    between atoms: N_20  and  C_21
REMARK    8  A    between atoms: C_24  and  O_27
REMARK    9  A    between atoms: O_27  and  C_28
REMARK   10  A    between atoms: C_28  and  C_29
REMARK                            x       y       z     vdW  Elec       q    Type
REMARK                         _______ _______ _______ _____ _____    ______ ____
ROOT
ATOM      1  C   UNL     1       6.960   4.575   1.384  0.00  0.00    +0.154 C 
ATOM      2  C   UNL     1       7.366   5.510   0.243  0.00  0.00    +0.038 C 
ENDROOT
BRANCH   1   4
ATOM      3  N   UNL     1       4.715   4.121   0.450  0.00  0.00    -0.307 N 
ATOM      4  C   UNL     1       5.887   3.633   0.904  0.00  0.00    +0.233 C 
ATOM      5  O   UNL     1       6.077   2.435   0.925  0.00  0.00    -0.274 OA
ATOM      6  H   UNL     1       4.542   5.207   0.430  0.00  0.00    +0.149 HD
BRANCH   3   8
ATOM      7  C   UNL     1       3.898   2.885  -1.496  0.00  0.00    +0.033 C 
ATOM      8  C   UNL     1       3.671   3.205  -0.017  0.00  0.00    +0.101 C 
BRANCH   8   9
ATOM      9  C   UNL     1       2.321   3.851   0.157  0.00  0.00    -0.020 A 
ATOM     10  C   UNL     1       2.206   5.208   0.152  0.00  0.00    +0.006 A 
ATOM     11  C   UNL     1       0.967   5.823   0.311  0.00  0.00    +0.001 A 
ATOM     12  C   UNL     1      -0.166   5.086   0.475  0.00  0.00    +0.008 A 
ATOM     13  C   UNL     1      -0.087   3.683   0.484  0.00  0.00    -0.018 A 
ATOM     14  C   UNL     1       1.174   3.057   0.323  0.00  0.00    -0.013 A 
ATOM     15  C   UNL     1       1.253   1.654   0.333  0.00  0.00    +0.009 A 
ATOM     16  C   UNL     1       0.120   0.917   0.496  0.00  0.00    +0.001 A 
ATOM     17  C   UNL     1      -1.121   1.533   0.649  0.00  0.00    +0.001 A 
ATOM     18  C   UNL     1      -1.235   2.889   0.651  0.00  0.00    +0.008 A 
ENDBRANCH   8   9
ENDBRANCH   3   8
ENDBRANCH   1   4
BRANCH   1  19
ATOM     19  N   UNL     1       8.126   3.804   1.822  0.00  0.00    -0.333 N 
ATOM     20  H   UNL     1       8.306   2.799   1.413  0.00  0.00    +0.147 HD
BRANCH  19  21
ATOM     21  C   UNL     1       9.011   4.347   2.760  0.00  0.00    +0.028 A 
ATOM     22  C   UNL     1       8.788   5.618   3.272  0.00  0.00    +0.026 A 
ATOM     23  C   UNL     1       9.659   6.151   4.202  0.00  0.00    +0.047 A 
ATOM     24  C   UNL     1      10.762   5.421   4.617  0.00  0.00    +0.121 A 
ATOM     25  C   UNL     1      10.990   4.153   4.102  0.00  0.00    +0.047 A 
ATOM     26  C   UNL     1      10.117   3.617   3.176  0.00  0.00    +0.026 A 
BRANCH  24  27
ATOM     27  O   UNL     1      11.623   5.948   5.529  0.00  0.00    -0.483 OA
BRANCH  27  28
ATOM     28  C   UNL     1      11.327   7.258   6.018  0.00  0.00    +0.324 C 
BRANCH  28  29
ATOM     29  C   UNL     1      12.382   7.673   7.011  0.00  0.00    +0.248 C 
ATOM     30  O   UNL     1      13.296   6.921   7.275  0.00  0.00    -0.272 OA
ATOM     31  N   UNL     1      12.309   8.880   7.606  0.00  0.00    -0.327 N 
ATOM     32  H   UNL     1      13.078   9.183   8.332  0.00  0.00    +0.145 HD
ATOM     33  H   UNL     1      11.479   9.562   7.367  0.00  0.00    +0.145 HD
ENDBRANCH  28  29
ENDBRANCH  27  28
ENDBRANCH  24  27
ENDBRANCH  19  21
ENDBRANCH   1  19
TORSDOF 8
