REMARK  Name = ZINC14151991
REMARK  9 active torsions:
REMARK  status: ('A' for Active; 'I' for Inactive)
REMARK    1  A    between atoms: C_1  and  C_2
REMARK    2  A    between atoms: C_4  and  C_31
REMARK    3  A    between atoms: C_8  and  N_30
REMARK    4  A    between atoms: C_9  and  C_11
REMARK    5  A    between atoms: C_11  and  O_13
REMARK    6  A    between atoms: O_13  and  C_14
REMARK    7  A    between atoms: C_14  and  C_15
REMARK    8  A    between atoms: N_20  and  C_21
REMARK    9  A    between atoms: C_27  and  C_29
REMARK                            x       y       z     vdW  Elec       q    Type
REMARK                         _______ _______ _______ _____ _____    ______ ____
ROOT
ATOM      1  O   UNL     1       2.223   1.051   0.647  0.00  0.00    -0.451 OA
ENDROOT
BRANCH   1   2
ATOM      2  C   UNL     1       3.456   1.599   0.633  0.00  0.00    +0.348 C 
ATOM      3  O   UNL     1       3.586   2.807   0.691  0.00  0.00    -0.244 OA
BRANCH   2  12
ATOM      4  C   UNL     1       8.986   1.587   0.440  0.00  0.00    +0.044 C 
ATOM      5  C   UNL     1       8.343   0.225   0.392  0.00  0.00    -0.037 A 
ATOM      6  C   UNL     1       9.116  -0.909   0.306  0.00  0.00    +0.027 A 
ATOM      7  C   UNL     1       8.522  -2.161   0.261  0.00  0.00    +0.040 A 
ATOM      8  N   UNL     1       7.209  -2.280   0.300  0.00  0.00    -0.245 NA
ATOM      9  C   UNL     1       6.427  -1.225   0.382  0.00  0.00    +0.111 A 
ATOM     10  C   UNL     1       6.933   0.093   0.433  0.00  0.00    +0.032 A 
ATOM     11  C   UNL     1       5.926   1.139   0.523  0.00  0.00    +0.056 A 
ATOM     12  C   UNL     1       4.598   0.767   0.550  0.00  0.00    +0.119 A 
ATOM     13  S   UNL     1       4.666  -1.011   0.462  0.00  0.00    -0.060 S 
ATOM     14  C   UNL     1       9.383  -3.395   0.168  0.00  0.00    +0.065 C 
BRANCH  11  15
ATOM     15  N   UNL     1       6.291   2.476   0.580  0.00  0.00    -0.356 N 
ATOM     16  H   UNL     1       7.160   2.726   0.929  0.00  0.00    +0.142 HD
ATOM     17  H   UNL     1       5.677   3.160   0.271  0.00  0.00    +0.142 HD
ENDBRANCH  11  15
ENDBRANCH   2  12
ENDBRANCH   1   2
BRANCH   1  18
ATOM     18  C   UNL     1       1.115   1.949   0.732  0.00  0.00    +0.328 C 
BRANCH  18  19
ATOM     19  C   UNL     1      -0.171   1.163   0.736  0.00  0.00    +0.258 C 
ATOM     20  O   UNL     1      -0.141  -0.047   0.672  0.00  0.00    -0.272 OA
ATOM     21  N   UNL     1      -1.354   1.806   0.805  0.00  0.00    -0.237 N 
ATOM     22  C   UNL     1      -2.503   1.103   0.803  0.00  0.00    +0.306 C 
ATOM     23  O   UNL     1      -2.474  -0.111   0.738  0.00  0.00    -0.252 OA
ATOM     24  N   UNL     1      -3.686   1.745   0.872  0.00  0.00    -0.296 N 
ATOM     25  H   UNL     1      -1.377   2.774   0.856  0.00  0.00    +0.159 HD
ATOM     26  H   UNL     1      -3.710   2.713   0.923  0.00  0.00    +0.151 HD
BRANCH  24  27
ATOM     27  C   UNL     1      -4.936   0.981   0.869  0.00  0.00    +0.077 C 
ATOM     28  C   UNL     1      -5.349   0.683  -0.574  0.00  0.00    +0.022 C 
ATOM     29  C   UNL     1      -5.554   1.998  -1.328  0.00  0.00    +0.002 C 
ATOM     30  C   UNL     1      -6.651   2.814  -0.641  0.00  0.00    +0.000 C 
ATOM     31  C   UNL     1      -6.239   3.112   0.801  0.00  0.00    +0.005 C 
ATOM     32  C   UNL     1      -6.034   1.797   1.555  0.00  0.00    +0.006 C 
ATOM     33  C   UNL     1      -5.621   2.095   2.998  0.00  0.00    +0.009 C 
ENDBRANCH  24  27
ENDBRANCH  18  19
ENDBRANCH   1  18
TORSDOF 6
