REMARK  Name = ZINC02881062
REMARK  11 active torsions:
REMARK  status: ('A' for Active; 'I' for Inactive)
REMARK    1  A    between atoms: C_1  and  C_2
REMARK    2  A    between atoms: C_2  and  C_3
REMARK    3  A    between atoms: C_2  and  C_4
REMARK    4  A    between atoms: C_2  and  C_5
REMARK    5  A    between atoms: C_12  and  N_17
REMARK    6  A    between atoms: C_13  and  C_14
REMARK    7  A    between atoms: N_17  and  C_18
REMARK    8  A    between atoms: C_18  and  N_20
REMARK    9  A    between atoms: C_21  and  C_23
REMARK   10  A    between atoms: C_23  and  O_24
REMARK   11  A    between atoms: O_24  and  C_25
REMARK                            x       y       z     vdW  Elec       q    Type
REMARK                         _______ _______ _______ _____ _____    ______ ____
ROOT
ATOM      1  C   UNL     1      -4.352  -0.673  -3.490  0.00  0.00    -0.000 C 
ATOM      2  C   UNL     1      -3.685   0.699  -3.627  0.00  0.00    +0.009 C 
ATOM      3  C   UNL     1      -2.554   0.832  -2.605  0.00  0.00    +0.037 C 
ATOM      4  C   UNL     1      -3.100   0.495  -1.223  0.00  0.00    -0.023 A 
ATOM      5  C   UNL     1      -4.253  -0.194  -1.079  0.00  0.00    -0.004 A 
ATOM      6  S   UNL     1      -4.477  -0.341   0.671  0.00  0.00    -0.077 S 
ATOM      7  C   UNL     1      -3.057   0.494   1.206  0.00  0.00    +0.084 A 
ATOM      8  C   UNL     1      -2.447   0.874   0.018  0.00  0.00    +0.068 A 
ATOM      9  C   UNL     1      -5.138  -0.712  -2.171  0.00  0.00    +0.046 C 
ENDROOT
BRANCH   8  10
ATOM     10  C   UNL     1      -1.187   1.624   0.017  0.00  0.00    +0.244 C 
ATOM     11  O   UNL     1      -1.204   2.841   0.023  0.00  0.00    -0.270 OA
ATOM     12  N   UNL     1      -0.011   0.966   0.007  0.00  0.00    -0.325 N 
ATOM     13  H   UNL     1       0.002  -0.004   0.002  0.00  0.00    +0.145 HD
ATOM     14  H   UNL     1       0.822   1.462   0.002  0.00  0.00    +0.145 HD
ENDBRANCH   8  10
BRANCH   1  16
ATOM     15  C   UNL     1      -4.525  -0.843  -5.976  0.00  0.00    +0.011 C 
ATOM     16  C   UNL     1      -5.307  -0.899  -4.663  0.00  0.00    -0.035 C 
ATOM     17  C   UNL     1      -6.382   0.191  -4.662  0.00  0.00    +0.011 C 
ATOM     18  C   UNL     1      -5.972  -2.270  -4.524  0.00  0.00    +0.011 C 
ENDBRANCH   1  16
BRANCH   7  19
ATOM     19  N   UNL     1      -2.633   0.727   2.505  0.00  0.00    -0.291 N 
ATOM     20  H   UNL     1      -1.810   1.214   2.666  0.00  0.00    +0.154 HD
BRANCH  19  21
ATOM     21  C   UNL     1      -3.365   0.277   3.543  0.00  0.00    +0.141 C 
ATOM     22  S   UNL     1      -4.817  -0.583   3.258  0.00  0.00    -0.018 S 
BRANCH  21  23
ATOM     23  N   UNL     1      -2.953   0.504   4.806  0.00  0.00    -0.265 N 
ATOM     24  C   UNL     1      -3.684   0.054   5.845  0.00  0.00    +0.256 C 
ATOM     25  O   UNL     1      -4.713  -0.555   5.643  0.00  0.00    -0.272 OA
ATOM     26  H   UNL     1      -2.130   0.992   4.968  0.00  0.00    +0.157 HD
BRANCH  24  27
ATOM     27  C   UNL     1      -3.224   0.308   7.257  0.00  0.00    +0.324 C 
BRANCH  27  28
ATOM     28  O   UNL     1      -4.160  -0.262   8.173  0.00  0.00    -0.483 OA
BRANCH  28  29
ATOM     29  C   UNL     1      -3.891  -0.121   9.498  0.00  0.00    +0.121 A 
ATOM     30  C   UNL     1      -2.747   0.547   9.907  0.00  0.00    +0.045 A 
ATOM     31  C   UNL     1      -2.478   0.694  11.255  0.00  0.00    +0.004 A 
ATOM     32  C   UNL     1      -3.344   0.166  12.194  0.00  0.00    +0.000 A 
ATOM     33  C   UNL     1      -4.483  -0.506  11.789  0.00  0.00    +0.004 A 
ATOM     34  C   UNL     1      -4.758  -0.651  10.443  0.00  0.00    +0.045 A 
ENDBRANCH  28  29
ENDBRANCH  27  28
ENDBRANCH  24  27
ENDBRANCH  21  23
ENDBRANCH  19  21
ENDBRANCH   7  19
TORSDOF 8
