REMARK  Name = ZINC04619356
REMARK  4 active torsions:
REMARK  status: ('A' for Active; 'I' for Inactive)
REMARK    1  A    between atoms: C_4  and  C_7
REMARK    2  A    between atoms: C_7  and  C_8
REMARK    3  A    between atoms: C_8  and  N_9
REMARK    4  A    between atoms: C_13  and  C_14
REMARK                            x       y       z     vdW  Elec       q    Type
REMARK                         _______ _______ _______ _____ _____    ______ ____
ROOT
ATOM      1  N   UNL     1      -0.266   7.308  -2.127  0.00  0.00    -0.221 N 
ATOM      2  C   UNL     1      -1.369   7.961  -1.708  0.00  0.00    +0.259 C 
ATOM      3  O   UNL     1      -2.333   7.353  -1.285  0.00  0.00    -0.269 OA
ATOM      4  C   UNL     1      -1.370   9.443  -1.773  0.00  0.00    +0.096 C 
ATOM      5  C   UNL     1      -2.434  10.167  -1.368  0.00  0.00    -0.005 C 
ATOM      6  C   UNL     1      -0.148  10.091  -2.310  0.00  0.00    +0.256 C 
ATOM      7  O   UNL     1      -0.070  11.301  -2.399  0.00  0.00    -0.270 OA
ATOM      8  N   UNL     1       0.874   9.299  -2.695  0.00  0.00    -0.236 N 
ATOM      9  C   UNL     1       0.802   7.964  -2.601  0.00  0.00    +0.315 C 
ATOM     10  O   UNL     1       1.760   7.312  -2.966  0.00  0.00    -0.252 OA
ATOM     11  H   UNL     1       1.680   9.706  -3.048  0.00  0.00    +0.159 HD
ENDROOT
BRANCH   5  12
ATOM     12  C   UNL     1      -2.328  11.666  -1.262  0.00  0.00    +0.013 C 
ATOM     13  C   UNL     1      -2.930  12.123   0.066  0.00  0.00    +0.009 C 
ATOM     14  C   UNL     1      -4.447  12.302  -0.082  0.00  0.00    -0.024 C 
ATOM     15  C   UNL     1      -5.037  11.005  -0.613  0.00  0.00    +0.000 C 
ATOM     16  C   UNL     1      -6.471  11.191  -1.094  0.00  0.00    -0.018 C 
ATOM     17  C   UNL     1      -6.499  12.309  -2.139  0.00  0.00    -0.078 C 
ATOM     18  C   UNL     1      -4.723  13.499  -0.975  0.00  0.00    -0.062 C 
ATOM     19  C   UNL     1      -3.626  13.660  -1.994  0.00  0.00    -0.024 C 
ATOM     20  C   UNL     1      -3.074  12.311  -2.433  0.00  0.00    +0.009 C 
ATOM     21  C   UNL     1      -3.912  14.586  -3.145  0.00  0.00    +0.000 C 
ATOM     22  C   UNL     1      -5.363  14.507  -3.611  0.00  0.00    -0.018 C 
ATOM     23  C   UNL     1      -6.280  14.697  -2.397  0.00  0.00    -0.078 C 
ATOM     24  N   UNL     1      -6.116  13.573  -1.467  0.00  0.00    +0.382 N 
ATOM     25  H   UNL     1      -6.737  13.719  -0.663  0.00  0.00    -0.081 HD
ENDBRANCH   5  12
BRANCH   1  26
ATOM     26  C   UNL     1      -0.237   5.844  -2.069  0.00  0.00    +0.123 C 
BRANCH  26  27
ATOM     27  C   UNL     1       0.325   5.399  -0.717  0.00  0.00    +0.054 C 
BRANCH  27  31
ATOM     28  C   UNL     1       0.410   1.131  -0.548  0.00  0.00    +0.000 A 
ATOM     29  C   UNL     1      -0.712   1.817  -0.123  0.00  0.00    +0.000 A 
ATOM     30  C   UNL     1      -0.738   3.199  -0.172  0.00  0.00    +0.004 A 
ATOM     31  C   UNL     1       0.355   3.893  -0.657  0.00  0.00    -0.046 A 
ATOM     32  C   UNL     1       1.475   3.207  -1.088  0.00  0.00    +0.004 A 
ATOM     33  C   UNL     1       1.502   1.825  -1.033  0.00  0.00    +0.000 A 
ENDBRANCH  27  31
ENDBRANCH  26  27
ENDBRANCH   1  26
TORSDOF 4
