REMARK  Name = ZINC49123452
REMARK  5 active torsions:
REMARK  status: ('A' for Active; 'I' for Inactive)
REMARK    1  A    between atoms: C_1  and  C_2
REMARK    2  A    between atoms: C_2  and  C_3
REMARK    3  A    between atoms: C_9  and  N_11
REMARK    4  A    between atoms: C_16  and  O_24
REMARK    5  A    between atoms: C_19  and  C_21
REMARK                            x       y       z     vdW  Elec       q    Type
REMARK                         _______ _______ _______ _____ _____    ______ ____
ROOT
ATOM      1  N   UNL     1      -0.463  -2.636   1.119  0.00  0.00    -0.296 N 
ATOM      2  C   UNL     1      -0.632  -3.852   0.564  0.00  0.00    +0.303 C 
ATOM      3  O   UNL     1       0.323  -4.450   0.106  0.00  0.00    -0.253 OA
ATOM      4  N   UNL     1      -1.860  -4.406   0.515  0.00  0.00    -0.269 N 
ATOM      5  C   UNL     1      -3.100  -3.792   1.024  0.00  0.00    +0.141 C 
ATOM      6  C   UNL     1      -4.237  -4.466   0.216  0.00  0.00    +0.134 C 
ATOM      7  C   UNL     1      -3.708  -5.919   0.088  0.00  0.00    +0.067 C 
ATOM      8  C   UNL     1      -2.185  -5.720  -0.059  0.00  0.00    +0.193 C 
ATOM      9  H   UNL     1      -1.224  -2.159   1.484  0.00  0.00    +0.151 HD
ENDROOT
BRANCH   1  15
ATOM     10  C   UNL     1       0.742  -0.511   1.242  0.00  0.00    +0.009 C 
ATOM     11  C   UNL     1      -0.042  -0.124   2.497  0.00  0.00    +0.005 C 
ATOM     12  C   UNL     1       0.698  -0.630   3.737  0.00  0.00    +0.000 C 
ATOM     13  C   UNL     1       0.828  -2.153   3.666  0.00  0.00    +0.002 C 
ATOM     14  C   UNL     1       1.612  -2.541   2.410  0.00  0.00    +0.022 C 
ATOM     15  C   UNL     1       0.872  -2.034   1.171  0.00  0.00    +0.078 C 
BRANCH  10  17
ATOM     16  C   UNL     1      -0.019   1.526   0.010  0.00  0.00    +0.004 C 
ATOM     17  C   UNL     1       0.002  -0.004   0.002  0.00  0.00    +0.002 C 
ENDBRANCH  10  17
ENDBRANCH   1  15
BRANCH   8  18
ATOM     18  C   UNL     1      -1.454  -6.803   0.692  0.00  0.00    +0.376 C 
ATOM     19  O   UNL     1      -0.851  -6.533   1.717  0.00  0.00    -0.244 OA
ATOM     20  O   UNL     1      -1.466  -7.948   0.275  0.00  0.00    -0.244 OA
ENDBRANCH   8  18
BRANCH   6  21
ATOM     21  O   UNL     1      -5.469  -4.430   0.938  0.00  0.00    -0.390 OA
ATOM     22  H   UNL     1      -5.788  -3.537   1.127  0.00  0.00    +0.210 HD
ENDBRANCH   6  21
TORSDOF 4
