REMARK  Name = ZINC05226037
REMARK  8 active torsions:
REMARK  status: ('A' for Active; 'I' for Inactive)
REMARK    1  A    between atoms: C_1  and  C_2
REMARK    2  A    between atoms: C_5  and  C_9
REMARK    3  A    between atoms: C_6  and  O_8
REMARK    4  A    between atoms: C_9  and  O_11
REMARK    5  A    between atoms: O_11  and  C_12
REMARK    6  A    between atoms: C_12  and  C_14
REMARK    7  A    between atoms: C_12  and  C_15
REMARK    8  A    between atoms: N_17  and  C_18
REMARK                            x       y       z     vdW  Elec       q    Type
REMARK                         _______ _______ _______ _____ _____    ______ ____
ROOT
ATOM      1  C   UNL     1      -2.570   4.140   0.252  0.00  0.00    +0.259 C 
ATOM      2  C   UNL     1      -3.428   3.858  -0.983  0.00  0.00    +0.062 C 
ENDROOT
BRANCH   1   3
ATOM      3  C   UNL     1      -1.256   3.412   0.128  0.00  0.00    +0.258 C 
ATOM      4  O   UNL     1      -0.215   4.035   0.127  0.00  0.00    -0.271 OA
ATOM      5  N   UNL     1      -1.238   2.069   0.019  0.00  0.00    -0.282 N 
ATOM      6  H   UNL     1      -2.070   1.577  -0.057  0.00  0.00    +0.155 HD
BRANCH   5   7
ATOM      7  C   UNL     1      -0.017   1.384   0.015  0.00  0.00    +0.034 A 
ATOM      8  C   UNL     1       0.126   0.222  -0.732  0.00  0.00    +0.024 A 
ATOM      9  C   UNL     1       1.330  -0.455  -0.730  0.00  0.00    +0.017 A 
ATOM     10  C   UNL     1       2.393   0.023   0.017  0.00  0.00    +0.018 A 
ATOM     11  C   UNL     1       2.252   1.181   0.762  0.00  0.00    +0.017 A 
ATOM     12  C   UNL     1       1.051   1.861   0.763  0.00  0.00    +0.024 A 
ATOM     13 BR   UNL     1       4.039  -0.906   0.017  0.00  0.00    -0.050 Br
ENDBRANCH   5   7
ENDBRANCH   1   3
BRANCH   1  14
ATOM     14  O   UNL     1      -2.325   5.567   0.355  0.00  0.00    -0.449 OA
BRANCH  14  15
ATOM     15  C   UNL     1      -3.215   6.292   1.060  0.00  0.00    +0.343 C 
ATOM     16  O   UNL     1      -4.170   5.746   1.575  0.00  0.00    -0.245 OA
BRANCH  15  21
ATOM     17  C   UNL     1      -2.488  11.972   1.630  0.00  0.00    +0.044 C 
ATOM     18  C   UNL     1      -2.681  10.485   1.483  0.00  0.00    -0.047 A 
ATOM     19  C   UNL     1      -1.766   9.740   0.757  0.00  0.00    +0.004 A 
ATOM     20  C   UNL     1      -1.933   8.379   0.616  0.00  0.00    +0.019 A 
ATOM     21  C   UNL     1      -3.030   7.747   1.207  0.00  0.00    +0.100 A 
ATOM     22  C   UNL     1      -3.957   8.506   1.935  0.00  0.00    +0.131 A 
ATOM     23  C   UNL     1      -3.770   9.873   2.071  0.00  0.00    +0.049 A 
BRANCH  22  24
ATOM     24  O   UNL     1      -5.030   7.904   2.508  0.00  0.00    -0.506 OA
ATOM     25  H   UNL     1      -4.872   7.596   3.411  0.00  0.00    +0.292 HD
ENDBRANCH  22  24
ENDBRANCH  15  21
ENDBRANCH  14  15
ENDBRANCH   1  14
TORSDOF 6
