REMARK  Name = ZINC08691193
REMARK  10 active torsions:
REMARK  status: ('A' for Active; 'I' for Inactive)
REMARK    1  A    between atoms: C_1  and  C_2
REMARK    2  A    between atoms: C_5  and  C_8
REMARK    3  A    between atoms: C_8  and  C_9
REMARK    4  A    between atoms: C_8  and  C_22
REMARK    5  A    between atoms: C_10  and  C_21
REMARK    6  A    between atoms: N_12  and  C_15
REMARK    7  A    between atoms: C_13  and  N_14
REMARK    8  A    between atoms: C_23  and  C_34
REMARK    9  A    between atoms: N_25  and  C_28
REMARK   10  A    between atoms: C_26  and  N_27
REMARK                            x       y       z     vdW  Elec       q    Type
REMARK                         _______ _______ _______ _____ _____    ______ ____
ROOT
ATOM      1  C   UNL     1      -0.080  -4.256   0.018  0.00  0.00    +0.089 C 
ENDROOT
BRANCH   1   6
ATOM      2  C   UNL     1      -1.730   1.030  -1.635  0.00  0.00    +0.044 C 
ATOM      3  C   UNL     1      -1.299  -0.349  -1.204  0.00  0.00    -0.050 A 
ATOM      4  C   UNL     1      -1.224  -1.371  -2.131  0.00  0.00    +0.003 A 
ATOM      5  C   UNL     1      -0.829  -2.635  -1.736  0.00  0.00    +0.005 A 
ATOM      6  C   UNL     1      -0.509  -2.877  -0.413  0.00  0.00    -0.035 A 
ATOM      7  C   UNL     1      -0.584  -1.855   0.514  0.00  0.00    +0.005 A 
ATOM      8  C   UNL     1      -0.975  -0.590   0.118  0.00  0.00    +0.003 A 
ENDBRANCH   1   6
BRANCH   1   9
ATOM      9  C   UNL     1       1.202  -4.160   0.804  0.00  0.00    +0.027 A 
ATOM     10  C   UNL     1       2.171  -3.159   0.680  0.00  0.00    +0.066 A 
ATOM     11  N   UNL     1       3.139  -3.411   1.524  0.00  0.00    -0.170 NA
ATOM     12  N   UNL     1       2.824  -4.585   2.221  0.00  0.00    -0.218 N 
ATOM     13  C   UNL     1       1.621  -5.029   1.765  0.00  0.00    +0.124 A 
ATOM     14  C   UNL     1       2.111  -1.989  -0.267  0.00  0.00    +0.068 C 
BRANCH  12  15
ATOM     15  C   UNL     1       3.606  -5.191   3.214  0.00  0.00    +0.067 A 
ATOM     16  C   UNL     1       2.997  -5.835   4.282  0.00  0.00    +0.028 A 
ATOM     17  C   UNL     1       3.770  -6.431   5.259  0.00  0.00    +0.002 A 
ATOM     18  C   UNL     1       5.149  -6.387   5.174  0.00  0.00    +0.000 A 
ATOM     19  C   UNL     1       5.759  -5.746   4.111  0.00  0.00    +0.002 A 
ATOM     20  C   UNL     1       4.991  -5.153   3.128  0.00  0.00    +0.028 A 
ENDBRANCH  12  15
BRANCH  13  21
ATOM     21  N   UNL     1       0.944  -6.165   2.200  0.00  0.00    -0.343 N 
ATOM     22  H   UNL     1       0.088  -6.399   1.808  0.00  0.00    +0.144 HD
ATOM     23  H   UNL     1       1.328  -6.722   2.894  0.00  0.00    +0.144 HD
ENDBRANCH  13  21
ENDBRANCH   1   9
BRANCH   1  24
ATOM     24  C   UNL     1      -1.153  -4.870   0.880  0.00  0.00    +0.027 A 
ATOM     25  C   UNL     1      -1.394  -4.578   2.226  0.00  0.00    +0.066 A 
ATOM     26  N   UNL     1      -2.402  -5.305   2.634  0.00  0.00    -0.170 NA
ATOM     27  N   UNL     1      -2.845  -6.090   1.561  0.00  0.00    -0.218 N 
ATOM     28  C   UNL     1      -2.063  -5.802   0.485  0.00  0.00    +0.124 A 
ATOM     29  C   UNL     1      -0.622  -3.594   3.066  0.00  0.00    +0.068 C 
BRANCH  27  30
ATOM     30  C   UNL     1      -3.906  -7.005   1.590  0.00  0.00    +0.067 A 
ATOM     31  C   UNL     1      -4.706  -7.178   0.468  0.00  0.00    +0.028 A 
ATOM     32  C   UNL     1      -5.751  -8.080   0.499  0.00  0.00    +0.002 A 
ATOM     33  C   UNL     1      -6.002  -8.811   1.646  0.00  0.00    +0.000 A 
ATOM     34  C   UNL     1      -5.207  -8.641   2.765  0.00  0.00    +0.002 A 
ATOM     35  C   UNL     1      -4.157  -7.745   2.738  0.00  0.00    +0.028 A 
ENDBRANCH  27  30
BRANCH  28  36
ATOM     36  N   UNL     1      -2.172  -6.360  -0.785  0.00  0.00    -0.343 N 
ATOM     37  H   UNL     1      -1.561  -6.089  -1.488  0.00  0.00    +0.144 HD
ATOM     38  H   UNL     1      -2.858  -7.021  -0.967  0.00  0.00    +0.144 HD
ENDBRANCH  28  36
ENDBRANCH   1  24
TORSDOF 7
