REMARK  Name = ZINC39358959
REMARK  5 active torsions:
REMARK  status: ('A' for Active; 'I' for Inactive)
REMARK    1  A    between atoms: C_1  and  C_2
REMARK    2  A    between atoms: C_2  and  C_26
REMARK    3  A    between atoms: C_6  and  C_16
REMARK    4  A    between atoms: C_9  and  O_15
REMARK    5  A    between atoms: C_20  and  O_22
REMARK                            x       y       z     vdW  Elec       q    Type
REMARK                         _______ _______ _______ _____ _____    ______ ____
ROOT
ATOM      1  C   UNL     1      -0.019   1.526   0.010  0.00  0.00    +0.011 C 
ATOM      2  C   UNL     1       0.002  -0.004   0.002  0.00  0.00    -0.023 C 
ATOM      3  C   UNL     1       0.742  -0.503  -1.239  0.00  0.00    +0.057 C 
ATOM      4  C   UNL     1       2.171   0.004  -1.223  0.00  0.00    +0.014 C 
ATOM      5  C   UNL     1       2.807   0.198  -0.049  0.00  0.00    +0.023 C 
ATOM      6  C   UNL     1       4.240   0.704   0.024  0.00  0.00    +0.089 C 
ATOM      7  C   UNL     1       4.786   0.675  -1.372  0.00  0.00    +0.048 C 
ATOM      8  C   UNL     1       5.940   0.338  -1.904  0.00  0.00    +0.235 C 
ATOM      9  N   UNL     1       5.861   0.377  -3.263  0.00  0.00    -0.114 NA
ATOM     10  N   UNL     1       4.766   0.755  -3.701  0.00  0.00    -0.157 NA
ATOM     11  C   UNL     1       3.913   1.093  -2.559  0.00  0.00    +0.245 C 
ATOM     12  N   UNL     1       2.736   0.228  -2.454  0.00  0.00    -0.321 N 
ATOM     13  C   UNL     1       2.169  -0.048   1.179  0.00  0.00    +0.162 C 
ATOM     14  O   UNL     1       2.785   0.123   2.213  0.00  0.00    -0.292 OA
ATOM     15  C   UNL     1       0.743  -0.518   1.242  0.00  0.00    +0.086 C 
ATOM     16  C   UNL     1      -1.431  -0.539  -0.002  0.00  0.00    +0.011 C 
ATOM     17  H   UNL     1       2.359  -0.184  -3.247  0.00  0.00    +0.148 HD
ENDROOT
BRANCH   6  18
ATOM     18  C   UNL     1       4.262   2.113   0.557  0.00  0.00    -0.032 A 
ATOM     19  C   UNL     1       3.590   3.117  -0.115  0.00  0.00    +0.005 A 
ATOM     20  C   UNL     1       3.608   4.411   0.371  0.00  0.00    +0.004 A 
ATOM     21  C   UNL     1       4.298   4.704   1.532  0.00  0.00    +0.045 A 
ATOM     22  C   UNL     1       4.973   3.699   2.209  0.00  0.00    +0.117 A 
ATOM     23  C   UNL     1       4.949   2.400   1.721  0.00  0.00    +0.050 A 
BRANCH  22  24
ATOM     24  O   UNL     1       5.653   3.985   3.350  0.00  0.00    -0.507 OA
ATOM     25  H   UNL     1       5.124   3.899   4.155  0.00  0.00    +0.292 HD
ENDBRANCH  22  24
ENDBRANCH   6  18
BRANCH   8  26
ATOM     26  O   UNL     1       7.052  -0.001  -1.200  0.00  0.00    -0.491 OA
ATOM     27  H   UNL     1       7.815  -0.222  -1.752  0.00  0.00    +0.294 HD
ENDBRANCH   8  26
TORSDOF 3
