REMARK  Name = ZINC66402165
REMARK  8 active torsions:
REMARK  status: ('A' for Active; 'I' for Inactive)
REMARK    1  A    between atoms: C_1  and  C_2
REMARK    2  A    between atoms: C_2  and  C_3
REMARK    3  A    between atoms: C_2  and  C_4
REMARK    4  A    between atoms: C_4  and  C_5
REMARK    5  A    between atoms: C_5  and  C_7
REMARK    6  A    between atoms: C_5  and  N_12
REMARK    7  A    between atoms: N_15  and  C_16
REMARK    8  A    between atoms: C_18  and  C_24
REMARK                            x       y       z     vdW  Elec       q    Type
REMARK                         _______ _______ _______ _____ _____    ______ ____
ROOT
ATOM      1  N   UNL     1       2.212   1.544  -1.149  0.00  0.00    -0.292 N 
ATOM      2  C   UNL     1       2.062   2.113   0.064  0.00  0.00    +0.304 C 
ATOM      3  O   UNL     1       2.203   1.444   1.070  0.00  0.00    -0.252 OA
ATOM      4  N   UNL     1       1.756   3.421   0.161  0.00  0.00    -0.265 N 
ATOM      5  H   UNL     1       2.177   2.091  -1.949  0.00  0.00    +0.151 HD
ATOM      6  H   UNL     1       1.573   3.938  -0.639  0.00  0.00    +0.157 HD
ENDROOT
BRANCH   4   7
ATOM      7  C   UNL     1       1.703   4.037   1.420  0.00  0.00    +0.100 A 
ATOM      8  C   UNL     1       2.520   5.096   1.708  0.00  0.00    +0.042 A 
ATOM      9  C   UNL     1       2.446   5.693   2.974  0.00  0.00    +0.073 A 
ATOM     10  C   UNL     1       1.574   5.223   3.895  0.00  0.00    +0.098 A 
ATOM     11  N   UNL     1       0.762   4.170   3.611  0.00  0.00    -0.327 N 
ATOM     12  H   UNL     1       0.143   3.847   4.284  0.00  0.00    +0.168 HD
ATOM     13  C   UNL     1       0.801   3.576   2.403  0.00  0.00    +0.270 A 
ATOM     14  O   UNL     1       0.062   2.635   2.161  0.00  0.00    -0.266 OA
BRANCH   9  15
ATOM     15  C   UNL     1       3.339   6.860   3.309  0.00  0.00    +0.419 C 
ATOM     16  F   UNL     1       3.084   7.281   4.619  0.00  0.00    -0.166 F 
ATOM     17  F   UNL     1       4.678   6.471   3.197  0.00  0.00    -0.166 F 
ATOM     18  F   UNL     1       3.083   7.912   2.423  0.00  0.00    -0.166 F 
ENDBRANCH   9  15
ENDBRANCH   4   7
BRANCH   1  19
ATOM     19  C   UNL     1       2.430   0.100  -1.259  0.00  0.00    +0.112 C 
BRANCH  19  20
ATOM     20  C   UNL     1       3.117  -0.207  -2.565  0.00  0.00    +0.010 A 
ATOM     21  C   UNL     1       4.101  -1.103  -2.822  0.00  0.00    +0.013 A 
ATOM     22  C   UNL     1       4.585  -1.216  -4.112  0.00  0.00    +0.008 A 
ATOM     23  C   UNL     1       4.061  -0.427  -5.082  0.00  0.00    +0.045 A 
ATOM     24  S   UNL     1       2.840   0.509  -4.176  0.00  0.00    -0.100 S 
ENDBRANCH  19  20
BRANCH  19  25
ATOM     25  C   UNL     1       1.082  -0.624  -1.209  0.00  0.00    +0.030 C 
BRANCH  25  27
ATOM     26  C   UNL     1       2.037  -2.548   0.067  0.00  0.00    +0.007 C 
ATOM     27  C   UNL     1       1.315  -2.136  -1.217  0.00  0.00    -0.015 C 
ATOM     28  C   UNL     1      -0.031  -2.859  -1.300  0.00  0.00    +0.007 C 
ENDBRANCH  25  27
ENDBRANCH  19  25
ENDBRANCH   1  19
TORSDOF 6
