REMARK  Name = ZINC66733071
REMARK  6 active torsions:
REMARK  status: ('A' for Active; 'I' for Inactive)
REMARK    1  A    between atoms: C_1  and  C_2
REMARK    2  A    between atoms: C_5  and  S_22
REMARK    3  A    between atoms: C_7  and  C_8
REMARK    4  A    between atoms: C_17  and  C_21
REMARK    5  A    between atoms: C_19  and  C_20
REMARK    6  A    between atoms: S_22  and  N_25
REMARK                            x       y       z     vdW  Elec       q    Type
REMARK                         _______ _______ _______ _____ _____    ______ ____
ROOT
ATOM      1  C   UNL     1       0.126   0.181   2.391  0.00  0.00    +0.251 C 
ATOM      2  O   UNL     1      -0.048   1.383   2.335  0.00  0.00    -0.270 OA
ATOM      3  N   UNL     1       0.323  -0.417   3.582  0.00  0.00    -0.267 N 
ATOM      4  C   UNL     1       0.600  -1.858   3.658  0.00  0.00    +0.114 C 
ATOM      5  C   UNL     1      -0.257  -2.442   4.789  0.00  0.00    +0.024 C 
ATOM      6  C   UNL     1       0.176  -1.811   6.112  0.00  0.00    +0.039 C 
ATOM      7  C   UNL     1       0.193  -0.309   6.000  0.00  0.00    -0.023 A 
ATOM      8  C   UNL     1       0.272   0.326   4.769  0.00  0.00    +0.040 A 
ATOM      9  C   UNL     1       0.296   1.714   4.700  0.00  0.00    +0.027 A 
ATOM     10  C   UNL     1       0.244   2.464   5.858  0.00  0.00    -0.048 A 
ATOM     11  C   UNL     1       0.168   1.832   7.086  0.00  0.00    +0.007 A 
ATOM     12  C   UNL     1       0.134   0.449   7.157  0.00  0.00    -0.045 A 
ATOM     13  C   UNL     1       0.050  -0.233   8.498  0.00  0.00    +0.044 C 
ATOM     14  C   UNL     1       0.271   3.969   5.784  0.00  0.00    +0.044 C 
ENDROOT
BRANCH   1  21
ATOM     15  C   UNL     1      -2.096   0.402   0.550  0.00  0.00    +0.044 C 
ATOM     16  C   UNL     1      -0.946  -0.526   0.256  0.00  0.00    -0.038 A 
ATOM     17  C   UNL     1      -0.942  -1.277  -0.902  0.00  0.00    +0.006 A 
ATOM     18  C   UNL     1       0.113  -2.130  -1.173  0.00  0.00    +0.029 A 
ATOM     19  C   UNL     1       1.170  -2.237  -0.287  0.00  0.00    +0.106 A 
ATOM     20  C   UNL     1       1.179  -1.492   0.874  0.00  0.00    +0.041 A 
ATOM     21  C   UNL     1       0.120  -0.625   1.151  0.00  0.00    +0.042 A 
BRANCH  19  22
ATOM     22  S   UNL     1       2.508  -3.327  -0.641  0.00  0.00    +0.056 S 
ATOM     23  O   UNL     1       3.108  -3.653   0.605  0.00  0.00    -0.153 OA
ATOM     24  O   UNL     1       2.001  -4.318  -1.525  0.00  0.00    -0.153 OA
BRANCH  22  25
ATOM     25  N   UNL     1       3.632  -2.462  -1.496  0.00  0.00    -0.204 NA
ATOM     26  H   UNL     1       3.470  -1.528  -1.703  0.00  0.00    +0.144 HD
ATOM     27  H   UNL     1       4.452  -2.888  -1.789  0.00  0.00    +0.144 HD
ENDBRANCH  22  25
ENDBRANCH  19  22
ENDBRANCH   1  21
TORSDOF 3
