REMARK  Name = ZINC28631763
REMARK  8 active torsions:
REMARK  status: ('A' for Active; 'I' for Inactive)
REMARK    1  A    between atoms: C_1  and  C_2
REMARK    2  A    between atoms: C_4  and  O_5
REMARK    3  A    between atoms: C_14  and  C_16
REMARK    4  A    between atoms: C_22  and  C_24
REMARK    5  A    between atoms: C_24  and  N_25
REMARK    6  A    between atoms: C_26  and  C_28
REMARK    7  A    between atoms: C_28  and  C_29
REMARK    8  A    between atoms: C_29  and  C_30
REMARK                            x       y       z     vdW  Elec       q    Type
REMARK                         _______ _______ _______ _____ _____    ______ ____
ROOT
ATOM      1  C   UNL     1      -6.019   4.884   5.631  0.00  0.00    +0.045 C 
ATOM      2  C   UNL     1      -4.595   4.403   5.739  0.00  0.00    -0.033 A 
ATOM      3  C   UNL     1      -3.894   4.551   6.894  0.00  0.00    +0.091 A 
ATOM      4  C   UNL     1      -2.563   4.092   6.971  0.00  0.00    +0.285 A 
ATOM      5  O   UNL     1      -1.958   3.506   5.926  0.00  0.00    -0.425 OA
ATOM      6  C   UNL     1      -2.598   3.329   4.750  0.00  0.00    +0.141 A 
ATOM      7  C   UNL     1      -3.929   3.763   4.603  0.00  0.00    +0.021 A 
ATOM      8  C   UNL     1      -4.596   3.581   3.387  0.00  0.00    +0.013 A 
ATOM      9  C   UNL     1      -3.953   2.981   2.343  0.00  0.00    +0.024 A 
ATOM     10  C   UNL     1      -2.634   2.548   2.481  0.00  0.00    +0.037 A 
ATOM     11  C   UNL     1      -1.960   2.716   3.682  0.00  0.00    +0.070 A 
ATOM     12  N   UNL     1      -1.990   1.937   1.405  0.00  0.00    -0.284 N 
ATOM     13  C   UNL     1      -0.676   2.150   1.197  0.00  0.00    +0.238 C 
ATOM     14  O   UNL     1      -0.034   2.803   1.993  0.00  0.00    -0.273 OA
ATOM     15  H   UNL     1      -2.555   1.280   0.727  0.00  0.00    +0.155 HD
ENDROOT
BRANCH  13  16
ATOM     16  C   UNL     1      -0.004   1.578  -0.024  0.00  0.00    +0.162 C 
ATOM     17  C   UNL     1       0.546   0.161   0.277  0.00  0.00    +0.033 C 
ATOM     18  C   UNL     1       1.674   0.034  -0.781  0.00  0.00    +0.021 C 
ATOM     19  C   UNL     1       2.235   1.469  -0.863  0.00  0.00    +0.108 C 
ATOM     20  N   UNL     1       1.184   2.376  -0.378  0.00  0.00    -0.289 N 
ATOM     21  C   UNL     1       1.290   3.716  -0.274  0.00  0.00    +0.233 C 
ATOM     22  O   UNL     1       0.395   4.357   0.235  0.00  0.00    -0.274 OA
BRANCH  21  23
ATOM     23  C   UNL     1       2.520   4.417  -0.789  0.00  0.00    +0.200 C 
BRANCH  23  24
ATOM     24  N   UNL     1       2.393   5.859  -0.560  0.00  0.00    -0.307 N 
ATOM     25  C   UNL     1       3.381   6.692  -0.943  0.00  0.00    +0.214 C 
ATOM     26  O   UNL     1       4.375   6.248  -1.476  0.00  0.00    -0.276 OA
ATOM     27  H   UNL     1       1.491   6.261  -0.076  0.00  0.00    +0.149 HD
BRANCH  25  28
ATOM     28  C   UNL     1       3.249   8.174  -0.707  0.00  0.00    +0.107 C 
BRANCH  28  29
ATOM     29  C   UNL     1       4.499   8.886  -1.230  0.00  0.00    +0.134 C 
BRANCH  29  30
ATOM     30  C   UNL     1       4.367  10.369  -0.995  0.00  0.00    +0.356 C 
ATOM     31  O   UNL     1       3.377  10.811  -0.464  0.00  0.00    -0.246 OA
ATOM     32  O   UNL     1       5.352  11.199  -1.376  0.00  0.00    -0.246 OA
ENDBRANCH  29  30
ENDBRANCH  28  29
ENDBRANCH  25  28
ENDBRANCH  23  24
ENDBRANCH  21  23
ENDBRANCH  13  16
BRANCH   4  33
ATOM     33  O   UNL     1      -1.947   4.230   8.012  0.00  0.00    -0.480 OA
ATOM     34  H   UNL     1      -0.908   3.877   8.087  0.00  0.00    +0.295 HD
ENDBRANCH   4  33
TORSDOF 7
