REMARK  Name = ZINC26271800
REMARK  9 active torsions:
REMARK  status: ('A' for Active; 'I' for Inactive)
REMARK    1  A    between atoms: C_15  and  C_17
REMARK    2  A    between atoms: C_17  and  C_19
REMARK    3  A    between atoms: C_17  and  N_26
REMARK    4  A    between atoms: C_19  and  C_20
REMARK    5  A    between atoms: C_29  and  C_34
REMARK    6  A    between atoms: C_34  and  C_35
REMARK    7  A    between atoms: C_35  and  C_36
REMARK    8  A    between atoms: C_36  and  C_37
REMARK    9  A    between atoms: C_37  and  N_38
REMARK                            x       y       z     vdW  Elec       q    Type
REMARK                         _______ _______ _______ _____ _____    ______ ____
ROOT
ATOM      1  C   UNL     1       0.078   1.849   0.041  0.00  0.00    +0.172 C 
ENDROOT
BRANCH   1  16
ATOM      2  C   UNL     1      -6.734   0.697  -5.564  0.00  0.00    +0.000 A 
ATOM      3  C   UNL     1      -5.577  -0.021  -5.326  0.00  0.00    +0.000 A 
ATOM      4  C   UNL     1      -4.645   0.452  -4.424  0.00  0.00    +0.004 A 
ATOM      5  C   UNL     1      -4.864   1.645  -3.756  0.00  0.00    -0.038 A 
ATOM      6  C   UNL     1      -6.021   2.364  -3.994  0.00  0.00    -0.044 A 
ATOM      7  C   UNL     1      -6.954   1.887  -4.899  0.00  0.00    +0.004 A 
ATOM      8  C   UNL     1      -6.027   3.620  -3.149  0.00  0.00    +0.036 C 
ATOM      9  C   UNL     1      -4.963   3.378  -2.056  0.00  0.00    +0.016 C 
ATOM     10  C   UNL     1      -4.018   2.372  -2.737  0.00  0.00    -0.001 C 
ATOM     11  C   UNL     1      -2.878   3.115  -3.429  0.00  0.00    +0.030 C 
ATOM     12  C   UNL     1      -2.074   3.897  -2.384  0.00  0.00    +0.108 C 
ATOM     13  N   UNL     1      -1.652   2.972  -1.323  0.00  0.00    -0.300 N 
ATOM     14  C   UNL     1      -2.670   2.154  -0.651  0.00  0.00    +0.108 C 
ATOM     15  C   UNL     1      -3.471   1.391  -1.704  0.00  0.00    +0.030 C 
ATOM     16  C   UNL     1      -0.353   2.872  -0.977  0.00  0.00    +0.237 C 
ATOM     17  O   UNL     1       0.468   3.606  -1.486  0.00  0.00    -0.274 OA
ENDBRANCH   1  16
BRANCH   1  18
ATOM     18  N   UNL     1       1.421   2.179   0.525  0.00  0.00    -0.212 N 
ATOM     19  C   UNL     1       1.701   2.544   1.792  0.00  0.00    +0.244 C 
ATOM     20  O   UNL     1       0.919   2.658   2.711  0.00  0.00    -0.273 OA
ATOM     21  C   UNL     1       3.198   2.782   1.829  0.00  0.00    +0.161 C 
ATOM     22  N   UNL     1       3.628   2.496   0.449  0.00  0.00    -0.288 N 
ATOM     23  C   UNL     1       2.522   2.148  -0.234  0.00  0.00    +0.310 C 
ATOM     24  O   UNL     1       2.523   1.843  -1.411  0.00  0.00    -0.252 OA
ATOM     25  H   UNL     1       4.688   2.591   0.172  0.00  0.00    +0.151 HD
BRANCH  21  26
ATOM     26  C   UNL     1       3.871   1.823   2.812  0.00  0.00    +0.032 C 
BRANCH  26  27
ATOM     27  C   UNL     1       5.358   2.167   2.922  0.00  0.00    +0.000 C 
BRANCH  27  28
ATOM     28  C   UNL     1       6.032   1.208   3.906  0.00  0.00    -0.019 C 
BRANCH  28  29
ATOM     29  C   UNL     1       7.519   1.551   4.016  0.00  0.00    -0.086 C 
BRANCH  29  30
ATOM     30  N   UNL     1       8.165   0.631   4.961  0.00  0.00    +0.378 N 
ATOM     31  H   UNL     1       9.234   0.878   5.040  0.00  0.00    -0.090 HD
ATOM     32  H   UNL     1       8.053  -0.403   4.600  0.00  0.00    -0.090 HD
ATOM     33  H   UNL     1       7.692   0.727   5.949  0.00  0.00    -0.090 HD
ENDBRANCH  29  30
ENDBRANCH  28  29
ENDBRANCH  27  28
ENDBRANCH  26  27
ENDBRANCH  21  26
ENDBRANCH   1  18
BRANCH   1  34
ATOM     34  C   UNL     1       0.095   0.462  -0.604  0.00  0.00    +0.036 C 
BRANCH  34  35
ATOM     35  C   UNL     1       0.453  -0.587   0.451  0.00  0.00    -0.009 C 
ATOM     36  C   UNL     1       0.567  -1.960  -0.214  0.00  0.00    +0.003 C 
ATOM     37  C   UNL     1       0.925  -3.009   0.840  0.00  0.00    +0.000 C 
ATOM     38  C   UNL     1      -0.167  -3.050   1.911  0.00  0.00    +0.000 C 
ATOM     39  C   UNL     1      -0.281  -1.677   2.575  0.00  0.00    +0.000 C 
ATOM     40  C   UNL     1      -0.639  -0.628   1.521  0.00  0.00    +0.003 C 
ENDBRANCH  34  35
ENDBRANCH   1  34
TORSDOF 9
