REMARK  Name = ZINC41069894
REMARK  7 active torsions:
REMARK  status: ('A' for Active; 'I' for Inactive)
REMARK    1  A    between atoms: C_1  and  C_2
REMARK    2  A    between atoms: C_5  and  N_9
REMARK    3  A    between atoms: C_7  and  C_8
REMARK    4  A    between atoms: N_9  and  S_10
REMARK    5  A    between atoms: S_10  and  C_13
REMARK    6  A    between atoms: C_18  and  N_19
REMARK    7  A    between atoms: N_19  and  N_20
REMARK                            x       y       z     vdW  Elec       q    Type
REMARK                         _______ _______ _______ _____ _____    ______ ____
ROOT
ATOM      1  S   UNL     1       1.002  -5.027  -1.161  0.00  0.00    +0.076 S 
ATOM      2  O   UNL     1       0.786  -6.428  -1.060  0.00  0.00    -0.150 OA
ATOM      3  O   UNL     1       0.785  -4.308  -2.367  0.00  0.00    -0.150 OA
ENDROOT
BRANCH   1   4
ATOM      4  C   UNL     1       2.678  -4.741  -0.699  0.00  0.00    +0.150 A 
ATOM      5  C   UNL     1       3.497  -3.949  -1.485  0.00  0.00    +0.049 A 
ATOM      6  C   UNL     1       4.811  -3.751  -1.083  0.00  0.00    +0.038 A 
ATOM      7  C   UNL     1       5.260  -4.346   0.081  0.00  0.00    +0.128 A 
ATOM      8  N   UNL     1       4.456  -5.096   0.810  0.00  0.00    -0.236 NA
ATOM      9  C   UNL     1       3.195  -5.304   0.463  0.00  0.00    +0.159 A 
ATOM     10 BR   UNL     1       5.976  -2.679  -2.118  0.00  0.00    -0.049 Br
BRANCH   9  11
ATOM     11  N   UNL     1       2.382  -6.097   1.265  0.00  0.00    -0.266 N 
ATOM     12  H   UNL     1       1.436  -6.181   1.064  0.00  0.00    +0.167 HD
BRANCH  11  13
ATOM     13  N   UNL     1       2.913  -6.756   2.337  0.00  0.00    -0.255 NA
ATOM     14  H   UNL     1       2.206  -7.288   2.821  0.00  0.00    +0.140 HD
ATOM     15  H   UNL     1       3.680  -7.348   2.053  0.00  0.00    +0.140 HD
ENDBRANCH  11  13
ENDBRANCH   9  11
ENDBRANCH   1   4
BRANCH   1  16
ATOM     16  N   UNL     1       0.049  -4.317  -0.008  0.00  0.00    -0.216 N 
ATOM     17  H   UNL     1      -0.545  -4.861   0.533  0.00  0.00    +0.174 HD
BRANCH  16  22
ATOM     18  C   UNL     1       0.254   1.296   0.778  0.00  0.00    +0.044 C 
ATOM     19  C   UNL     1       0.199  -0.196   0.569  0.00  0.00    -0.047 A 
ATOM     20  C   UNL     1       0.136  -0.711  -0.713  0.00  0.00    +0.005 A 
ATOM     21  C   UNL     1       0.086  -2.077  -0.908  0.00  0.00    +0.025 A 
ATOM     22  C   UNL     1       0.100  -2.934   0.186  0.00  0.00    +0.048 A 
ATOM     23  C   UNL     1       0.164  -2.413   1.472  0.00  0.00    +0.028 A 
ATOM     24  C   UNL     1       0.219  -1.046   1.659  0.00  0.00    -0.046 A 
ATOM     25  C   UNL     1       0.294  -0.480   3.054  0.00  0.00    +0.044 C 
ENDBRANCH  16  22
ENDBRANCH   1  16
TORSDOF 5
