REMARK  Name = ZINC07041941
REMARK  12 active torsions:
REMARK  status: ('A' for Active; 'I' for Inactive)
REMARK    1  A    between atoms: C_1  and  C_2
REMARK    2  A    between atoms: C_5  and  C_28
REMARK    3  A    between atoms: C_6  and  N_8
REMARK    4  A    between atoms: N_8  and  C_9
REMARK    5  A    between atoms: C_9  and  C_11
REMARK    6  A    between atoms: C_9  and  C_12
REMARK    7  A    between atoms: N_14  and  C_15
REMARK    8  A    between atoms: C_18  and  S_21
REMARK    9  A    between atoms: S_21  and  N_24
REMARK   10  A    between atoms: N_24  and  C_25
REMARK   11  A    between atoms: C_25  and  C_26
REMARK   12  A    between atoms: C_25  and  C_27
REMARK                            x       y       z     vdW  Elec       q    Type
REMARK                         _______ _______ _______ _____ _____    ______ ____
ROOT
ATOM      1  C   UNL     1      -2.806   4.216   5.426  0.00  0.00    +0.237 C 
ATOM      2  O   UNL     1      -2.000   4.979   4.938  0.00  0.00    -0.273 OA
ATOM      3  N   UNL     1      -3.077   3.043   4.819  0.00  0.00    -0.284 N 
ATOM      4  H   UNL     1      -3.776   2.467   5.167  0.00  0.00    +0.155 HD
ENDROOT
BRANCH   3   5
ATOM      5  C   UNL     1      -2.351   2.657   3.688  0.00  0.00    +0.034 A 
ATOM      6  C   UNL     1      -1.014   3.011   3.565  0.00  0.00    +0.025 A 
ATOM      7  C   UNL     1      -0.299   2.627   2.447  0.00  0.00    +0.030 A 
ATOM      8  C   UNL     1      -0.914   1.891   1.451  0.00  0.00    +0.105 A 
ATOM      9  C   UNL     1      -2.247   1.541   1.568  0.00  0.00    +0.030 A 
ATOM     10  C   UNL     1      -2.965   1.917   2.686  0.00  0.00    +0.025 A 
BRANCH   8  11
ATOM     11  S   UNL     1       0.001   1.403   0.026  0.00  0.00    +0.059 S 
ATOM     12  O   UNL     1       1.076   2.324  -0.101  0.00  0.00    -0.153 OA
ATOM     13  O   UNL     1      -0.946   1.190  -1.012  0.00  0.00    -0.153 OA
BRANCH  11  14
ATOM     14  N   UNL     1       0.678  -0.071   0.359  0.00  0.00    -0.187 NA
ATOM     15  H   UNL     1       1.642  -0.161   0.413  0.00  0.00    +0.148 HD
BRANCH  14  16
ATOM     16  C   UNL     1      -0.180  -1.239   0.574  0.00  0.00    +0.070 C 
ATOM     17  C   UNL     1       0.507  -2.486   0.014  0.00  0.00    +0.025 C 
ATOM     18  C   UNL     1      -0.427  -1.422   2.073  0.00  0.00    +0.025 C 
ENDBRANCH  14  16
ENDBRANCH  11  14
ENDBRANCH   8  11
ENDBRANCH   3   5
BRANCH   1  19
ATOM     19  C   UNL     1      -3.504   4.578   6.712  0.00  0.00    +0.154 C 
ATOM     20  C   UNL     1      -5.015   4.625   6.475  0.00  0.00    +0.038 C 
BRANCH  19  21
ATOM     21  N   UNL     1      -3.040   5.891   7.166  0.00  0.00    -0.333 N 
ATOM     22  H   UNL     1      -2.686   6.529   6.526  0.00  0.00    +0.147 HD
BRANCH  21  28
ATOM     23  C   UNL     1      -4.224   4.658  11.773  0.00  0.00    +0.044 C 
ATOM     24  C   UNL     1      -3.676   5.646  10.777  0.00  0.00    -0.049 A 
ATOM     25  C   UNL     1      -3.236   6.886  11.204  0.00  0.00    +0.004 A 
ATOM     26  C   UNL     1      -2.732   7.796  10.294  0.00  0.00    +0.005 A 
ATOM     27  C   UNL     1      -2.661   7.467   8.954  0.00  0.00    -0.030 A 
ATOM     28  C   UNL     1      -3.106   6.225   8.521  0.00  0.00    +0.031 A 
ATOM     29  C   UNL     1      -3.612   5.313   9.438  0.00  0.00    +0.026 A 
ATOM     30  C   UNL     1      -2.106   8.457   7.963  0.00  0.00    +0.045 C 
ENDBRANCH  21  28
ENDBRANCH  19  21
ENDBRANCH   1  19
TORSDOF 7
