REMARK  Name = ZINC02551496
REMARK  4 active torsions:
REMARK  status: ('A' for Active; 'I' for Inactive)
REMARK    1  A    between atoms: C_1  and  C_2
REMARK    2  A    between atoms: C_5  and  S_8
REMARK    3  A    between atoms: S_8  and  O_11
REMARK    4  A    between atoms: O_11  and  C_12
REMARK                            x       y       z     vdW  Elec       q    Type
REMARK                         _______ _______ _______ _____ _____    ______ ____
ROOT
ATOM      1  C   UNL     1       2.974  -1.845   0.560  0.00  0.00    +0.171 A 
ATOM      2  C   UNL     1       3.600  -0.700   0.963  0.00  0.00    +0.119 A 
ATOM      3  C   UNL     1       2.851   0.358   1.494  0.00  0.00    +0.255 A 
ATOM      4  O   UNL     1       3.432   1.370   1.851  0.00  0.00    -0.268 OA
ATOM      5  N   UNL     1       1.511   0.297   1.624  0.00  0.00    -0.308 N 
ATOM      6  C   UNL     1       0.815  -0.833   1.246  0.00  0.00    +0.059 A 
ATOM      7  C   UNL     1       1.514  -1.928   0.704  0.00  0.00    +0.044 A 
ATOM      8  C   UNL     1       0.824  -3.077   0.311  0.00  0.00    +0.014 A 
ATOM      9  C   UNL     1      -0.543  -3.136   0.458  0.00  0.00    +0.001 A 
ATOM     10  C   UNL     1      -1.234  -2.060   0.996  0.00  0.00    +0.006 A 
ATOM     11  C   UNL     1      -0.566  -0.919   1.388  0.00  0.00    -0.023 A 
ATOM     12  C   UNL     1      -1.345   0.231   1.973  0.00  0.00    +0.039 C 
ATOM     13  C   UNL     1      -0.437   1.003   2.935  0.00  0.00    +0.026 C 
ATOM     14  C   UNL     1       0.808   1.462   2.172  0.00  0.00    +0.126 C 
ENDROOT
BRANCH   1  15
ATOM     15  O   UNL     1       3.680  -2.877   0.043  0.00  0.00    -0.341 OA
BRANCH  15  16
ATOM     16  S   UNL     1       5.157  -2.575  -0.163  0.00  0.00    +0.151 S 
ATOM     17  O   UNL     1       5.717  -3.707  -0.814  0.00  0.00    -0.131 OA
ATOM     18  O   UNL     1       5.231  -1.266  -0.713  0.00  0.00    -0.131 OA
BRANCH  16  23
ATOM     19  C   UNL     1       7.700  -2.296   5.301  0.00  0.00    +0.044 C 
ATOM     20  C   UNL     1       7.066  -2.366   3.937  0.00  0.00    -0.050 A 
ATOM     21  C   UNL     1       6.450  -3.531   3.519  0.00  0.00    +0.005 A 
ATOM     22  C   UNL     1       5.867  -3.595   2.267  0.00  0.00    +0.031 A 
ATOM     23  C   UNL     1       5.900  -2.493   1.433  0.00  0.00    +0.128 A 
ATOM     24  C   UNL     1       6.520  -1.330   1.848  0.00  0.00    +0.031 A 
ATOM     25  C   UNL     1       7.099  -1.264   3.102  0.00  0.00    +0.005 A 
ENDBRANCH  16  23
ENDBRANCH  15  16
ENDBRANCH   1  15
TORSDOF 3
