REMARK  Name = ZINC16749443
REMARK  7 active torsions:
REMARK  status: ('A' for Active; 'I' for Inactive)
REMARK    1  A    between atoms: C_3  and  C_13
REMARK    2  A    between atoms: C_4  and  N_10
REMARK    3  A    between atoms: C_6  and  C_7
REMARK    4  A    between atoms: C_13  and  O_14
REMARK    5  A    between atoms: O_14  and  C_15
REMARK    6  A    between atoms: C_15  and  C_17
REMARK    7  A    between atoms: C_22  and  O_23
REMARK                            x       y       z     vdW  Elec       q    Type
REMARK                         _______ _______ _______ _____ _____    ______ ____
ROOT
ATOM      1  C   UNL     1       1.237  -2.056  -0.020  0.00  0.00    +0.013 A 
ATOM      2  C   UNL     1       1.211  -0.676  -0.013  0.00  0.00    +0.010 A 
ATOM      3  C   UNL     1       0.002  -0.004   0.002  0.00  0.00    +0.020 A 
ATOM      4  C   UNL     1      -1.188  -0.709   0.015  0.00  0.00    +0.133 A 
ATOM      5  C   UNL     1      -1.177  -2.088   0.003  0.00  0.00    +0.046 A 
ATOM      6  C   UNL     1       0.040  -2.773  -0.012  0.00  0.00    +0.039 A 
ENDROOT
BRANCH   6   7
ATOM      7  C   UNL     1       0.060  -4.251  -0.019  0.00  0.00    +0.242 C 
ATOM      8  O   UNL     1      -0.985  -4.873  -0.012  0.00  0.00    -0.270 OA
ATOM      9  N   UNL     1       1.236  -4.909  -0.034  0.00  0.00    -0.325 N 
ATOM     10  H   UNL     1       2.069  -4.413  -0.040  0.00  0.00    +0.145 HD
ATOM     11  H   UNL     1       1.249  -5.879  -0.039  0.00  0.00    +0.145 HD
ENDBRANCH   6   7
BRANCH   4  12
ATOM     12  N   UNL     1      -2.477   0.018   0.037  0.00  0.00    +0.057 N 
ATOM     13  O   UNL     1      -3.526  -0.601   0.049  0.00  0.00    -0.126 OA
ATOM     14  O   UNL     1      -2.489   1.236   0.043  0.00  0.00    -0.126 OA
ENDBRANCH   4  12
BRANCH   3  15
ATOM     15  C   UNL     1      -0.018   1.503   0.010  0.00  0.00    +0.270 C 
BRANCH  15  16
ATOM     16  O   UNL     1       1.344   2.005   0.000  0.00  0.00    -0.456 OA
BRANCH  16  17
ATOM     17  C   UNL     1       1.502   3.344   0.006  0.00  0.00    +0.343 C 
ATOM     18  O   UNL     1       0.529   4.071   0.019  0.00  0.00    -0.245 OA
BRANCH  17  19
ATOM     19  C   UNL     1       2.857   3.925  -0.004  0.00  0.00    +0.101 A 
ATOM     20  C   UNL     1       3.979   3.093  -0.019  0.00  0.00    +0.034 A 
ATOM     21  C   UNL     1       5.243   3.644  -0.029  0.00  0.00    +0.019 A 
ATOM     22  C   UNL     1       5.405   5.021  -0.024  0.00  0.00    +0.019 A 
ATOM     23  C   UNL     1       4.305   5.854  -0.009  0.00  0.00    +0.047 A 
ATOM     24  C   UNL     1       3.026   5.317  -0.004  0.00  0.00    +0.131 A 
ATOM     25 BR   UNL     1       6.761   2.517  -0.050  0.00  0.00    -0.050 Br
BRANCH  24  26
ATOM     26  O   UNL     1       1.944   6.135   0.005  0.00  0.00    -0.506 OA
ATOM     27  H   UNL     1       1.637   6.371   0.891  0.00  0.00    +0.292 HD
ENDBRANCH  24  26
ENDBRANCH  17  19
ENDBRANCH  16  17
ENDBRANCH  15  16
ENDBRANCH   3  15
TORSDOF 7
