REMARK  Name = ZINC67373837
REMARK  4 active torsions:
REMARK  status: ('A' for Active; 'I' for Inactive)
REMARK    1  A    between atoms: C_6  and  C_7
REMARK    2  A    between atoms: C_7  and  C_9
REMARK    3  A    between atoms: C_7  and  O_24
REMARK    4  A    between atoms: C_18  and  C_21
REMARK                            x       y       z     vdW  Elec       q    Type
REMARK                         _______ _______ _______ _____ _____    ______ ____
ROOT
ATOM      1  C   UNL     1      -1.607  -1.076   1.484  0.00  0.00    +0.025 C 
ATOM      2  C   UNL     1      -1.718   0.141   2.405  0.00  0.00    +0.025 C 
ATOM      3  C   UNL     1      -2.094  -0.324   3.816  0.00  0.00    +0.107 C 
ATOM      4  N   UNL     1      -3.316  -1.135   3.737  0.00  0.00    -0.314 N 
ATOM      5  C   UNL     1      -3.348  -2.277   2.813  0.00  0.00    +0.107 C 
ATOM      6  C   UNL     1      -2.959  -1.790   1.414  0.00  0.00    +0.025 C 
ATOM      7  C   UNL     1      -4.419  -0.829   4.520  0.00  0.00    +0.140 A 
ATOM      8  C   UNL     1      -4.542  -1.398   5.787  0.00  0.00    +0.082 A 
ATOM      9  C   UNL     1      -5.633  -1.093   6.557  0.00  0.00    +0.043 A 
ATOM     10  C   UNL     1      -6.593  -0.211   6.038  0.00  0.00    +0.071 A 
ATOM     11  C   UNL     1      -6.404   0.321   4.761  0.00  0.00    +0.131 A 
ATOM     12  N   UNL     1      -5.338   0.006   4.056  0.00  0.00    -0.238 NA
ATOM     13 CL   UNL     1      -3.325  -2.484   6.381  0.00  0.00    -0.080 Cl
ENDROOT
BRANCH  10  14
ATOM     14  C   UNL     1      -7.750   0.137   6.806  0.00  0.00    +0.101 C 
ATOM     15  N   UNL     1      -8.668   0.413   7.416  0.00  0.00    -0.191 NA
ENDBRANCH  10  14
BRANCH   1  16
ATOM     16  C   UNL     1      -1.199  -0.619   0.082  0.00  0.00    +0.148 C 
BRANCH  16  22
ATOM     17  C   UNL     1       0.181   1.462   0.256  0.00  0.00    +0.007 A 
ATOM     18  C   UNL     1       1.402   2.107   0.319  0.00  0.00    +0.020 A 
ATOM     19  C   UNL     1       2.575   1.375   0.278  0.00  0.00    +0.041 A 
ATOM     20  C   UNL     1       2.525  -0.004   0.173  0.00  0.00    +0.020 A 
ATOM     21  C   UNL     1       1.304  -0.648   0.109  0.00  0.00    +0.007 A 
ATOM     22  C   UNL     1       0.132   0.084   0.151  0.00  0.00    -0.019 A 
ATOM     23 CL   UNL     1       4.108   2.185   0.357  0.00  0.00    -0.084 Cl
ENDBRANCH  16  22
BRANCH  16  24
ATOM     24  O   UNL     1      -1.093  -1.755  -0.778  0.00  0.00    -0.387 OA
ATOM     25  H   UNL     1      -0.441  -2.408  -0.489  0.00  0.00    +0.210 HD
ENDBRANCH  16  24
ENDBRANCH   1  16
TORSDOF 4
