REMARK  Name = ZINC17820040
REMARK  5 active torsions:
REMARK  status: ('A' for Active; 'I' for Inactive)
REMARK    1  A    between atoms: C_1  and  N_2
REMARK    2  A    between atoms: N_2  and  C_3
REMARK    3  A    between atoms: C_3  and  N_4
REMARK    4  A    between atoms: C_12  and  N_14
REMARK    5  A    between atoms: N_17  and  C_18
REMARK                            x       y       z     vdW  Elec       q    Type
REMARK                         _______ _______ _______ _____ _____    ______ ____
ROOT
ATOM      1  N   UNL     1      -1.942  -4.946   2.517  0.00  0.00    -0.296 N 
ATOM      2  C   UNL     1      -2.542  -6.076   2.094  0.00  0.00    +0.300 C 
ATOM      3  O   UNL     1      -2.102  -6.676   1.133  0.00  0.00    -0.253 OA
ATOM      4  N   UNL     1      -3.631  -6.543   2.738  0.00  0.00    -0.294 N 
ATOM      5  H   UNL     1      -2.294  -4.468   3.284  0.00  0.00    +0.151 HD
ATOM      6  H   UNL     1      -3.982  -6.064   3.505  0.00  0.00    +0.151 HD
ENDROOT
BRANCH   4   7
ATOM      7  C   UNL     1      -4.283  -7.771   2.279  0.00  0.00    +0.037 C 
ATOM      8  C   UNL     1      -3.289  -8.932   2.345  0.00  0.00    +0.029 C 
ATOM      9  C   UNL     1      -3.970 -10.215   1.866  0.00  0.00    -0.008 C 
ATOM     10  C   UNL     1      -5.172 -10.521   2.762  0.00  0.00    +0.007 C 
ATOM     11  C   UNL     1      -6.166  -9.360   2.695  0.00  0.00    -0.008 C 
ATOM     12  C   UNL     1      -5.485  -8.076   3.175  0.00  0.00    +0.029 C 
ATOM     13  C   UNL     1      -6.640  -9.177   1.252  0.00  0.00    +0.007 C 
ATOM     14  C   UNL     1      -5.438  -8.871   0.356  0.00  0.00    -0.008 C 
ATOM     15  C   UNL     1      -4.444 -10.032   0.422  0.00  0.00    +0.007 C 
ATOM     16  C   UNL     1      -4.757  -7.588   0.835  0.00  0.00    +0.029 C 
ENDBRANCH   4   7
BRANCH   1  23
ATOM     17  N   UNL     1       0.623  -2.023   0.996  0.00  0.00    -0.306 N 
ATOM     18  C   UNL     1       0.049  -2.943  -0.016  0.00  0.00    +0.077 C 
ATOM     19  C   UNL     1       1.122  -4.043  -0.183  0.00  0.00    +0.024 C 
ATOM     20  C   UNL     1       1.898  -4.040   1.151  0.00  0.00    +0.024 C 
ATOM     21  C   UNL     1       1.227  -2.938   1.995  0.00  0.00    +0.077 C 
ATOM     22  C   UNL     1       0.074  -3.585   2.778  0.00  0.00    +0.045 C 
ATOM     23  C   UNL     1      -0.759  -4.439   1.817  0.00  0.00    +0.078 C 
ATOM     24  C   UNL     1      -1.205  -3.579   0.605  0.00  0.00    +0.045 C 
BRANCH  17  25
ATOM     25  C   UNL     1       0.604  -0.675   1.004  0.00  0.00    +0.133 C 
ATOM     26  S   UNL     1       1.346   0.184   2.285  0.00  0.00    -0.019 S 
BRANCH  25  28
ATOM     27  C   UNL     1      -0.018   1.461   0.010  0.00  0.00    +0.127 C 
ATOM     28  N   UNL     1       0.002  -0.004   0.002  0.00  0.00    -0.329 N 
ATOM     29  H   UNL     1      -0.418  -0.491  -0.724  0.00  0.00    +0.147 HD
ENDBRANCH  25  28
ENDBRANCH  17  25
ENDBRANCH   1  23
TORSDOF 4
