REMARK  Name = ZINC09373809
REMARK  8 active torsions:
REMARK  status: ('A' for Active; 'I' for Inactive)
REMARK    1  A    between atoms: C_1  and  C_2
REMARK    2  A    between atoms: C_5  and  N_8
REMARK    3  A    between atoms: C_9  and  C_11
REMARK    4  A    between atoms: C_11  and  S_12
REMARK    5  A    between atoms: S_12  and  C_13
REMARK    6  A    between atoms: C_16  and  C_19
REMARK    7  A    between atoms: N_17  and  N_18
REMARK    8  A    between atoms: C_21  and  C_25
REMARK                            x       y       z     vdW  Elec       q    Type
REMARK                         _______ _______ _______ _____ _____    ______ ____
ROOT
ATOM      1  C   UNL     1       0.593  -8.709   2.636  0.00  0.00    +0.209 A 
ATOM      2  N   UNL     1       0.603  -9.373   1.503  0.00  0.00    -0.120 NA
ATOM      3  N   UNL     1       0.725 -10.632   1.730  0.00  0.00    -0.125 NA
ATOM      4  C   UNL     1       0.800 -10.849   3.022  0.00  0.00    +0.202 A 
ATOM      5  N   UNL     1       0.724  -9.623   3.643  0.00  0.00    -0.222 N 
ENDROOT
BRANCH   4   6
ATOM      6  C   UNL     1       0.945 -12.163   3.687  0.00  0.00    +0.132 A 
ATOM      7  C   UNL     1       1.034 -13.409   3.039  0.00  0.00    +0.061 A 
ATOM      8  C   UNL     1       1.159 -14.369   3.999  0.00  0.00    +0.066 A 
ATOM      9  N   UNL     1       1.148 -13.743   5.211  0.00  0.00    -0.276 N 
ATOM     10  H   UNL     1       1.221 -14.176   6.077  0.00  0.00    +0.189 HD
ATOM     11  N   UNL     1       1.019 -12.367   4.987  0.00  0.00    -0.170 NA
BRANCH   8  12
ATOM     12  C   UNL     1       1.282 -15.825   3.768  0.00  0.00    -0.000 A 
ATOM     13  C   UNL     1       1.284 -16.330   2.468  0.00  0.00    +0.011 A 
ATOM     14  C   UNL     1       1.400 -17.689   2.258  0.00  0.00    +0.020 A 
ATOM     15  C   UNL     1       1.514 -18.551   3.335  0.00  0.00    +0.041 A 
ATOM     16  C   UNL     1       1.514 -18.055   4.628  0.00  0.00    +0.020 A 
ATOM     17  C   UNL     1       1.404 -16.698   4.849  0.00  0.00    +0.011 A 
ATOM     18 CL   UNL     1       1.659 -20.259   3.064  0.00  0.00    -0.084 Cl
ENDBRANCH   8  12
ENDBRANCH   4   6
BRANCH   5  19
ATOM     19  N   UNL     1       0.766  -9.373   4.985  0.00  0.00    -0.295 N 
ATOM     20  H   UNL     1      -0.160  -9.391   5.386  0.00  0.00    +0.163 HD
ATOM     21  H   UNL     1       1.376 -10.025   5.455  0.00  0.00    +0.163 HD
ENDBRANCH   5  19
BRANCH   1  22
ATOM     22  S   UNL     1       0.446  -6.963   2.823  0.00  0.00    -0.075 S 
BRANCH  22  23
ATOM     23  C   UNL     1       0.309  -6.349   1.121  0.00  0.00    +0.173 C 
BRANCH  23  25
ATOM     24  N   UNL     1       0.059  -4.170  -0.021  0.00  0.00    -0.285 N 
ATOM     25  C   UNL     1       0.175  -4.848   1.138  0.00  0.00    +0.227 C 
ATOM     26  O   UNL     1       0.173  -4.251   2.193  0.00  0.00    -0.275 OA
ATOM     27  H   UNL     1      -0.017  -4.651  -0.860  0.00  0.00    +0.155 HD
BRANCH  24  32
ATOM     28  C   UNL     1       0.008   1.503   0.007  0.00  0.00    +0.044 C 
ATOM     29  C   UNL     1       0.022  -0.004  -0.001  0.00  0.00    -0.050 A 
ATOM     30  C   UNL     1       0.777  -0.692   0.931  0.00  0.00    +0.005 A 
ATOM     31  C   UNL     1       0.791  -2.073   0.927  0.00  0.00    +0.023 A 
ATOM     32  C   UNL     1       0.046  -2.771  -0.014  0.00  0.00    +0.033 A 
ATOM     33  C   UNL     1      -0.712  -2.077  -0.948  0.00  0.00    +0.023 A 
ATOM     34  C   UNL     1      -0.726  -0.696  -0.936  0.00  0.00    +0.005 A 
ENDBRANCH  24  32
ENDBRANCH  23  25
ENDBRANCH  22  23
ENDBRANCH   1  22
TORSDOF 7
