REMARK  Name = ZINC40762044
REMARK  4 active torsions:
REMARK  status: ('A' for Active; 'I' for Inactive)
REMARK    1  A    between atoms: C_6  and  N_7
REMARK    2  A    between atoms: C_9  and  N_25
REMARK    3  A    between atoms: C_10  and  N_14
REMARK    4  A    between atoms: N_14  and  C_15
REMARK                            x       y       z     vdW  Elec       q    Type
REMARK                         _______ _______ _______ _____ _____    ______ ____
ROOT
ATOM      1  N   UNL     1      -1.163  -0.719  -0.322  0.00  0.00    -0.298 N 
ATOM      2  C   UNL     1      -1.161  -2.105  -0.433  0.00  0.00    +0.149 A 
ATOM      3  C   UNL     1      -2.356  -2.823  -0.366  0.00  0.00    +0.106 A 
ATOM      4  C   UNL     1      -2.297  -4.213  -0.483  0.00  0.00    +0.149 A 
ATOM      5  N   UNL     1      -1.113  -4.796  -0.653  0.00  0.00    -0.219 NA
ATOM      6  C   UNL     1      -0.008  -4.081  -0.711  0.00  0.00    +0.225 A 
ATOM      7  N   UNL     1      -0.020  -2.767  -0.610  0.00  0.00    -0.219 NA
ATOM      8  H   UNL     1      -1.988  -0.249  -0.123  0.00  0.00    +0.154 HD
ENDROOT
BRANCH   1  14
ATOM      9  C   UNL     1       0.987  -0.458  -1.390  0.00  0.00    +0.024 A 
ATOM     10  C   UNL     1       2.159   0.253  -1.561  0.00  0.00    +0.017 A 
ATOM     11  C   UNL     1       2.374   1.417  -0.846  0.00  0.00    +0.018 A 
ATOM     12  C   UNL     1       1.417   1.874   0.043  0.00  0.00    +0.017 A 
ATOM     13  C   UNL     1       0.243   1.168   0.218  0.00  0.00    +0.024 A 
ATOM     14  C   UNL     1       0.024  -0.002  -0.498  0.00  0.00    +0.032 A 
ATOM     15 BR   UNL     1       3.981   2.387  -1.083  0.00  0.00    -0.050 Br
ENDBRANCH   1  14
BRANCH   3  16
ATOM     16  N   UNL     1      -3.583  -2.166  -0.186  0.00  0.00    -0.353 N 
ATOM     17  H   UNL     1      -3.609  -1.200  -0.106  0.00  0.00    +0.143 HD
ATOM     18  H   UNL     1      -4.406  -2.678  -0.142  0.00  0.00    +0.143 HD
ENDBRANCH   3  16
BRANCH   4  19
ATOM     19  N   UNL     1      -3.458  -4.976  -0.423  0.00  0.00    -0.298 N 
ATOM     20  H   UNL     1      -4.323  -4.541  -0.378  0.00  0.00    +0.154 HD
BRANCH  19  21
ATOM     21  C   UNL     1      -3.377  -6.374  -0.428  0.00  0.00    +0.036 A 
ATOM     22  C   UNL     1      -4.375  -7.125  -1.036  0.00  0.00    +0.027 A 
ATOM     23  C   UNL     1      -4.296  -8.504  -1.039  0.00  0.00    +0.051 A 
ATOM     24  C   UNL     1      -3.222  -9.143  -0.438  0.00  0.00    +0.162 A 
ATOM     25  C   UNL     1      -2.221  -8.394   0.169  0.00  0.00    +0.164 A 
ATOM     26  C   UNL     1      -2.297  -7.009   0.169  0.00  0.00    +0.072 A 
ATOM     27  O   UNL     1      -1.155  -9.002   0.757  0.00  0.00    -0.485 OA
ATOM     28  C   UNL     1      -1.295 -10.395   1.060  0.00  0.00    +0.270 C 
ATOM     29  C   UNL     1      -1.892 -11.096  -0.168  0.00  0.00    +0.270 C 
ATOM     30  O   UNL     1      -3.165 -10.504  -0.447  0.00  0.00    -0.485 OA
ENDBRANCH  19  21
ENDBRANCH   4  19
TORSDOF 4
