REMARK  Name = ZINC52011326
REMARK  4 active torsions:
REMARK  status: ('A' for Active; 'I' for Inactive)
REMARK    1  A    between atoms: C_4  and  O_17
REMARK    2  A    between atoms: C_6  and  N_9
REMARK    3  A    between atoms: N_12  and  C_13
REMARK    4  A    between atoms: C_13  and  C_14
REMARK                            x       y       z     vdW  Elec       q    Type
REMARK                         _______ _______ _______ _____ _____    ______ ____
ROOT
ATOM      1  N   UNL     1       0.010  -0.012  -2.444  0.00  0.00    -0.294 N 
ATOM      2  C   UNL     1      -1.042  -0.701  -2.929  0.00  0.00    +0.300 C 
ATOM      3  O   UNL     1      -1.404  -1.724  -2.381  0.00  0.00    -0.253 OA
ATOM      4  N   UNL     1      -1.694  -0.254  -4.021  0.00  0.00    -0.289 N 
ATOM      5  H   UNL     1       0.298   0.805  -2.880  0.00  0.00    +0.151 HD
ATOM      6  H   UNL     1      -1.406   0.563  -4.457  0.00  0.00    +0.151 HD
ENDROOT
BRANCH   1  11
ATOM      7  C   UNL     1      -0.019   1.526   0.010  0.00  0.00    +0.002 C 
ATOM      8  C   UNL     1       1.417   2.055  -0.000  0.00  0.00    +0.003 C 
ATOM      9  C   UNL     1       2.133   1.562  -1.259  0.00  0.00    +0.033 C 
ATOM     10  C   UNL     1       2.154   0.032  -1.268  0.00  0.00    +0.135 C 
ATOM     11  C   UNL     1       0.718  -0.497  -1.257  0.00  0.00    +0.103 C 
ATOM     12  C   UNL     1       0.002  -0.004   0.002  0.00  0.00    +0.025 C 
BRANCH  10  13
ATOM     13  O   UNL     1       2.822  -0.429  -2.443  0.00  0.00    -0.390 OA
ATOM     14  H   UNL     1       3.739  -0.131  -2.517  0.00  0.00    +0.210 HD
ENDBRANCH  10  13
ENDBRANCH   1  11
BRANCH   4  15
ATOM     15  C   UNL     1      -2.838  -1.003  -4.548  0.00  0.00    +0.231 C 
BRANCH  15  16
ATOM     16  C   UNL     1      -3.383  -0.297  -5.763  0.00  0.00    +0.373 C 
ATOM     17  O   UNL     1      -2.865   0.736  -6.152  0.00  0.00    -0.245 OA
ATOM     18  O   UNL     1      -4.343  -0.758  -6.356  0.00  0.00    -0.245 OA
ENDBRANCH  15  16
ENDBRANCH   4  15
TORSDOF 4
