REMARK  Name = ZINC05276275
REMARK  7 active torsions:
REMARK  status: ('A' for Active; 'I' for Inactive)
REMARK    1  A    between atoms: C_1  and  C_2
REMARK    2  A    between atoms: C_4  and  O_23
REMARK    3  A    between atoms: C_6  and  O_22
REMARK    4  A    between atoms: C_8  and  O_21
REMARK    5  A    between atoms: C_10  and  N_13
REMARK    6  A    between atoms: N_13  and  C_14
REMARK    7  A    between atoms: C_17  and  O_20
REMARK                            x       y       z     vdW  Elec       q    Type
REMARK                         _______ _______ _______ _____ _____    ______ ____
ROOT
ATOM      1  C   UNL     1      -1.559   5.066   0.227  0.00  0.00    +0.041 C 
ATOM      2  C   UNL     1      -1.527   3.539   0.132  0.00  0.00    +0.149 C 
ATOM      3  C   UNL     1      -0.840   3.123  -1.171  0.00  0.00    +0.174 C 
ATOM      4  C   UNL     1      -0.756   1.595  -1.231  0.00  0.00    +0.178 C 
ATOM      5  C   UNL     1      -0.013   1.086   0.008  0.00  0.00    +0.192 C 
ATOM      6  C   UNL     1      -0.732   1.581   1.266  0.00  0.00    +0.235 C 
ATOM      7  O   UNL     1      -0.801   3.008   1.243  0.00  0.00    -0.351 OA
ENDROOT
BRANCH   6   8
ATOM      8  N   UNL     1      -2.087   1.027   1.303  0.00  0.00    -0.317 N 
ATOM      9  H   UNL     1      -2.582   0.897   0.479  0.00  0.00    +0.149 HD
BRANCH   8  10
ATOM     10  C   UNL     1      -2.669   0.684   2.529  0.00  0.00    +0.029 A 
ATOM     11  C   UNL     1      -1.960   0.863   3.709  0.00  0.00    +0.026 A 
ATOM     12  C   UNL     1      -2.538   0.531   4.919  0.00  0.00    +0.047 A 
ATOM     13  C   UNL     1      -3.821   0.006   4.954  0.00  0.00    +0.117 A 
ATOM     14  C   UNL     1      -4.528  -0.180   3.775  0.00  0.00    +0.047 A 
ATOM     15  C   UNL     1      -3.954   0.158   2.565  0.00  0.00    +0.026 A 
BRANCH  13  16
ATOM     16  O   UNL     1      -4.386  -0.327   6.145  0.00  0.00    -0.507 OA
ATOM     17  H   UNL     1      -4.218  -1.239   6.419  0.00  0.00    +0.292 HD
ENDBRANCH  13  16
ENDBRANCH   8  10
ENDBRANCH   6   8
BRANCH   5  18
ATOM     18  O   UNL     1       1.327   1.582  -0.002  0.00  0.00    -0.385 OA
ATOM     19  H   UNL     1       1.857   1.300   0.756  0.00  0.00    +0.210 HD
ENDBRANCH   5  18
BRANCH   4  20
ATOM     20  O   UNL     1      -0.050   1.199  -2.408  0.00  0.00    -0.386 OA
ATOM     21  H   UNL     1       0.046   0.242  -2.507  0.00  0.00    +0.210 HD
ENDBRANCH   4  20
BRANCH   3  22
ATOM     22  O   UNL     1      -1.595   3.605  -2.284  0.00  0.00    -0.387 OA
ATOM     23  H   UNL     1      -1.690   4.567  -2.307  0.00  0.00    +0.210 HD
ENDBRANCH   3  22
TORSDOF 6
