REMARK  Name = ZINC54554305
REMARK  4 active torsions:
REMARK  status: ('A' for Active; 'I' for Inactive)
REMARK    1  A    between atoms: C_3  and  S_11
REMARK    2  A    between atoms: C_6  and  C_7
REMARK    3  A    between atoms: S_11  and  C_12
REMARK    4  A    between atoms: C_18  and  N_20
REMARK                            x       y       z     vdW  Elec       q    Type
REMARK                         _______ _______ _______ _____ _____    ______ ____
ROOT
ATOM      1  S   UNL     1       3.893   2.326  -0.023  0.00  0.00    -0.049 S 
ENDROOT
BRANCH   1   2
ATOM      2  C   UNL     1       3.382   4.007  -0.159  0.00  0.00    +0.176 A 
ATOM      3  N   UNL     1       4.323   4.981  -0.303  0.00  0.00    -0.302 N 
ATOM      4  H   UNL     1       5.263   4.745  -0.331  0.00  0.00    +0.171 HD
ATOM      5  C   UNL     1       3.950   6.273  -0.409  0.00  0.00    +0.254 A 
ATOM      6  O   UNL     1       4.787   7.152  -0.539  0.00  0.00    -0.268 OA
ATOM      7  C   UNL     1       2.588   6.588  -0.367  0.00  0.00    +0.113 A 
ATOM      8  C   UNL     1       1.669   5.559  -0.219  0.00  0.00    +0.124 A 
ATOM      9  N   UNL     1       2.098   4.295  -0.124  0.00  0.00    -0.208 NA
BRANCH   8  10
ATOM     10  N   UNL     1       0.318   5.838  -0.174  0.00  0.00    -0.343 N 
ATOM     11  H   UNL     1       0.009   6.754  -0.247  0.00  0.00    +0.144 HD
ATOM     12  H   UNL     1      -0.323   5.117  -0.070  0.00  0.00    +0.144 HD
ENDBRANCH   8  10
ENDBRANCH   1   2
BRANCH   1  15
ATOM     13  C   UNL     1       0.633   0.022  -0.490  0.00  0.00    +0.016 A 
ATOM     14  C   UNL     1       1.801   0.708  -0.729  0.00  0.00    +0.019 A 
ATOM     15  C   UNL     1       2.396   1.449   0.288  0.00  0.00    +0.051 A 
ATOM     16  C   UNL     1       1.811   1.499   1.553  0.00  0.00    +0.138 A 
ATOM     17  C   UNL     1       0.642   0.814   1.799  0.00  0.00    +0.054 A 
ATOM     18  C   UNL     1       0.042   0.069   0.777  0.00  0.00    +0.066 A 
ATOM     19  F   UNL     1       2.392   2.219   2.538  0.00  0.00    -0.204 F 
BRANCH  18  20
ATOM     20  C   UNL     1      -1.208  -0.665   1.035  0.00  0.00    +0.387 C 
ATOM     21  O   UNL     1      -1.731  -1.316   0.141  0.00  0.00    -0.241 OA
ATOM     22  O   UNL     1      -1.724  -0.623   2.144  0.00  0.00    -0.241 OA
ENDBRANCH  18  20
ENDBRANCH   1  15
TORSDOF 4
