REMARK  Name = ZINC18038764
REMARK  10 active torsions:
REMARK  status: ('A' for Active; 'I' for Inactive)
REMARK    1  A    between atoms: C_1  and  C_2
REMARK    2  A    between atoms: N_10  and  N_14
REMARK    3  A    between atoms: C_15  and  C_17
REMARK    4  A    between atoms: C_17  and  C_18
REMARK    5  A    between atoms: C_18  and  C_19
REMARK    6  A    between atoms: C_23  and  S_29
REMARK    7  A    between atoms: N_27  and  C_28
REMARK    8  A    between atoms: S_29  and  N_32
REMARK    9  A    between atoms: N_32  and  C_33
REMARK   10  A    between atoms: N_32  and  C_34
REMARK                            x       y       z     vdW  Elec       q    Type
REMARK                         _______ _______ _______ _____ _____    ______ ____
ROOT
ATOM      1  N   UNL     1      -3.430  -2.442  -2.588  0.00  0.00    -0.224 N 
ATOM      2  C   UNL     1      -2.872  -2.055  -1.424  0.00  0.00    +0.230 C 
ATOM      3  O   UNL     1      -3.354  -2.414  -0.371  0.00  0.00    -0.274 OA
ATOM      4  H   UNL     1      -3.044  -2.155  -3.430  0.00  0.00    +0.174 HD
ENDROOT
BRANCH   1  14
ATOM      5  C   UNL     1     -10.183  -6.610  -2.698  0.00  0.00    +0.007 C 
ATOM      6  C   UNL     1      -9.304  -5.365  -2.833  0.00  0.00    -0.014 C 
ATOM      7  C   UNL     1      -8.608  -5.086  -1.499  0.00  0.00    +0.006 C 
ATOM      8  C   UNL     1      -7.738  -3.833  -1.631  0.00  0.00    +0.035 C 
ATOM      9  C   UNL     1      -6.702  -4.044  -2.730  0.00  0.00    +0.114 C 
ATOM     10  C   UNL     1      -7.381  -4.348  -4.061  0.00  0.00    +0.035 C 
ATOM     11  C   UNL     1      -8.252  -5.598  -3.919  0.00  0.00    +0.006 C 
ATOM     12  C   UNL     1      -5.815  -2.827  -2.857  0.00  0.00    +0.263 C 
ATOM     13  O   UNL     1      -6.153  -1.699  -3.146  0.00  0.00    -0.271 OA
ATOM     14  N   UNL     1      -4.567  -3.260  -2.582  0.00  0.00    -0.137 N 
ATOM     15  C   UNL     1      -4.550  -4.571  -2.307  0.00  0.00    +0.326 C 
ATOM     16  O   UNL     1      -3.541  -5.191  -2.034  0.00  0.00    -0.251 OA
ATOM     17  N   UNL     1      -5.777  -5.124  -2.365  0.00  0.00    -0.284 N 
ATOM     18  H   UNL     1      -6.003  -6.053  -2.202  0.00  0.00    +0.151 HD
ENDBRANCH   1  14
BRANCH   2  19
ATOM     19  C   UNL     1      -1.649  -1.175  -1.431  0.00  0.00    +0.105 C 
BRANCH  19  20
ATOM     20  C   UNL     1      -1.221  -0.884   0.009  0.00  0.00    +0.083 C 
BRANCH  20  21
ATOM     21  C   UNL     1       0.002  -0.004   0.002  0.00  0.00    +0.111 A 
ATOM     22  N   UNL     1      -0.016   1.297   0.009  0.00  0.00    -0.232 NA
ATOM     23  C   UNL     1       1.257   1.771  -0.000  0.00  0.00    +0.091 A 
ATOM     24  C   UNL     1       1.807   3.055   0.001  0.00  0.00    +0.058 A 
ATOM     25  C   UNL     1       3.163   3.215  -0.012  0.00  0.00    +0.108 A 
ATOM     26  C   UNL     1       4.006   2.112  -0.026  0.00  0.00    +0.030 A 
ATOM     27  C   UNL     1       3.486   0.836  -0.027  0.00  0.00    +0.030 A 
ATOM     28  C   UNL     1       2.109   0.654  -0.015  0.00  0.00    +0.069 A 
ATOM     29  N   UNL     1       1.286  -0.454  -0.013  0.00  0.00    -0.331 N 
ATOM     30  C   UNL     1       1.715  -1.855  -0.024  0.00  0.00    +0.150 C 
BRANCH  25  31
ATOM     31  S   UNL     1       3.851   4.837  -0.011  0.00  0.00    +0.060 S 
ATOM     32  O   UNL     1       2.868   5.694   0.554  0.00  0.00    -0.153 OA
ATOM     33  O   UNL     1       5.161   4.723   0.526  0.00  0.00    -0.153 OA
BRANCH  31  34
ATOM     34  N   UNL     1       4.026   5.296  -1.592  0.00  0.00    -0.183 NA
ATOM     35  C   UNL     1       2.935   5.994  -2.277  0.00  0.00    +0.131 C 
ATOM     36  C   UNL     1       5.271   5.004  -2.306  0.00  0.00    +0.131 C 
ENDBRANCH  31  34
ENDBRANCH  25  31
ENDBRANCH  20  21
ENDBRANCH  19  20
ENDBRANCH   2  19
TORSDOF 6
