REMARK  Name = ZINC07585382
REMARK  7 active torsions:
REMARK  status: ('A' for Active; 'I' for Inactive)
REMARK    1  A    between atoms: C_1  and  C_2
REMARK    2  A    between atoms: C_5  and  N_9
REMARK    3  A    between atoms: C_7  and  C_8
REMARK    4  A    between atoms: N_9  and  C_10
REMARK    5  A    between atoms: C_10  and  N_12
REMARK    6  A    between atoms: N_12  and  N_13
REMARK    7  A    between atoms: C_19  and  C_22
REMARK                            x       y       z     vdW  Elec       q    Type
REMARK                         _______ _______ _______ _____ _____    ______ ____
ROOT
ATOM      1  N   UNL     1      -4.783   3.805  -0.136  0.00  0.00    -0.235 N 
ATOM      2  H   UNL     1      -5.616   3.313  -0.203  0.00  0.00    +0.173 HD
ENDROOT
BRANCH   1   3
ATOM      3  N   UNL     1      -4.795   5.206  -0.128  0.00  0.00    -0.138 N 
ATOM      4  C   UNL     1      -5.005   5.968  -1.220  0.00  0.00    +0.263 C 
ATOM      5  O   UNL     1      -5.213   5.587  -2.353  0.00  0.00    -0.271 OA
ATOM      6  C   UNL     1      -4.929   7.398  -0.736  0.00  0.00    +0.114 C 
ATOM      7  C   UNL     1      -6.256   8.110  -0.972  0.00  0.00    +0.035 C 
ATOM      8  C   UNL     1      -6.168   9.546  -0.450  0.00  0.00    +0.006 C 
ATOM      9  C   UNL     1      -5.039  10.283  -1.173  0.00  0.00    -0.014 C 
ATOM     10  C   UNL     1      -3.711   9.571  -0.907  0.00  0.00    +0.006 C 
ATOM     11  C   UNL     1      -3.789   8.134  -1.431  0.00  0.00    +0.035 C 
ATOM     12  C   UNL     1      -4.957  11.722  -0.661  0.00  0.00    +0.007 C 
ATOM     13  N   UNL     1      -4.660   7.273   0.702  0.00  0.00    -0.284 N 
ATOM     14  C   UNL     1      -4.604   5.954   0.966  0.00  0.00    +0.326 C 
ATOM     15  O   UNL     1      -4.399   5.494   2.072  0.00  0.00    -0.251 OA
ATOM     16  H   UNL     1      -4.550   7.998   1.338  0.00  0.00    +0.151 HD
ENDBRANCH   1   3
BRANCH   1  17
ATOM     17  C   UNL     1      -3.614   3.140  -0.049  0.00  0.00    +0.152 C 
ATOM     18  S   UNL     1      -3.599   1.428  -0.058  0.00  0.00    -0.017 S 
BRANCH  17  19
ATOM     19  N   UNL     1      -2.456   3.823   0.046  0.00  0.00    -0.296 N 
ATOM     20  H   UNL     1      -2.467   4.791   0.112  0.00  0.00    +0.154 HD
BRANCH  19  25
ATOM     21  C   UNL     1       2.487   1.039   0.052  0.00  0.00    +0.044 C 
ATOM     22  C   UNL     1       1.174   1.779   0.050  0.00  0.00    -0.047 A 
ATOM     23  C   UNL     1       1.019   2.908  -0.733  0.00  0.00    +0.005 A 
ATOM     24  C   UNL     1      -0.181   3.591  -0.733  0.00  0.00    +0.023 A 
ATOM     25  C   UNL     1      -1.237   3.137   0.047  0.00  0.00    +0.033 A 
ATOM     26  C   UNL     1      -1.078   2.003   0.833  0.00  0.00    +0.027 A 
ATOM     27  C   UNL     1       0.127   1.327   0.832  0.00  0.00    -0.046 A 
ATOM     28  C   UNL     1       0.300   0.097   1.684  0.00  0.00    +0.044 C 
ENDBRANCH  19  25
ENDBRANCH  17  19
ENDBRANCH   1  17
TORSDOF 4
