REMARK  Name = ZINC36581627
REMARK  14 active torsions:
REMARK  status: ('A' for Active; 'I' for Inactive)
REMARK    1  A    between atoms: C_1  and  C_2
REMARK    2  A    between atoms: C_2  and  C_3
REMARK    3  A    between atoms: C_2  and  C_4
REMARK    4  A    between atoms: C_2  and  N_5
REMARK    5  A    between atoms: N_5  and  C_6
REMARK    6  A    between atoms: C_6  and  C_8
REMARK    7  A    between atoms: C_6  and  C_17
REMARK    8  A    between atoms: C_9  and  O_16
REMARK    9  A    between atoms: C_11  and  O_15
REMARK   10  A    between atoms: C_13  and  O_14
REMARK   11  A    between atoms: N_19  and  C_20
REMARK   12  A    between atoms: C_26  and  C_28
REMARK   13  A    between atoms: C_28  and  C_29
REMARK   14  A    between atoms: C_29  and  C_30
REMARK                            x       y       z     vdW  Elec       q    Type
REMARK                         _______ _______ _______ _____ _____    ______ ____
ROOT
ATOM      1  C   UNL     1       2.324  -0.143  -1.790  0.00  0.00    +0.200 C 
ENDROOT
BRANCH   1   2
ATOM      2  C   UNL     1       1.937  -0.521  -3.197  0.00  0.00    +0.065 A 
ATOM      3  C   UNL     1       0.831   0.065  -3.793  0.00  0.00    +0.129 A 
ATOM      4  C   UNL     1       0.476  -0.282  -5.088  0.00  0.00    +0.091 A 
ATOM      5  C   UNL     1       1.227  -1.216  -5.786  0.00  0.00    +0.124 A 
ATOM      6  C   UNL     1       2.333  -1.801  -5.190  0.00  0.00    +0.091 A 
ATOM      7  C   UNL     1       2.692  -1.450  -3.897  0.00  0.00    +0.129 A 
BRANCH   7   8
ATOM      8  O   UNL     1       3.779  -2.021  -3.314  0.00  0.00    -0.506 OA
ATOM      9  H   UNL     1       3.584  -2.836  -2.832  0.00  0.00    +0.292 HD
ENDBRANCH   7   8
BRANCH   5  10
ATOM     10  O   UNL     1       0.878  -1.557  -7.054  0.00  0.00    -0.507 OA
ATOM     11  H   UNL     1       1.289  -1.008  -7.736  0.00  0.00    +0.292 HD
ENDBRANCH   5  10
BRANCH   3  12
ATOM     12  O   UNL     1       0.095   0.980  -3.109  0.00  0.00    -0.506 OA
ATOM     13  H   UNL     1       0.342   1.897  -3.288  0.00  0.00    +0.292 HD
ENDBRANCH   3  12
ENDBRANCH   1   2
BRANCH   1  14
ATOM     14  C   UNL     1       2.394   1.358  -1.674  0.00  0.00    +0.239 C 
ATOM     15  O   UNL     1       1.493   1.968  -1.138  0.00  0.00    -0.273 OA
ATOM     16  N   UNL     1       3.458   2.022  -2.166  0.00  0.00    -0.311 N 
ATOM     17  H   UNL     1       4.179   1.535  -2.595  0.00  0.00    +0.149 HD
BRANCH  16  18
ATOM     18  C   UNL     1       3.527   3.481  -2.054  0.00  0.00    +0.073 C 
ATOM     19  C   UNL     1       2.773   4.119  -3.223  0.00  0.00    +0.022 C 
ATOM     20  C   UNL     1       2.845   5.643  -3.105  0.00  0.00    +0.002 C 
ATOM     21  C   UNL     1       4.308   6.089  -3.138  0.00  0.00    +0.000 C 
ATOM     22  C   UNL     1       5.062   5.451  -1.969  0.00  0.00    +0.002 C 
ATOM     23  C   UNL     1       4.990   3.927  -2.086  0.00  0.00    +0.022 C 
ENDBRANCH  16  18
ENDBRANCH   1  14
BRANCH   1  24
ATOM     24  N   UNL     1       1.322  -0.658  -0.853  0.00  0.00    -0.281 N 
ATOM     25  C   UNL     1       0.261  -1.349  -1.315  0.00  0.00    +0.217 C 
ATOM     26  O   UNL     1       0.207  -1.669  -2.483  0.00  0.00    -0.276 OA
BRANCH  24  28
ATOM     27  C   UNL     1       2.694   0.467   0.830  0.00  0.00    +0.031 C 
ATOM     28  C   UNL     1       1.474  -0.423   0.585  0.00  0.00    +0.030 C 
ATOM     29  C   UNL     1       1.667  -1.761   1.303  0.00  0.00    +0.031 C 
ATOM     30  C   UNL     1       0.221   0.269   1.124  0.00  0.00    +0.031 C 
ENDBRANCH  24  28
BRANCH  25  31
ATOM     31  C   UNL     1      -0.860  -1.723  -0.378  0.00  0.00    +0.096 C 
BRANCH  31  32
ATOM     32  C   UNL     1      -1.685  -2.853  -0.997  0.00  0.00    +0.013 C 
BRANCH  32  33
ATOM     33  C   UNL     1      -2.822  -3.233  -0.046  0.00  0.00    -0.011 C 
ATOM     34  C   UNL     1      -3.788  -2.054   0.090  0.00  0.00    +0.003 C 
ATOM     35  C   UNL     1      -4.925  -2.434   1.041  0.00  0.00    +0.000 C 
ATOM     36  C   UNL     1      -5.675  -3.645   0.481  0.00  0.00    +0.000 C 
ATOM     37  C   UNL     1      -4.709  -4.824   0.345  0.00  0.00    +0.000 C 
ATOM     38  C   UNL     1      -3.572  -4.444  -0.606  0.00  0.00    +0.003 C 
ENDBRANCH  32  33
ENDBRANCH  31  32
ENDBRANCH  25  31
ENDBRANCH   1  24
TORSDOF 11
