REMARK  Name = ZINC40662380
REMARK  5 active torsions:
REMARK  status: ('A' for Active; 'I' for Inactive)
REMARK    1  A    between atoms: C_1  and  N_2
REMARK    2  A    between atoms: N_2  and  C_3
REMARK    3  A    between atoms: C_3  and  C_4
REMARK    4  A    between atoms: C_11  and  N_24
REMARK    5  A    between atoms: C_12  and  N_16
REMARK                            x       y       z     vdW  Elec       q    Type
REMARK                         _______ _______ _______ _____ _____    ______ ____
ROOT
ATOM      1  C   UNL     1      -1.248   0.346   0.674  0.00  0.00    +0.131 C 
ATOM      2  N   UNL     1       0.018  -0.007   0.026  0.00  0.00    -0.312 N 
ATOM      3  C   UNL     1       0.015  -0.782  -1.128  0.00  0.00    +0.147 A 
ATOM      4  C   UNL     1       0.052  -0.179  -2.387  0.00  0.00    +0.106 A 
ATOM      5  C   UNL     1       0.047  -1.004  -3.513  0.00  0.00    +0.150 A 
ATOM      6  N   UNL     1       0.009  -2.323  -3.345  0.00  0.00    -0.219 NA
ATOM      7  C   UNL     1      -0.025  -2.852  -2.139  0.00  0.00    +0.225 A 
ATOM      8  N   UNL     1      -0.018  -2.110  -1.050  0.00  0.00    -0.219 NA
ENDROOT
BRANCH   5   9
ATOM      9  N   UNL     1       0.083  -0.455  -4.791  0.00  0.00    -0.283 N 
ATOM     10  C   UNL     1       0.188  -1.285  -5.902  0.00  0.00    +0.124 A 
ATOM     11  C   UNL     1       0.332  -0.727  -7.168  0.00  0.00    +0.045 A 
ATOM     12  C   UNL     1       0.436  -1.564  -8.265  0.00  0.00    +0.020 A 
ATOM     13  C   UNL     1       0.393  -2.938  -8.057  0.00  0.00    +0.036 A 
ATOM     14  C   UNL     1       0.249  -3.422  -6.772  0.00  0.00    +0.128 A 
ATOM     15  N   UNL     1       0.156  -2.599  -5.744  0.00  0.00    -0.239 NA
ATOM     16 BR   UNL     1       0.531  -4.130  -9.518  0.00  0.00    -0.049 Br
ATOM     17  H   UNL     1       0.034   0.507  -4.907  0.00  0.00    +0.155 HD
ENDBRANCH   5   9
BRANCH   4  18
ATOM     18  N   UNL     1       0.091   1.219  -2.517  0.00  0.00    -0.353 N 
ATOM     19  H   UNL     1       0.168   1.777  -1.727  0.00  0.00    +0.143 HD
ATOM     20  H   UNL     1       0.043   1.626  -3.396  0.00  0.00    +0.143 HD
ENDBRANCH   4  18
BRANCH   2  21
ATOM     21  C   UNL     1       1.286   0.457   0.593  0.00  0.00    +0.141 C 
BRANCH  21  22
ATOM     22  C   UNL     1       1.798  -0.562   1.579  0.00  0.00    -0.030 A 
ATOM     23  C   UNL     1       1.432  -0.481   2.910  0.00  0.00    +0.005 A 
ATOM     24  C   UNL     1       1.902  -1.416   3.813  0.00  0.00    +0.000 A 
ATOM     25  C   UNL     1       2.736  -2.432   3.387  0.00  0.00    +0.000 A 
ATOM     26  C   UNL     1       3.100  -2.514   2.056  0.00  0.00    +0.000 A 
ATOM     27  C   UNL     1       2.628  -1.582   1.151  0.00  0.00    +0.005 A 
ENDBRANCH  21  22
ENDBRANCH   2  21
TORSDOF 4
