REMARK  Name = ZINC65198377
REMARK  8 active torsions:
REMARK  status: ('A' for Active; 'I' for Inactive)
REMARK    1  A    between atoms: C_4  and  C_7
REMARK    2  A    between atoms: C_10  and  C_13
REMARK    3  A    between atoms: C_13  and  C_14
REMARK    4  A    between atoms: C_14  and  C_15
REMARK    5  A    between atoms: N_17  and  N_18
REMARK    6  A    between atoms: N_21  and  C_22
REMARK    7  A    between atoms: C_22  and  C_23
REMARK    8  A    between atoms: C_23  and  C_24
REMARK                            x       y       z     vdW  Elec       q    Type
REMARK                         _______ _______ _______ _____ _____    ______ ____
ROOT
ATOM      1  C   UNL     1       6.762  -5.499   1.332  0.00  0.00    +0.229 C 
ATOM      2  O   UNL     1       6.919  -6.080   0.279  0.00  0.00    -0.274 OA
ATOM      3  N   UNL     1       7.138  -6.084   2.487  0.00  0.00    -0.233 N 
ATOM      4  H   UNL     1       7.012  -5.619   3.329  0.00  0.00    +0.173 HD
ENDROOT
BRANCH   3   5
ATOM      5  N   UNL     1       7.711  -7.362   2.470  0.00  0.00    -0.218 N 
ATOM      6  C   UNL     1       8.087  -7.947   3.625  0.00  0.00    +0.316 C 
ATOM      7  O   UNL     1       8.584  -9.056   3.611  0.00  0.00    -0.251 OA
ATOM      8  N   UNL     1       7.912  -7.302   4.795  0.00  0.00    -0.298 N 
ATOM      9  H   UNL     1       7.837  -7.827   1.628  0.00  0.00    +0.174 HD
ATOM     10  H   UNL     1       7.516  -6.417   4.807  0.00  0.00    +0.150 HD
BRANCH   8  11
ATOM     11  C   UNL     1       8.321  -7.937   6.051  0.00  0.00    +0.111 C 
BRANCH  11  12
ATOM     12  C   UNL     1       8.015  -7.000   7.220  0.00  0.00    +0.061 C 
BRANCH  12  13
ATOM     13  C   UNL     1       8.435  -7.654   8.511  0.00  0.00    -0.009 A 
ATOM     14  C   UNL     1       9.628  -7.590   9.151  0.00  0.00    +0.011 A 
ATOM     15  C   UNL     1       9.790  -8.279  10.339  0.00  0.00    +0.008 A 
ATOM     16  C   UNL     1       8.750  -8.998  10.828  0.00  0.00    +0.045 A 
ATOM     17  S   UNL     1       7.489  -8.707   9.598  0.00  0.00    -0.102 S 
ENDBRANCH  12  13
ENDBRANCH  11  12
ENDBRANCH   8  11
ENDBRANCH   3   5
BRANCH   1  18
ATOM     18  C   UNL     1       6.146  -4.124   1.350  0.00  0.00    +0.103 C 
BRANCH  18  19
ATOM     19  C   UNL     1       5.813  -3.696  -0.081  0.00  0.00    +0.062 C 
BRANCH  19  23
ATOM     20  C   UNL     1       3.696  -0.685  -0.037  0.00  0.00    +0.047 A 
ATOM     21  C   UNL     1       4.932  -0.112  -0.041  0.00  0.00    +0.028 A 
ATOM     22  C   UNL     1       5.875  -1.152  -0.057  0.00  0.00    +0.023 A 
ATOM     23  C   UNL     1       5.197  -2.321  -0.064  0.00  0.00    +0.017 A 
ATOM     24  N   UNL     1       3.862  -2.046  -0.046  0.00  0.00    -0.358 N 
ATOM     25  H   UNL     1       3.149  -2.704  -0.043  0.00  0.00    +0.166 HD
BRANCH  20  29
ATOM     26  C   UNL     1      -0.017   1.379   0.010  0.00  0.00    +0.000 A 
ATOM     27  C   UNL     1       1.168   2.093   0.002  0.00  0.00    +0.001 A 
ATOM     28  C   UNL     1       2.377   1.429  -0.013  0.00  0.00    +0.010 A 
ATOM     29  C   UNL     1       2.403   0.034  -0.021  0.00  0.00    -0.002 A 
ATOM     30  C   UNL     1       1.204  -0.681  -0.013  0.00  0.00    +0.010 A 
ATOM     31  C   UNL     1       0.002  -0.004   0.002  0.00  0.00    +0.001 A 
ENDBRANCH  20  29
ENDBRANCH  19  23
ENDBRANCH  18  19
ENDBRANCH   1  18
TORSDOF 8
