REMARK  Name = ZINC13638083
REMARK  6 active torsions:
REMARK  status: ('A' for Active; 'I' for Inactive)
REMARK    1  A    between atoms: C_1  and  C_2
REMARK    2  A    between atoms: C_2  and  C_3
REMARK    3  A    between atoms: C_2  and  C_4
REMARK    4  A    between atoms: N_6  and  C_7
REMARK    5  A    between atoms: C_20  and  C_23
REMARK    6  A    between atoms: C_26  and  O_29
REMARK                            x       y       z     vdW  Elec       q    Type
REMARK                         _______ _______ _______ _____ _____    ______ ____
ROOT
ATOM      1  C   UNL     1       3.574   1.720   0.898  0.00  0.00    +0.034 A 
ATOM      2  C   UNL     1       3.961   2.529  -0.163  0.00  0.00    +0.025 A 
ATOM      3  C   UNL     1       5.270   2.957  -0.253  0.00  0.00    +0.025 A 
ATOM      4  C   UNL     1       6.197   2.571   0.709  0.00  0.00    +0.031 A 
ATOM      5  C   UNL     1       5.820   1.759   1.763  0.00  0.00    -0.018 A 
ATOM      6  C   UNL     1       4.501   1.336   1.854  0.00  0.00    +0.029 A 
ATOM      7  C   UNL     1       6.782   1.301   2.827  0.00  0.00    +0.049 C 
ATOM      8  C   UNL     1       6.805  -0.221   2.797  0.00  0.00    -0.023 C 
ATOM      9  C   UNL     1       7.815  -0.648   2.081  0.00  0.00    -0.030 C 
ATOM     10  C   UNL     1       8.612   0.523   1.535  0.00  0.00    +0.033 C 
ATOM     11  C   UNL     1       8.239   1.674   2.500  0.00  0.00    +0.029 C 
ATOM     12  C   UNL     1       8.345   3.021   1.810  0.00  0.00    +0.105 C 
ATOM     13  N   UNL     1       7.521   3.017   0.596  0.00  0.00    -0.336 N 
ATOM     14  H   UNL     1       7.880   3.312  -0.255  0.00  0.00    +0.147 HD
ENDROOT
BRANCH  12  15
ATOM     15  C   UNL     1       7.862   4.101   2.742  0.00  0.00    -0.027 A 
ATOM     16  C   UNL     1       6.506   4.330   2.890  0.00  0.00    +0.009 A 
ATOM     17  C   UNL     1       6.060   5.316   3.748  0.00  0.00    +0.046 A 
ATOM     18  C   UNL     1       6.974   6.086   4.453  0.00  0.00    +0.117 A 
ATOM     19  C   UNL     1       8.334   5.859   4.298  0.00  0.00    +0.046 A 
ATOM     20  C   UNL     1       8.775   4.867   3.444  0.00  0.00    +0.009 A 
BRANCH  18  21
ATOM     21  O   UNL     1       6.538   7.061   5.294  0.00  0.00    -0.507 OA
ATOM     22  H   UNL     1       6.434   7.925   4.873  0.00  0.00    +0.292 HD
ENDBRANCH  18  21
ENDBRANCH  12  15
BRANCH   1  25
ATOM     23  C   UNL     1       1.243   2.084   0.575  0.00  0.00    +0.220 C 
ATOM     24  O   UNL     1       1.483   3.211   0.195  0.00  0.00    -0.275 OA
ATOM     25  N   UNL     1       2.245   1.288   0.998  0.00  0.00    -0.285 N 
ATOM     26  H   UNL     1       2.046   0.415   1.373  0.00  0.00    +0.155 HD
BRANCH  23  28
ATOM     27  C   UNL     1      -1.109   2.667   0.050  0.00  0.00    +0.017 C 
ATOM     28  C   UNL     1      -0.175   1.574   0.573  0.00  0.00    +0.069 C 
ATOM     29  C   UNL     1      -0.582   1.193   1.997  0.00  0.00    +0.017 C 
ENDBRANCH  23  28
ENDBRANCH   1  25
TORSDOF 4
