REMARK  Name = ZINC21966197
REMARK  7 active torsions:
REMARK  status: ('A' for Active; 'I' for Inactive)
REMARK    1  A    between atoms: C_6  and  O_11
REMARK    2  A    between atoms: O_11  and  C_12
REMARK    3  A    between atoms: C_12  and  C_13
REMARK    4  A    between atoms: N_15  and  N_16
REMARK    5  A    between atoms: C_17  and  C_18
REMARK    6  A    between atoms: C_21  and  O_26
REMARK    7  A    between atoms: C_22  and  O_25
REMARK                            x       y       z     vdW  Elec       q    Type
REMARK                         _______ _______ _______ _____ _____    ______ ____
ROOT
ATOM      1  C   UNL     1       6.238  -4.608  -0.082  0.00  0.00    +0.270 C 
ATOM      2  O   UNL     1       7.184  -3.848  -0.087  0.00  0.00    -0.270 OA
ATOM      3  N   UNL     1       6.443  -5.940  -0.090  0.00  0.00    -0.204 N 
ATOM      4  H   UNL     1       5.687  -6.547  -0.086  0.00  0.00    +0.177 HD
ENDROOT
BRANCH   3   5
ATOM      5  N   UNL     1       7.749  -6.447  -0.105  0.00  0.00    -0.188 NA
ATOM      6  C   UNL     1       7.947  -7.730  -0.114  0.00  0.00    +0.139 C 
BRANCH   6   7
ATOM      7  C   UNL     1       9.321  -8.264  -0.130  0.00  0.00    +0.013 A 
ATOM      8  C   UNL     1       9.535  -9.645  -0.145  0.00  0.00    +0.029 A 
ATOM      9  C   UNL     1      10.822 -10.142  -0.160  0.00  0.00    +0.064 A 
ATOM     10  C   UNL     1      11.905  -9.274  -0.161  0.00  0.00    +0.174 A 
ATOM     11  C   UNL     1      11.699  -7.897  -0.146  0.00  0.00    +0.174 A 
ATOM     12  C   UNL     1      10.412  -7.391  -0.136  0.00  0.00    +0.072 A 
ATOM     13 BR   UNL     1      10.130  -5.521  -0.124  0.00  0.00    -0.046 Br
ATOM     14 BR   UNL     1      11.110 -12.011  -0.180  0.00  0.00    -0.046 Br
BRANCH  11  15
ATOM     15  O   UNL     1      12.763  -7.050  -0.146  0.00  0.00    -0.503 OA
ATOM     16  H   UNL     1      13.064  -6.796  -1.029  0.00  0.00    +0.292 HD
ENDBRANCH  11  15
BRANCH  10  17
ATOM     17  O   UNL     1      13.171  -9.770  -0.176  0.00  0.00    -0.503 OA
ATOM     18  H   UNL     1      13.530  -9.905  -1.064  0.00  0.00    +0.292 HD
ENDBRANCH  10  17
ENDBRANCH   6   7
ENDBRANCH   3   5
BRANCH   1  19
ATOM     19  C   UNL     1       4.834  -4.062  -0.065  0.00  0.00    +0.326 C 
BRANCH  19  20
ATOM     20  O   UNL     1       4.878  -2.633  -0.059  0.00  0.00    -0.483 OA
BRANCH  20  26
ATOM     21  C   UNL     1      -0.016   1.357   0.009  0.00  0.00    +0.001 A 
ATOM     22  C   UNL     1       1.169   2.091   0.002  0.00  0.00    +0.001 A 
ATOM     23  C   UNL     1       2.378   1.468  -0.013  0.00  0.00    +0.008 A 
ATOM     24  C   UNL     1       2.437   0.063  -0.021  0.00  0.00    -0.014 A 
ATOM     25  C   UNL     1       3.668  -0.614  -0.037  0.00  0.00    +0.054 A 
ATOM     26  C   UNL     1       3.687  -1.980  -0.044  0.00  0.00    +0.122 A 
ATOM     27  C   UNL     1       2.497  -2.714  -0.036  0.00  0.00    +0.046 A 
ATOM     28  C   UNL     1       1.289  -2.088  -0.022  0.00  0.00    +0.012 A 
ATOM     29  C   UNL     1       1.232  -0.683  -0.013  0.00  0.00    -0.018 A 
ATOM     30  C   UNL     1       0.002  -0.004   0.002  0.00  0.00    +0.008 A 
ENDBRANCH  20  26
ENDBRANCH  19  20
ENDBRANCH   1  19
TORSDOF 7
