REMARK  Name = ZINC47396799
REMARK  7 active torsions:
REMARK  status: ('A' for Active; 'I' for Inactive)
REMARK    1  A    between atoms: C_4  and  O_24
REMARK    2  A    between atoms: C_5  and  C_7
REMARK    3  A    between atoms: C_7  and  N_8
REMARK    4  A    between atoms: N_11  and  C_12
REMARK    5  A    between atoms: C_15  and  C_18
REMARK    6  A    between atoms: N_20  and  C_21
REMARK    7  A    between atoms: O_24  and  C_25
REMARK                            x       y       z     vdW  Elec       q    Type
REMARK                         _______ _______ _______ _____ _____    ______ ____
ROOT
ATOM      1  N   UNL     1       1.538  -2.115   1.728  0.00  0.00    -0.295 N 
ATOM      2  C   UNL     1       1.576  -3.281   2.402  0.00  0.00    +0.304 C 
ATOM      3  O   UNL     1       1.422  -4.331   1.809  0.00  0.00    -0.252 OA
ATOM      4  N   UNL     1       1.785  -3.284   3.734  0.00  0.00    -0.269 N 
ATOM      5  H   UNL     1       1.661  -1.277   2.202  0.00  0.00    +0.151 HD
ATOM      6  H   UNL     1       1.821  -2.446   4.221  0.00  0.00    +0.156 HD
ENDROOT
BRANCH   4   7
ATOM      7  C   UNL     1       1.950  -4.492   4.411  0.00  0.00    +0.035 A 
ATOM      8  C   UNL     1       2.577  -5.561   3.780  0.00  0.00    +0.024 A 
ATOM      9  C   UNL     1       2.742  -6.755   4.446  0.00  0.00    +0.015 A 
ATOM     10  C   UNL     1       2.277  -6.891   5.757  0.00  0.00    +0.037 A 
ATOM     11  C   UNL     1       1.648  -5.815   6.388  0.00  0.00    +0.015 A 
ATOM     12  C   UNL     1       1.491  -4.623   5.718  0.00  0.00    +0.024 A 
BRANCH  10  13
ATOM     13  C   UNL     1       2.451  -8.170   6.474  0.00  0.00    +0.244 C 
ATOM     14  O   UNL     1       2.999  -9.106   5.924  0.00  0.00    -0.270 OA
ATOM     15  N   UNL     1       2.003  -8.300   7.738  0.00  0.00    -0.308 N 
ATOM     16  H   UNL     1       1.567  -7.553   8.177  0.00  0.00    +0.149 HD
BRANCH  15  17
ATOM     17  C   UNL     1       2.176  -9.569   8.450  0.00  0.00    +0.073 C 
ATOM     18  C   UNL     1       0.987 -10.093   9.258  0.00  0.00    +0.024 C 
ATOM     19  C   UNL     1       2.211  -9.523   9.979  0.00  0.00    +0.024 C 
ENDBRANCH  15  17
ENDBRANCH  10  13
ENDBRANCH   4   7
BRANCH   1  20
ATOM     20  C   UNL     1       1.310  -2.112   0.281  0.00  0.00    +0.144 C 
BRANCH  20  25
ATOM     21  C   UNL     1       0.120   1.260  -0.933  0.00  0.00    +0.001 A 
ATOM     22  C   UNL     1       1.317   1.915  -1.155  0.00  0.00    +0.004 A 
ATOM     23  C   UNL     1       2.514   1.270  -0.914  0.00  0.00    +0.046 A 
ATOM     24  C   UNL     1       2.515  -0.037  -0.447  0.00  0.00    +0.126 A 
ATOM     25  C   UNL     1       1.313  -0.692  -0.225  0.00  0.00    +0.011 A 
ATOM     26  C   UNL     1       0.118  -0.043  -0.468  0.00  0.00    +0.009 A 
BRANCH  24  27
ATOM     27  O   UNL     1       3.692  -0.674  -0.210  0.00  0.00    -0.488 OA
BRANCH  27  28
ATOM     28  C   UNL     1       4.886   0.099  -0.342  0.00  0.00    +0.173 C 
ATOM     29  C   UNL     1       5.369   0.079  -1.808  0.00  0.00    +0.044 C 
ATOM     30  C   UNL     1       6.913   0.031  -1.698  0.00  0.00    +0.004 C 
ATOM     31  C   UNL     1       7.141  -0.901  -0.483  0.00  0.00    +0.004 C 
ATOM     32  C   UNL     1       6.013  -0.524   0.500  0.00  0.00    +0.044 C 
ENDBRANCH  27  28
ENDBRANCH  24  27
ENDBRANCH  20  25
ENDBRANCH   1  20
TORSDOF 7
