REMARK  Name = ZINC56769388
REMARK  8 active torsions:
REMARK  status: ('A' for Active; 'I' for Inactive)
REMARK    1  A    between atoms: C_1  and  C_2
REMARK    2  A    between atoms: C_2  and  C_4
REMARK    3  A    between atoms: C_2  and  N_12
REMARK    4  A    between atoms: C_4  and  C_5
REMARK    5  A    between atoms: C_8  and  O_11
REMARK    6  A    between atoms: N_15  and  N_16
REMARK    7  A    between atoms: C_17  and  C_19
REMARK    8  A    between atoms: C_19  and  C_20
REMARK                            x       y       z     vdW  Elec       q    Type
REMARK                         _______ _______ _______ _____ _____    ______ ____
ROOT
ATOM      1  N   UNL     1       0.688  -0.476  -1.203  0.00  0.00    -0.295 N 
ATOM      2  C   UNL     1       2.031  -0.587  -1.215  0.00  0.00    +0.316 C 
ATOM      3  O   UNL     1       2.674  -0.294  -0.225  0.00  0.00    -0.251 OA
ATOM      4  N   UNL     1       2.662  -1.022  -2.324  0.00  0.00    -0.218 N 
ATOM      5  H   UNL     1       0.175  -0.710  -1.993  0.00  0.00    +0.151 HD
ATOM      6  H   UNL     1       3.628  -1.101  -2.332  0.00  0.00    +0.174 HD
ENDROOT
BRANCH   4   7
ATOM      7  N   UNL     1       1.921  -1.359  -3.464  0.00  0.00    -0.233 N 
ATOM      8  C   UNL     1       2.552  -1.793  -4.573  0.00  0.00    +0.233 C 
ATOM      9  O   UNL     1       3.761  -1.893  -4.584  0.00  0.00    -0.274 OA
ATOM     10  H   UNL     1       0.955  -1.279  -3.456  0.00  0.00    +0.173 HD
BRANCH   8  11
ATOM     11  C   UNL     1       1.756  -2.156  -5.800  0.00  0.00    +0.133 C 
BRANCH  11  12
ATOM     12  C   UNL     1       2.692  -2.608  -6.891  0.00  0.00    -0.031 A 
ATOM     13  C   UNL     1       3.128  -1.723  -7.829  0.00  0.00    +0.005 A 
ATOM     14  C   UNL     1       3.994  -2.123  -8.845  0.00  0.00    +0.001 A 
ATOM     15  C   UNL     1       4.427  -3.411  -8.930  0.00  0.00    +0.008 A 
ATOM     16  C   UNL     1       3.998  -4.353  -7.980  0.00  0.00    -0.018 A 
ATOM     17  C   UNL     1       3.123  -3.945  -6.942  0.00  0.00    -0.014 A 
ATOM     18  C   UNL     1       2.698  -4.886  -5.989  0.00  0.00    +0.009 A 
ATOM     19  C   UNL     1       3.136  -6.172  -6.071  0.00  0.00    +0.001 A 
ATOM     20  C   UNL     1       4.002  -6.572  -7.087  0.00  0.00    +0.001 A 
ATOM     21  C   UNL     1       4.424  -5.691  -8.035  0.00  0.00    +0.008 A 
ENDBRANCH  11  12
ENDBRANCH   8  11
ENDBRANCH   4   7
BRANCH   1  23
ATOM     22  C   UNL     1      -0.019   1.526   0.010  0.00  0.00    +0.028 C 
ATOM     23  C   UNL     1       0.002  -0.004   0.002  0.00  0.00    +0.076 C 
BRANCH  23  24
ATOM     24  C   UNL     1      -1.433  -0.534   0.013  0.00  0.00    +0.057 C 
BRANCH  24  25
ATOM     25  C   UNL     1      -1.414  -2.036   0.129  0.00  0.00    -0.045 A 
ATOM     26  C   UNL     1      -1.374  -2.816  -1.013  0.00  0.00    +0.007 A 
ATOM     27  C   UNL     1      -1.356  -4.193  -0.910  0.00  0.00    +0.045 A 
ATOM     28  C   UNL     1      -1.378  -4.794   0.341  0.00  0.00    +0.117 A 
ATOM     29  C   UNL     1      -1.417  -4.010   1.484  0.00  0.00    +0.045 A 
ATOM     30  C   UNL     1      -1.429  -2.633   1.376  0.00  0.00    +0.007 A 
BRANCH  28  31
ATOM     31  O   UNL     1      -1.361  -6.149   0.445  0.00  0.00    -0.507 OA
ATOM     32  H   UNL     1      -0.473  -6.529   0.496  0.00  0.00    +0.292 HD
ENDBRANCH  28  31
ENDBRANCH  24  25
ENDBRANCH  23  24
ENDBRANCH   1  23
TORSDOF 7
