REMARK  Name = ZINC02654435
REMARK  8 active torsions:
REMARK  status: ('A' for Active; 'I' for Inactive)
REMARK    1  A    between atoms: C_1  and  C_2
REMARK    2  A    between atoms: C_5  and  C_22
REMARK    3  A    between atoms: C_6  and  S_8
REMARK    4  A    between atoms: S_8  and  N_11
REMARK    5  A    between atoms: N_11  and  N_12
REMARK    6  A    between atoms: C_13  and  C_14
REMARK    7  A    between atoms: C_18  and  O_21
REMARK    8  A    between atoms: C_19  and  O_20
REMARK                            x       y       z     vdW  Elec       q    Type
REMARK                         _______ _______ _______ _____ _____    ______ ____
ROOT
ATOM      1  N   UNL     1       0.038   0.466  -0.186  0.00  0.00    -0.137 N 
ATOM      2  H   UNL     1       0.980   0.254  -0.287  0.00  0.00    +0.197 HD
ENDROOT
BRANCH   1   3
ATOM      3  S   UNL     1      -1.053  -0.739   0.129  0.00  0.00    +0.087 S 
ATOM      4  O   UNL     1      -0.316  -1.954   0.171  0.00  0.00    -0.149 OA
ATOM      5  O   UNL     1      -1.848  -0.293   1.219  0.00  0.00    -0.149 OA
BRANCH   3  11
ATOM      6  C   UNL     1      -2.981  -3.320  -3.987  0.00  0.00    +0.044 C 
ATOM      7  C   UNL     1      -2.973  -2.075  -3.138  0.00  0.00    -0.049 A 
ATOM      8  C   UNL     1      -3.807  -1.018  -3.453  0.00  0.00    +0.004 A 
ATOM      9  C   UNL     1      -3.800   0.123  -2.674  0.00  0.00    +0.005 A 
ATOM     10  C   UNL     1      -2.958   0.209  -1.580  0.00  0.00    -0.024 A 
ATOM     11  C   UNL     1      -2.125  -0.848  -1.265  0.00  0.00    +0.113 A 
ATOM     12  C   UNL     1      -2.129  -1.988  -2.047  0.00  0.00    +0.032 A 
ATOM     13  C   UNL     1      -2.950   1.454  -0.732  0.00  0.00    +0.046 C 
ENDBRANCH   3  11
ENDBRANCH   1   3
BRANCH   1  14
ATOM     14  N   UNL     1      -0.397   1.792  -0.306  0.00  0.00    -0.174 NA
ATOM     15  C   UNL     1       0.431   2.715  -0.686  0.00  0.00    +0.143 C 
BRANCH  15  16
ATOM     16  C   UNL     1       0.018   4.130  -0.666  0.00  0.00    +0.040 A 
ATOM     17  C   UNL     1       0.866   5.117  -1.176  0.00  0.00    +0.013 A 
ATOM     18  C   UNL     1       0.476   6.439  -1.155  0.00  0.00    +0.004 A 
ATOM     19  C   UNL     1      -0.754   6.797  -0.631  0.00  0.00    +0.049 A 
ATOM     20  C   UNL     1      -1.605   5.829  -0.121  0.00  0.00    +0.159 A 
ATOM     21  C   UNL     1      -1.228   4.492  -0.140  0.00  0.00    +0.167 A 
BRANCH  21  22
ATOM     22  O   UNL     1      -2.063   3.539   0.353  0.00  0.00    -0.503 OA
ATOM     23  H   UNL     1      -1.940   3.358   1.295  0.00  0.00    +0.292 HD
ENDBRANCH  21  22
BRANCH  20  24
ATOM     24  O   UNL     1      -2.813   6.187   0.393  0.00  0.00    -0.503 OA
ATOM     25  H   UNL     1      -3.530   6.194  -0.256  0.00  0.00    +0.292 HD
ENDBRANCH  20  24
ENDBRANCH  15  16
ENDBRANCH   1  14
TORSDOF 6
