REMARK  Name = ZINC16011536
REMARK  4 active torsions:
REMARK  status: ('A' for Active; 'I' for Inactive)
REMARK    1  A    between atoms: C_12  and  C_15
REMARK    2  A    between atoms: C_15  and  C_16
REMARK    3  A    between atoms: C_19  and  O_22
REMARK    4  A    between atoms: N_25  and  C_28
REMARK                            x       y       z     vdW  Elec       q    Type
REMARK                         _______ _______ _______ _____ _____    ______ ____
ROOT
ATOM      1  C   UNL     1      -0.077   1.296  -0.315  0.00  0.00    +0.000 A 
ATOM      2  C   UNL     1       1.107   1.947  -0.612  0.00  0.00    +0.002 A 
ATOM      3  C   UNL     1       2.271   1.229  -0.793  0.00  0.00    +0.023 A 
ATOM      4  C   UNL     1       2.263  -0.159  -0.678  0.00  0.00    +0.039 A 
ATOM      5  C   UNL     1       1.066  -0.804  -0.380  0.00  0.00    +0.003 A 
ATOM      6  C   UNL     1      -0.093  -0.083  -0.200  0.00  0.00    +0.008 A 
ATOM      7  C   UNL     1       1.391  -2.269  -0.328  0.00  0.00    +0.136 C 
ATOM      8  C   UNL     1       1.056  -2.871   1.042  0.00  0.00    +0.123 C 
ATOM      9  C   UNL     1      -0.331  -3.545   0.844  0.00  0.00    +0.108 C 
ATOM     10  C   UNL     1      -0.707  -3.256  -0.625  0.00  0.00    +0.072 C 
ATOM     11  N   UNL     1       0.602  -3.035  -1.310  0.00  0.00    -0.295 NA
ATOM     12  C   UNL     1      -0.032  -5.016   1.018  0.00  0.00    +0.232 C 
ATOM     13  O   UNL     1      -0.846  -5.911   0.931  0.00  0.00    -0.274 OA
ATOM     14  N   UNL     1       1.269  -5.178   1.282  0.00  0.00    -0.210 N 
ATOM     15  C   UNL     1       1.984  -4.030   1.330  0.00  0.00    +0.233 C 
ATOM     16  O   UNL     1       3.170  -3.936   1.561  0.00  0.00    -0.274 OA
ATOM     17  C   UNL     1       2.864  -2.354  -0.621  0.00  0.00    +0.243 C 
ATOM     18  O   UNL     1       3.535  -3.364  -0.674  0.00  0.00    -0.273 OA
ATOM     19  N   UNL     1       3.293  -1.092  -0.815  0.00  0.00    -0.283 N 
ATOM     20  H   UNL     1       0.474  -2.507  -2.161  0.00  0.00    +0.124 HD
ATOM     21  H   UNL     1       4.211  -0.859  -1.024  0.00  0.00    +0.155 HD
ENDROOT
BRANCH  14  22
ATOM     22  C   UNL     1       1.849  -6.436   1.499  0.00  0.00    +0.044 A 
ATOM     23  C   UNL     1       1.937  -7.350   0.458  0.00  0.00    +0.027 A 
ATOM     24  C   UNL     1       2.508  -8.589   0.674  0.00  0.00    +0.040 A 
ATOM     25  C   UNL     1       2.993  -8.920   1.928  0.00  0.00    +0.124 A 
ATOM     26  C   UNL     1       2.906  -8.009   2.968  0.00  0.00    +0.040 A 
ATOM     27  C   UNL     1       2.341  -6.768   2.754  0.00  0.00    +0.027 A 
ATOM     28  F   UNL     1       3.551 -10.132   2.137  0.00  0.00    -0.205 F 
ENDBRANCH  14  22
BRANCH  10  29
ATOM     29  C   UNL     1      -1.418  -4.462  -1.240  0.00  0.00    +0.054 C 
BRANCH  29  30
ATOM     30  C   UNL     1      -1.884  -4.115  -2.631  0.00  0.00    -0.046 A 
ATOM     31  C   UNL     1      -3.138  -3.563  -2.821  0.00  0.00    +0.007 A 
ATOM     32  C   UNL     1      -3.567  -3.245  -4.095  0.00  0.00    +0.045 A 
ATOM     33  C   UNL     1      -2.740  -3.479  -5.183  0.00  0.00    +0.117 A 
ATOM     34  C   UNL     1      -1.482  -4.032  -4.990  0.00  0.00    +0.045 A 
ATOM     35  C   UNL     1      -1.055  -4.344  -3.713  0.00  0.00    +0.007 A 
BRANCH  33  36
ATOM     36  O   UNL     1      -3.160  -3.167  -6.437  0.00  0.00    -0.507 OA
ATOM     37  H   UNL     1      -2.939  -2.267  -6.714  0.00  0.00    +0.292 HD
ENDBRANCH  33  36
ENDBRANCH  29  30
ENDBRANCH  10  29
TORSDOF 4
