REMARK  Name = ZINC67149427
REMARK  7 active torsions:
REMARK  status: ('A' for Active; 'I' for Inactive)
REMARK    1  A    between atoms: C_2  and  C_3
REMARK    2  A    between atoms: C_3  and  N_4
REMARK    3  A    between atoms: N_7  and  C_8
REMARK    4  A    between atoms: C_11  and  N_14
REMARK    5  A    between atoms: C_15  and  C_17
REMARK    6  A    between atoms: C_17  and  N_18
REMARK    7  A    between atoms: C_19  and  C_21
REMARK                            x       y       z     vdW  Elec       q    Type
REMARK                         _______ _______ _______ _____ _____    ______ ____
ROOT
ATOM      1  N   UNL     1       6.753  -6.782   3.287  0.00  0.00    -0.284 N 
ATOM      2  C   UNL     1       6.644  -7.736   4.233  0.00  0.00    +0.234 C 
ATOM      3  O   UNL     1       5.659  -7.781   4.938  0.00  0.00    -0.274 OA
ATOM      4  H   UNL     1       7.569  -6.704   2.768  0.00  0.00    +0.155 HD
ENDROOT
BRANCH   1   8
ATOM      5  C   UNL     1       3.582  -4.164   2.592  0.00  0.00    +0.035 A 
ATOM      6  C   UNL     1       3.843  -4.611   3.880  0.00  0.00    +0.025 A 
ATOM      7  C   UNL     1       4.893  -5.478   4.110  0.00  0.00    +0.025 A 
ATOM      8  C   UNL     1       5.687  -5.902   3.053  0.00  0.00    +0.034 A 
ATOM      9  C   UNL     1       5.426  -5.455   1.765  0.00  0.00    +0.025 A 
ATOM     10  C   UNL     1       4.373  -4.593   1.534  0.00  0.00    +0.025 A 
BRANCH   5  14
ATOM     11  N   UNL     1       0.722  -2.594   1.034  0.00  0.00    -0.296 N 
ATOM     12  C   UNL     1       1.803  -3.377   1.219  0.00  0.00    +0.304 C 
ATOM     13  O   UNL     1       2.135  -4.168   0.357  0.00  0.00    -0.253 OA
ATOM     14  N   UNL     1       2.517  -3.284   2.358  0.00  0.00    -0.269 N 
ATOM     15  H   UNL     1       0.458  -1.963   1.722  0.00  0.00    +0.151 HD
ATOM     16  H   UNL     1       2.293  -2.608   3.016  0.00  0.00    +0.156 HD
BRANCH  11  17
ATOM     17  C   UNL     1      -0.054  -2.696  -0.204  0.00  0.00    +0.132 C 
BRANCH  17  19
ATOM     18  C   UNL     1      -1.353  -0.843  -1.120  0.00  0.00    +0.005 C 
ATOM     19  C   UNL     1      -1.202  -1.720  -0.159  0.00  0.00    -0.016 C 
ENDBRANCH  17  19
ENDBRANCH  11  17
ENDBRANCH   5  14
ENDBRANCH   1   8
BRANCH   2  20
ATOM     20  C   UNL     1       7.747  -8.746   4.414  0.00  0.00    +0.200 C 
BRANCH  20  21
ATOM     21  N   UNL     1       7.393  -9.668   5.496  0.00  0.00    -0.303 N 
ATOM     22  C   UNL     1       8.236 -10.663   5.837  0.00  0.00    +0.244 C 
ATOM     23  O   UNL     1       9.290 -10.795   5.247  0.00  0.00    -0.270 OA
ATOM     24  H   UNL     1       6.551  -9.562   5.966  0.00  0.00    +0.150 HD
BRANCH  22  25
ATOM     25  C   UNL     1       7.878 -11.593   6.929  0.00  0.00    +0.037 A 
ATOM     26  C   UNL     1       6.665 -11.448   7.605  0.00  0.00    +0.013 A 
ATOM     27  C   UNL     1       6.339 -12.320   8.621  0.00  0.00    +0.004 A 
ATOM     28  C   UNL     1       7.209 -13.340   8.976  0.00  0.00    -0.044 A 
ATOM     29  C   UNL     1       8.412 -13.489   8.310  0.00  0.00    -0.043 A 
ATOM     30  C   UNL     1       8.747 -12.623   7.286  0.00  0.00    +0.017 A 
ATOM     31  C   UNL     1       9.172 -14.667   8.883  0.00  0.00    +0.036 C 
ATOM     32  C   UNL     1       8.510 -14.949  10.248  0.00  0.00    +0.009 C 
ATOM     33  C   UNL     1       7.079 -14.409  10.041  0.00  0.00    +0.036 C 
ENDBRANCH  22  25
ENDBRANCH  20  21
ENDBRANCH   2  20
TORSDOF 7
