REMARK  Name = ZINC04126596
REMARK  9 active torsions:
REMARK  status: ('A' for Active; 'I' for Inactive)
REMARK    1  A    between atoms: C_1  and  C_2
REMARK    2  A    between atoms: C_7  and  O_9
REMARK    3  A    between atoms: O_9  and  C_10
REMARK    4  A    between atoms: C_10  and  C_12
REMARK    5  A    between atoms: C_13  and  C_29
REMARK    6  A    between atoms: C_18  and  C_20
REMARK    7  A    between atoms: C_23  and  N_26
REMARK    8  A    between atoms: N_26  and  C_27
REMARK    9  A    between atoms: N_26  and  C_28
REMARK                            x       y       z     vdW  Elec       q    Type
REMARK                         _______ _______ _______ _____ _____    ______ ____
ROOT
ATOM      1  C   UNL     1       3.369   3.327   2.720  0.00  0.00    +0.078 C 
ATOM      2  C   UNL     1       4.626   3.457   3.198  0.00  0.00    +0.019 C 
ATOM      3  N   UNL     1       4.907   4.323   4.214  0.00  0.00    -0.300 N 
ATOM      4  C   UNL     1       3.986   5.088   4.814  0.00  0.00    +0.135 C 
ATOM      5  S   UNL     1       4.473   6.128   6.083  0.00  0.00    -0.019 S 
ATOM      6  N   UNL     1       2.688   5.065   4.452  0.00  0.00    -0.315 N 
ATOM      7  C   UNL     1       2.281   4.166   3.358  0.00  0.00    +0.141 C 
ATOM      8  C   UNL     1       5.737   2.636   2.595  0.00  0.00    +0.061 C 
ATOM      9  H   UNL     1       5.938   4.422   4.584  0.00  0.00    +0.154 HD
ATOM     10  H   UNL     1       1.939   5.697   4.951  0.00  0.00    +0.149 HD
ENDROOT
BRANCH   7  11
ATOM     11  C   UNL     1       1.228   3.231   3.894  0.00  0.00    -0.022 A 
ATOM     12  C   UNL     1       1.439   2.565   5.088  0.00  0.00    +0.007 A 
ATOM     13  C   UNL     1       0.473   1.712   5.585  0.00  0.00    +0.023 A 
ATOM     14  C   UNL     1      -0.707   1.514   4.878  0.00  0.00    +0.029 A 
ATOM     15  C   UNL     1      -0.913   2.180   3.677  0.00  0.00    +0.023 A 
ATOM     16  C   UNL     1       0.054   3.037   3.189  0.00  0.00    +0.007 A 
BRANCH  14  17
ATOM     17  N   UNL     1      -1.683   0.648   5.375  0.00  0.00    -0.336 N 
ATOM     18  C   UNL     1      -2.927   0.441   4.629  0.00  0.00    +0.129 C 
ATOM     19  C   UNL     1      -1.464  -0.053   6.642  0.00  0.00    +0.129 C 
ENDBRANCH  14  17
ENDBRANCH   7  11
BRANCH   1  20
ATOM     20  C   UNL     1       3.078   2.433   1.663  0.00  0.00    +0.339 C 
ATOM     21  O   UNL     1       2.913   2.859   0.534  0.00  0.00    -0.245 OA
BRANCH  20  22
ATOM     22  O   UNL     1       2.983   1.109   1.905  0.00  0.00    -0.458 OA
BRANCH  22  28
ATOM     23  C   UNL     1       3.866  -1.204   2.531  0.00  0.00    +0.011 C 
ATOM     24  C   UNL     1       3.330  -1.159   1.099  0.00  0.00    +0.027 C 
ATOM     25  C   UNL     1       2.127  -2.114   0.954  0.00  0.00    +0.007 C 
ATOM     26  C   UNL     1       1.164  -1.368  -0.004  0.00  0.00    +0.004 C 
ATOM     27  C   UNL     1       1.313   0.107   0.443  0.00  0.00    +0.045 C 
ATOM     28  C   UNL     1       2.812   0.253   0.774  0.00  0.00    +0.180 C 
ENDBRANCH  22  28
ENDBRANCH  20  22
ENDBRANCH   1  20
TORSDOF 5
