REMARK  Name = ZINC05371512
REMARK  12 active torsions:
REMARK  status: ('A' for Active; 'I' for Inactive)
REMARK    1  A    between atoms: C_1  and  C_2
REMARK    2  A    between atoms: C_2  and  C_3
REMARK    3  A    between atoms: C_2  and  O_4
REMARK    4  A    between atoms: O_4  and  C_5
REMARK    5  A    between atoms: C_5  and  C_6
REMARK    6  A    between atoms: C_6  and  C_8
REMARK    7  A    between atoms: C_8  and  O_34
REMARK    8  A    between atoms: C_12  and  O_29
REMARK    9  A    between atoms: C_15  and  O_16
REMARK   10  A    between atoms: C_23  and  O_27
REMARK   11  A    between atoms: O_27  and  C_28
REMARK   12  A    between atoms: C_30  and  O_33
REMARK                            x       y       z     vdW  Elec       q    Type
REMARK                         _______ _______ _______ _____ _____    ______ ____
ROOT
ATOM      1  C   UNL     1      -0.740   1.586  -1.238  0.00  0.00    +0.133 C 
ATOM      2  C   UNL     1      -0.013   1.086   0.008  0.00  0.00    +0.082 C 
ATOM      3  C   UNL     1      -0.707   1.566   1.257  0.00  0.00    +0.007 A 
ATOM      4  C   UNL     1      -1.600   2.607   1.252  0.00  0.00    +0.030 A 
ATOM      5  C   UNL     1      -2.210   3.015   2.445  0.00  0.00    +0.134 A 
ATOM      6  C   UNL     1      -1.919   2.371   3.646  0.00  0.00    +0.078 A 
ATOM      7  C   UNL     1      -1.003   1.300   3.651  0.00  0.00    +0.078 A 
ATOM      8  C   UNL     1      -0.404   0.906   2.456  0.00  0.00    +0.132 A 
ATOM      9  C   UNL     1      -0.685   0.608   4.912  0.00  0.00    +0.198 C 
ATOM     10  O   UNL     1       0.104  -0.317   4.917  0.00  0.00    -0.286 OA
ATOM     11  C   UNL     1      -1.329   1.039   6.171  0.00  0.00    +0.037 A 
ATOM     12  C   UNL     1      -1.035   0.392   7.366  0.00  0.00    +0.012 A 
ATOM     13  C   UNL     1      -1.642   0.800   8.543  0.00  0.00    +0.004 A 
ATOM     14  C   UNL     1      -2.540   1.848   8.543  0.00  0.00    +0.046 A 
ATOM     15  C   UNL     1      -2.848   2.510   7.358  0.00  0.00    +0.132 A 
ATOM     16  C   UNL     1      -2.243   2.109   6.163  0.00  0.00    +0.075 A 
ATOM     17  C   UNL     1      -2.560   2.801   4.901  0.00  0.00    +0.202 C 
ATOM     18  O   UNL     1      -3.349   3.726   4.895  0.00  0.00    -0.286 OA
ATOM     19  C   UNL     1      -1.971   3.352  -0.005  0.00  0.00    +0.152 C 
ATOM     20  C   UNL     1      -0.941   3.100  -1.104  0.00  0.00    +0.079 C 
ENDROOT
BRANCH   1  21
ATOM     21  C   UNL     1       0.088   1.290  -2.462  0.00  0.00    +0.190 C 
ATOM     22  O   UNL     1       0.893   2.099  -2.857  0.00  0.00    -0.292 OA
BRANCH  21  23
ATOM     23  C   UNL     1      -0.089  -0.015  -3.194  0.00  0.00    +0.237 C 
BRANCH  23  24
ATOM     24  O   UNL     1       0.801  -0.060  -4.311  0.00  0.00    -0.370 OA
BRANCH  24  26
ATOM     25  C   UNL     1      -0.332  -1.089  -6.181  0.00  0.00    +0.037 C 
ATOM     26  C   UNL     1       0.712  -1.263  -5.077  0.00  0.00    +0.113 C 
ATOM     27  C   UNL     1       2.073  -1.568  -5.706  0.00  0.00    +0.037 C 
ENDBRANCH  24  26
ENDBRANCH  23  24
ENDBRANCH  21  23
ENDBRANCH   1  21
BRANCH   8  28
ATOM     28  O   UNL     1       0.478  -0.124   2.453  0.00  0.00    -0.506 OA
ATOM     29  H   UNL     1       0.072  -0.989   2.307  0.00  0.00    +0.292 HD
ENDBRANCH   8  28
BRANCH  15  30
ATOM     30  O   UNL     1      -3.730   3.539   7.363  0.00  0.00    -0.494 OA
ATOM     31  C   UNL     1      -4.308   3.893   8.621  0.00  0.00    +0.277 C 
ENDBRANCH  15  30
BRANCH   5  32
ATOM     32  O   UNL     1      -3.090   4.047   2.432  0.00  0.00    -0.506 OA
ATOM     33  H   UNL     1      -4.008   3.779   2.284  0.00  0.00    +0.292 HD
ENDBRANCH   5  32
BRANCH  19  34
ATOM     34  O   UNL     1      -3.254   2.910  -0.453  0.00  0.00    -0.387 OA
ATOM     35  H   UNL     1      -3.962   3.038   0.194  0.00  0.00    +0.210 HD
ENDBRANCH  19  34
BRANCH   1  36
ATOM     36  O   UNL     1      -2.009   0.939  -1.347  0.00  0.00    -0.381 OA
ATOM     37  H   UNL     1      -1.955  -0.024  -1.418  0.00  0.00    +0.211 HD
ENDBRANCH   1  36
TORSDOF 9
