REMARK  Name = ZINC09668115
REMARK  8 active torsions:
REMARK  status: ('A' for Active; 'I' for Inactive)
REMARK    1  A    between atoms: C_4  and  C_7
REMARK    2  A    between atoms: C_7  and  O_8
REMARK    3  A    between atoms: O_8  and  C_9
REMARK    4  A    between atoms: C_12  and  C_15
REMARK    5  A    between atoms: N_17  and  C_18
REMARK    6  A    between atoms: C_18  and  N_20
REMARK    7  A    between atoms: N_20  and  C_21
REMARK    8  A    between atoms: C_22  and  C_30
REMARK                            x       y       z     vdW  Elec       q    Type
REMARK                         _______ _______ _______ _____ _____    ______ ____
ROOT
ATOM      1  C   UNL     1       1.170   3.561   0.009  0.00  0.00    +0.250 C 
ATOM      2  O   UNL     1       0.111   4.158   0.022  0.00  0.00    -0.270 OA
ATOM      3  N   UNL     1       2.330   4.247   0.002  0.00  0.00    -0.264 N 
ATOM      4  H   UNL     1       3.175   3.771  -0.008  0.00  0.00    +0.157 HD
ENDROOT
BRANCH   1   8
ATOM      5  C   UNL     1       1.214  -0.685  -0.013  0.00  0.00    +0.121 A 
ATOM      6  C   UNL     1       0.002  -0.004   0.002  0.00  0.00    +0.046 A 
ATOM      7  C   UNL     1      -0.017   1.373   0.010  0.00  0.00    +0.016 A 
ATOM      8  C   UNL     1       1.185   2.086   0.002  0.00  0.00    +0.037 A 
ATOM      9  C   UNL     1       2.402   1.398  -0.013  0.00  0.00    +0.016 A 
ATOM     10  C   UNL     1       2.412   0.021  -0.020  0.00  0.00    +0.046 A 
BRANCH   5  11
ATOM     11  O   UNL     1       1.228  -2.042  -0.019  0.00  0.00    -0.487 OA
BRANCH  11  12
ATOM     12  C   UNL     1       2.508  -2.677  -0.035  0.00  0.00    +0.264 C 
BRANCH  12  16
ATOM     13  C   UNL     1       1.993  -6.918  -0.050  0.00  0.00    +0.000 A 
ATOM     14  C   UNL     1       2.065  -6.226  -1.244  0.00  0.00    +0.000 A 
ATOM     15  C   UNL     1       2.231  -4.854  -1.239  0.00  0.00    +0.007 A 
ATOM     16  C   UNL     1       2.326  -4.173  -0.040  0.00  0.00    -0.010 A 
ATOM     17  C   UNL     1       2.260  -4.865   1.155  0.00  0.00    +0.007 A 
ATOM     18  C   UNL     1       2.087  -6.237   1.150  0.00  0.00    +0.000 A 
ENDBRANCH  12  16
ENDBRANCH  11  12
ENDBRANCH   5  11
ENDBRANCH   1   8
BRANCH   3  19
ATOM     19  C   UNL     1       2.316   5.595   0.009  0.00  0.00    +0.141 C 
ATOM     20  S   UNL     1       0.825   6.435   0.027  0.00  0.00    -0.018 S 
BRANCH  19  21
ATOM     21  N   UNL     1       3.476   6.281   0.002  0.00  0.00    -0.291 N 
ATOM     22  H   UNL     1       4.321   5.804  -0.009  0.00  0.00    +0.154 HD
BRANCH  21  23
ATOM     23  C   UNL     1       3.462   7.666   0.009  0.00  0.00    +0.084 A 
ATOM     24  C   UNL     1       4.540   8.540   0.009  0.00  0.00    +0.068 A 
ATOM     25  C   UNL     1       4.251   9.964   0.014  0.00  0.00    -0.023 A 
ATOM     26  C   UNL     1       2.939  10.284   0.028  0.00  0.00    -0.004 A 
ATOM     27  S   UNL     1       2.093   8.729   0.028  0.00  0.00    -0.077 S 
ATOM     28  C   UNL     1       2.345  11.659   0.043  0.00  0.00    +0.043 C 
ATOM     29  C   UNL     1       3.448  12.659   0.416  0.00  0.00    +0.005 C 
ATOM     30  C   UNL     1       4.688  12.366  -0.434  0.00  0.00    +0.005 C 
ATOM     31  C   UNL     1       5.323  11.047   0.009  0.00  0.00    +0.037 C 
BRANCH  24  32
ATOM     32  C   UNL     1       5.920   8.045  -0.000  0.00  0.00    +0.244 C 
ATOM     33  O   UNL     1       6.488   7.846  -1.058  0.00  0.00    -0.270 OA
ATOM     34  N   UNL     1       6.559   7.810   1.163  0.00  0.00    -0.325 N 
ATOM     35  H   UNL     1       6.107   7.969   2.006  0.00  0.00    +0.145 HD
ATOM     36  H   UNL     1       7.472   7.482   1.157  0.00  0.00    +0.145 HD
ENDBRANCH  24  32
ENDBRANCH  21  23
ENDBRANCH  19  21
ENDBRANCH   3  19
TORSDOF 8
