REMARK  Name = ZINC05768716
REMARK  4 active torsions:
REMARK  status: ('A' for Active; 'I' for Inactive)
REMARK    1  A    between atoms: C_4  and  C_7
REMARK    2  A    between atoms: C_7  and  C_25
REMARK    3  A    between atoms: C_9  and  C_11
REMARK    4  A    between atoms: N_13  and  N_14
REMARK                            x       y       z     vdW  Elec       q    Type
REMARK                         _______ _______ _______ _____ _____    ______ ____
ROOT
ATOM      1  C   UNL     1       5.220  -3.026   0.279  0.00  0.00    +0.236 C 
ATOM      2  O   UNL     1       6.149  -2.333   0.635  0.00  0.00    -0.274 OA
ATOM      3  N   UNL     1       5.331  -4.369   0.304  0.00  0.00    -0.206 N 
ATOM      4  H   UNL     1       4.588  -4.922   0.018  0.00  0.00    +0.177 HD
ENDROOT
BRANCH   3   5
ATOM      5  N   UNL     1       6.520  -4.965   0.743  0.00  0.00    -0.175 NA
ATOM      6  C   UNL     1       6.671  -6.264   0.662  0.00  0.00    +0.152 C 
ATOM      7  C   UNL     1       5.772  -7.237  -0.002  0.00  0.00    +0.028 A 
ATOM      8  C   UNL     1       4.576  -7.107  -0.699  0.00  0.00    +0.012 A 
ATOM      9  C   UNL     1       3.958  -8.228  -1.215  0.00  0.00    +0.001 A 
ATOM     10  C   UNL     1       4.529  -9.478  -1.038  0.00  0.00    +0.002 A 
ATOM     11  C   UNL     1       5.715  -9.617  -0.347  0.00  0.00    +0.024 A 
ATOM     12  C   UNL     1       6.352  -8.499   0.180  0.00  0.00    +0.043 A 
ATOM     13  N   UNL     1       7.533  -8.363   0.903  0.00  0.00    -0.280 N 
ATOM     14  C   UNL     1       7.776  -7.077   1.209  0.00  0.00    +0.269 C 
ATOM     15  O   UNL     1       8.735  -6.658   1.829  0.00  0.00    -0.268 OA
ATOM     16  H   UNL     1       8.110  -9.102   1.151  0.00  0.00    +0.155 HD
ENDBRANCH   3   5
BRANCH   1  19
ATOM     17  C   UNL     1       3.735  -0.901   0.120  0.00  0.00    +0.033 C 
ATOM     18  C   UNL     1       4.041  -1.345  -1.312  0.00  0.00    +0.031 C 
ATOM     19  C   UNL     1       3.940  -2.385  -0.194  0.00  0.00    +0.093 C 
BRANCH  17  23
ATOM     20  C   UNL     1      -0.242   0.405   0.972  0.00  0.00    +0.000 A 
ATOM     21  C   UNL     1       0.799   1.314   0.972  0.00  0.00    +0.000 A 
ATOM     22  C   UNL     1       2.086   0.891   0.697  0.00  0.00    +0.004 A 
ATOM     23  C   UNL     1       2.332  -0.441   0.421  0.00  0.00    -0.036 A 
ATOM     24  C   UNL     1       1.292  -1.350   0.421  0.00  0.00    +0.004 A 
ATOM     25  C   UNL     1       0.004  -0.927   0.695  0.00  0.00    +0.000 A 
ENDBRANCH  17  23
BRANCH  17  26
ATOM     26  C   UNL     1       4.829  -0.193   0.878  0.00  0.00    -0.036 A 
ATOM     27  C   UNL     1       5.886   0.378   0.195  0.00  0.00    +0.004 A 
ATOM     28  C   UNL     1       6.889   1.027   0.890  0.00  0.00    +0.000 A 
ATOM     29  C   UNL     1       6.834   1.106   2.269  0.00  0.00    +0.000 A 
ATOM     30  C   UNL     1       5.776   0.536   2.953  0.00  0.00    +0.000 A 
ATOM     31  C   UNL     1       4.771  -0.110   2.257  0.00  0.00    +0.004 A 
ENDBRANCH  17  26
ENDBRANCH   1  19
TORSDOF 4
