REMARK  Name = ZINC20759650
REMARK  10 active torsions:
REMARK  status: ('A' for Active; 'I' for Inactive)
REMARK    1  A    between atoms: C_1  and  C_2
REMARK    2  A    between atoms: C_2  and  C_3
REMARK    3  A    between atoms: C_16  and  C_19
REMARK    4  A    between atoms: N_25  and  C_28
REMARK    5  A    between atoms: C_28  and  C_29
REMARK    6  A    between atoms: C_29  and  C_30
REMARK    7  A    between atoms: C_33  and  O_38
REMARK    8  A    between atoms: C_34  and  O_36
REMARK    9  A    between atoms: O_36  and  C_37
REMARK   10  A    between atoms: O_38  and  C_39
REMARK                            x       y       z     vdW  Elec       q    Type
REMARK                         _______ _______ _______ _____ _____    ______ ____
ROOT
ATOM      1  C   UNL     1      -4.142   0.562   0.193  0.00  0.00    +0.073 A 
ATOM      2  C   UNL     1      -3.581   0.710  -1.088  0.00  0.00    +0.260 A 
ATOM      3  N   UNL     1      -4.140   1.567  -1.964  0.00  0.00    -0.275 N 
ATOM      4  H   UNL     1      -3.756   1.671  -2.848  0.00  0.00    +0.173 HD
ATOM      5  C   UNL     1      -5.228   2.281  -1.621  0.00  0.00    +0.332 A 
ATOM      6  O   UNL     1      -5.719   3.049  -2.425  0.00  0.00    -0.246 OA
ATOM      7  N   UNL     1      -5.782   2.155  -0.401  0.00  0.00    -0.260 N 
ATOM      8  C   UNL     1      -5.247   1.290   0.520  0.00  0.00    +0.262 A 
ATOM      9  O   UNL     1      -5.809   1.164   1.741  0.00  0.00    -0.267 OA
ATOM     10  O   UNL     1      -2.595   0.066  -1.403  0.00  0.00    -0.267 OA
ENDROOT
BRANCH   1  23
ATOM     11  C   UNL     1      -1.321   0.542   0.975  0.00  0.00    -0.066 C 
ATOM     12  C   UNL     1      -0.613  -0.774   0.623  0.00  0.00    +0.022 C 
ATOM     13  C   UNL     1      -1.668  -1.770   0.214  0.00  0.00    -0.022 A 
ATOM     14  C   UNL     1      -1.525  -3.028  -0.483  0.00  0.00    +0.003 A 
ATOM     15  C   UNL     1      -0.417  -3.716  -0.988  0.00  0.00    +0.010 A 
ATOM     16  C   UNL     1      -0.660  -4.917  -1.607  0.00  0.00    +0.001 A 
ATOM     17  C   UNL     1      -1.939  -5.435  -1.733  0.00  0.00    +0.002 A 
ATOM     18  C   UNL     1      -3.054  -4.776  -1.243  0.00  0.00    +0.026 A 
ATOM     19  C   UNL     1      -2.838  -3.554  -0.609  0.00  0.00    +0.047 A 
ATOM     20  N   UNL     1      -3.692  -2.663  -0.026  0.00  0.00    -0.359 N 
ATOM     21  H   UNL     1      -4.655  -2.768   0.032  0.00  0.00    +0.166 HD
ATOM     22  C   UNL     1      -2.987  -1.599   0.465  0.00  0.00    +0.011 A 
ATOM     23  C   UNL     1      -3.533  -0.392   1.189  0.00  0.00    +0.018 C 
ATOM     24  N   UNL     1      -2.429   0.270   1.900  0.00  0.00    +0.390 N 
ATOM     25  H   UNL     1      -2.104  -0.329   2.644  0.00  0.00    -0.084 HD
ATOM     26  H   UNL     1      -2.757   1.140   2.293  0.00  0.00    -0.084 HD
BRANCH  11  28
ATOM     27  C   UNL     1      -0.996   2.850   1.876  0.00  0.00    +0.002 C 
ATOM     28  C   UNL     1      -0.325   1.495   1.638  0.00  0.00    -0.019 C 
ENDBRANCH  11  28
ENDBRANCH   1  23
BRANCH   7  29
ATOM     29  C   UNL     1      -6.967   2.945  -0.055  0.00  0.00    +0.134 C 
BRANCH  29  30
ATOM     30  C   UNL     1      -8.228   2.163  -0.428  0.00  0.00    +0.057 C 
BRANCH  30  31
ATOM     31  C   UNL     1      -9.446   2.975  -0.072  0.00  0.00    -0.042 A 
ATOM     32  C   UNL     1     -10.014   2.853   1.182  0.00  0.00    +0.007 A 
ATOM     33  C   UNL     1     -11.132   3.595   1.513  0.00  0.00    +0.049 A 
ATOM     34  C   UNL     1     -11.686   4.465   0.587  0.00  0.00    +0.161 A 
ATOM     35  C   UNL     1     -11.114   4.588  -0.675  0.00  0.00    +0.162 A 
ATOM     36  C   UNL     1      -9.990   3.844  -0.999  0.00  0.00    +0.053 A 
BRANCH  35  37
ATOM     37  O   UNL     1     -11.653   5.440  -1.588  0.00  0.00    -0.491 OA
ATOM     38  C   UNL     1     -11.013   5.514  -2.863  0.00  0.00    +0.277 C 
ENDBRANCH  35  37
BRANCH  34  39
ATOM     39  O   UNL     1     -12.786   5.196   0.911  0.00  0.00    -0.491 OA
ATOM     40  C   UNL     1     -13.319   5.017   2.225  0.00  0.00    +0.277 C 
ENDBRANCH  34  39
ENDBRANCH  30  31
ENDBRANCH  29  30
ENDBRANCH   7  29
TORSDOF 7
