REMARK  Name = ZINC21971191
REMARK  6 active torsions:
REMARK  status: ('A' for Active; 'I' for Inactive)
REMARK    1  A    between atoms: C_4  and  S_7
REMARK    2  A    between atoms: S_7  and  N_10
REMARK    3  A    between atoms: N_10  and  C_11
REMARK    4  A    between atoms: C_14  and  C_17
REMARK    5  A    between atoms: N_19  and  N_20
REMARK    6  A    between atoms: C_21  and  C_23
REMARK                            x       y       z     vdW  Elec       q    Type
REMARK                         _______ _______ _______ _____ _____    ______ ____
ROOT
ATOM      1  C   UNL     1      -1.145   1.544   0.111  0.00  0.00    +0.260 C 
ATOM      2  O   UNL     1      -1.142   2.758   0.181  0.00  0.00    -0.269 OA
ATOM      3  N   UNL     1       0.020   0.869   0.053  0.00  0.00    -0.230 N 
ATOM      4  H   UNL     1       0.017  -0.229  -0.006  0.00  0.00    +0.173 HD
ENDROOT
BRANCH   1   8
ATOM      5  C   UNL     1      -4.828  -0.568   0.045  0.00  0.00    +0.048 A 
ATOM      6  C   UNL     1      -4.826   0.822   0.125  0.00  0.00    +0.025 A 
ATOM      7  C   UNL     1      -3.634   1.509   0.147  0.00  0.00    +0.015 A 
ATOM      8  C   UNL     1      -2.425   0.810   0.088  0.00  0.00    +0.038 A 
ATOM      9  C   UNL     1      -2.430  -0.585   0.001  0.00  0.00    +0.015 A 
ATOM     10  C   UNL     1      -3.626  -1.267  -0.015  0.00  0.00    +0.025 A 
BRANCH   5  11
ATOM     11  N   UNL     1      -6.034  -1.260   0.023  0.00  0.00    -0.216 N 
ATOM     12  H   UNL     1      -6.829  -1.003   0.739  0.00  0.00    +0.174 HD
BRANCH  11  13
ATOM     13  S   UNL     1      -6.275  -2.470  -1.081  0.00  0.00    +0.072 S 
ATOM     14  O   UNL     1      -5.170  -3.356  -0.960  0.00  0.00    -0.150 OA
ATOM     15  O   UNL     1      -7.619  -2.903  -0.924  0.00  0.00    -0.150 OA
BRANCH  13  19
ATOM     16  C   UNL     1      -5.990  -0.605  -5.196  0.00  0.00    +0.000 A 
ATOM     17  C   UNL     1      -4.880  -1.203  -4.630  0.00  0.00    +0.002 A 
ATOM     18  C   UNL     1      -4.966  -1.772  -3.373  0.00  0.00    +0.029 A 
ATOM     19  C   UNL     1      -6.164  -1.744  -2.683  0.00  0.00    +0.108 A 
ATOM     20  C   UNL     1      -7.276  -1.151  -3.251  0.00  0.00    +0.029 A 
ATOM     21  C   UNL     1      -7.187  -0.577  -4.506  0.00  0.00    +0.002 A 
ENDBRANCH  13  19
ENDBRANCH  11  13
ENDBRANCH   5  11
ENDBRANCH   1   8
BRANCH   3  22
ATOM     22  N   UNL     1       1.235   1.566   0.069  0.00  0.00    -0.230 N 
ATOM     23  C   UNL     1       2.400   0.891   0.006  0.00  0.00    +0.267 C 
ATOM     24  O   UNL     1       2.397  -0.323  -0.065  0.00  0.00    -0.268 OA
ATOM     25  H   UNL     1       1.238   2.664   0.133  0.00  0.00    +0.173 HD
BRANCH  23  26
ATOM     26  C   UNL     1       3.671   1.621   0.022  0.00  0.00    +0.076 A 
ATOM     27  C   UNL     1       4.962   1.127  -0.033  0.00  0.00    +0.024 A 
ATOM     28  C   UNL     1       6.013   2.037  -0.009  0.00  0.00    -0.036 A 
ATOM     29  C   UNL     1       5.679   3.343   0.097  0.00  0.00    -0.006 A 
ATOM     30  S   UNL     1       3.959   3.381   0.111  0.00  0.00    -0.088 S 
ATOM     31  C   UNL     1       6.632   4.513   0.195  0.00  0.00    +0.043 C 
ATOM     32  C   UNL     1       7.341   4.638  -1.164  0.00  0.00    +0.005 C 
ATOM     33  C   UNL     1       8.445   3.613  -1.275  0.00  0.00    +0.001 C 
ATOM     34  C   UNL     1       8.015   2.179  -1.446  0.00  0.00    +0.005 C 
ATOM     35  C   UNL     1       7.471   1.584  -0.146  0.00  0.00    +0.036 C 
ENDBRANCH  23  26
ENDBRANCH   3  22
TORSDOF 6
