REMARK  Name = ZINC35852017
REMARK  5 active torsions:
REMARK  status: ('A' for Active; 'I' for Inactive)
REMARK    1  A    between atoms: C_1  and  C_2
REMARK    2  A    between atoms: C_2  and  C_3
REMARK    3  A    between atoms: N_22  and  C_25
REMARK    4  A    between atoms: C_28  and  C_32
REMARK    5  A    between atoms: C_30  and  C_31
REMARK                            x       y       z     vdW  Elec       q    Type
REMARK                         _______ _______ _______ _____ _____    ______ ____
ROOT
ATOM      1  C   UNL     1       0.127  -1.754  -2.137  0.00  0.00    -0.047 A 
ATOM      2  C   UNL     1      -0.485  -2.301  -3.250  0.00  0.00    +0.005 A 
ATOM      3  C   UNL     1       0.274  -2.827  -4.274  0.00  0.00    +0.024 A 
ATOM      4  C   UNL     1       1.665  -2.810  -4.196  0.00  0.00    +0.036 A 
ATOM      5  C   UNL     1       2.270  -2.257  -3.071  0.00  0.00    -0.027 A 
ATOM      6  C   UNL     1       1.508  -1.728  -2.053  0.00  0.00    +0.008 A 
ATOM      7  C   UNL     1       3.751  -2.393  -3.292  0.00  0.00    +0.053 C 
ATOM      8  C   UNL     1       4.409  -3.226  -2.186  0.00  0.00    +0.089 C 
ATOM      9  C   UNL     1       5.032  -2.179  -1.222  0.00  0.00    +0.074 C 
ATOM     10  C   UNL     1       4.678  -0.809  -1.829  0.00  0.00    -0.054 C 
ATOM     11  N   UNL     1       4.422  -1.083  -3.281  0.00  0.00    +0.395 N 
ATOM     12  C   UNL     1       5.765  -1.220  -3.893  0.00  0.00    -0.076 C 
ATOM     13  C   UNL     1       6.644  -0.173  -3.178  0.00  0.00    -0.020 C 
ATOM     14  C   UNL     1       5.923   0.097  -1.799  0.00  0.00    -0.016 C 
ATOM     15  C   UNL     1       6.518  -2.430  -1.349  0.00  0.00    +0.228 C 
ATOM     16  O   UNL     1       7.384  -1.821  -0.758  0.00  0.00    -0.275 OA
ATOM     17  N   UNL     1       6.728  -3.430  -2.213  0.00  0.00    -0.210 N 
ATOM     18  C   UNL     1       5.605  -3.963  -2.745  0.00  0.00    +0.229 C 
ATOM     19  O   UNL     1       5.555  -4.877  -3.540  0.00  0.00    -0.275 OA
ATOM     20  C   UNL     1       3.885  -3.065  -4.632  0.00  0.00    +0.212 C 
ATOM     21  O   UNL     1       4.918  -3.362  -5.193  0.00  0.00    -0.277 OA
ATOM     22  N   UNL     1       2.635  -3.273  -5.088  0.00  0.00    -0.286 N 
ATOM     23  H   UNL     1       2.431  -3.694  -5.938  0.00  0.00    +0.155 HD
ATOM     24  H   UNL     1       3.865  -0.361  -3.714  0.00  0.00    -0.079 HD
ENDROOT
BRANCH  17  25
ATOM     25  C   UNL     1       8.010  -3.894  -2.538  0.00  0.00    +0.047 A 
ATOM     26  C   UNL     1       8.712  -3.320  -3.590  0.00  0.00    +0.024 A 
ATOM     27  C   UNL     1       9.974  -3.779  -3.909  0.00  0.00    +0.005 A 
ATOM     28  C   UNL     1      10.540  -4.810  -3.181  0.00  0.00    -0.050 A 
ATOM     29  C   UNL     1       9.845  -5.384  -2.134  0.00  0.00    +0.008 A 
ATOM     30  C   UNL     1       8.583  -4.925  -1.807  0.00  0.00    -0.028 A 
ATOM     31  C   UNL     1       7.828  -5.547  -0.661  0.00  0.00    +0.046 C 
ATOM     32  C   UNL     1      11.919  -5.309  -3.532  0.00  0.00    +0.044 C 
ENDBRANCH  17  25
BRANCH   1  34
ATOM     33  C   UNL     1      -0.975   0.300  -1.292  0.00  0.00    +0.009 C 
ATOM     34  C   UNL     1      -0.707  -1.182  -1.020  0.00  0.00    +0.032 C 
ENDBRANCH   1  34
TORSDOF 2
