REMARK  Name = ZINC14271591
REMARK  12 active torsions:
REMARK  status: ('A' for Active; 'I' for Inactive)
REMARK    1  A    between atoms: C_1  and  C_2
REMARK    2  A    between atoms: C_7  and  O_8
REMARK    3  A    between atoms: O_8  and  C_9
REMARK    4  A    between atoms: C_9  and  C_10
REMARK    5  A    between atoms: N_12  and  C_13
REMARK    6  A    between atoms: C_13  and  N_15
REMARK    7  A    between atoms: N_15  and  C_16
REMARK    8  A    between atoms: C_17  and  C_30
REMARK    9  A    between atoms: C_22  and  C_26
REMARK   10  A    between atoms: C_26  and  C_27
REMARK   11  A    between atoms: C_26  and  C_28
REMARK   12  A    between atoms: C_26  and  C_29
REMARK                            x       y       z     vdW  Elec       q    Type
REMARK                         _______ _______ _______ _____ _____    ______ ____
ROOT
ATOM      1  C   UNL     1      -1.137  -2.079   0.002  0.00  0.00    +0.084 A 
ATOM      2  C   UNL     1      -2.213  -2.957   0.013  0.00  0.00    +0.068 A 
ATOM      3  C   UNL     1      -1.919  -4.380  -0.004  0.00  0.00    -0.023 A 
ATOM      4  C   UNL     1      -0.606  -4.695  -0.017  0.00  0.00    -0.004 A 
ATOM      5  S   UNL     1       0.235  -3.137  -0.016  0.00  0.00    -0.077 S 
ATOM      6  C   UNL     1      -0.007  -6.068  -0.030  0.00  0.00    +0.046 C 
ATOM      7  C   UNL     1      -1.100  -7.076   0.353  0.00  0.00    -0.000 C 
ATOM      8  C   UNL     1      -2.356  -6.778  -0.471  0.00  0.00    +0.009 C 
ATOM      9  C   UNL     1      -2.987  -5.466  -0.001  0.00  0.00    +0.037 C 
ENDROOT
BRANCH   2  10
ATOM     10  C   UNL     1      -3.594  -2.466   0.036  0.00  0.00    +0.244 C 
ATOM     11  O   UNL     1      -4.183  -2.257  -1.008  0.00  0.00    -0.270 OA
ATOM     12  N   UNL     1      -4.211  -2.246   1.214  0.00  0.00    -0.325 N 
ATOM     13  H   UNL     1      -3.742  -2.413   2.046  0.00  0.00    +0.145 HD
ATOM     14  H   UNL     1      -5.125  -1.921   1.229  0.00  0.00    +0.145 HD
ENDBRANCH   2  10
BRANCH   7  15
ATOM     15  C   UNL     1      -0.616  -8.496   0.053  0.00  0.00    -0.035 C 
ATOM     16  C   UNL     1       0.649  -8.786   0.864  0.00  0.00    +0.011 C 
ATOM     17  C   UNL     1      -1.707  -9.498   0.435  0.00  0.00    +0.011 C 
ATOM     18  C   UNL     1      -0.305  -8.625  -1.439  0.00  0.00    +0.011 C 
ENDBRANCH   7  15
BRANCH   1  19
ATOM     19  N   UNL     1      -1.156  -0.694   0.009  0.00  0.00    -0.291 N 
ATOM     20  H   UNL     1      -2.002  -0.220   0.020  0.00  0.00    +0.154 HD
BRANCH  19  21
ATOM     21  C   UNL     1       0.002  -0.004   0.002  0.00  0.00    +0.141 C 
ATOM     22  S   UNL     1       1.496  -0.840  -0.017  0.00  0.00    -0.018 S 
BRANCH  21  25
ATOM     23  C   UNL     1       1.142   2.033   0.002  0.00  0.00    +0.256 C 
ATOM     24  O   UNL     1       2.200   1.441  -0.011  0.00  0.00    -0.272 OA
ATOM     25  N   UNL     1      -0.016   1.344   0.009  0.00  0.00    -0.265 N 
ATOM     26  H   UNL     1      -0.863   1.817   0.016  0.00  0.00    +0.157 HD
BRANCH  23  27
ATOM     27  C   UNL     1       1.121   3.540   0.010  0.00  0.00    +0.325 C 
BRANCH  27  28
ATOM     28  O   UNL     1       2.462   4.035   0.000  0.00  0.00    -0.483 OA
BRANCH  28  35
ATOM     29  C   UNL     1       5.104   5.033  -0.020  0.00  0.00    +0.047 C 
ATOM     30  C   UNL     1       3.896   5.933  -0.003  0.00  0.00    -0.009 A 
ATOM     31  C   UNL     1       4.055   7.306   0.003  0.00  0.00    +0.007 A 
ATOM     32  C   UNL     1       2.947   8.132   0.018  0.00  0.00    +0.000 A 
ATOM     33  C   UNL     1       1.676   7.587   0.026  0.00  0.00    +0.004 A 
ATOM     34  C   UNL     1       1.511   6.215   0.015  0.00  0.00    +0.046 A 
ATOM     35  C   UNL     1       2.622   5.384   0.006  0.00  0.00    +0.124 A 
ENDBRANCH  28  35
ENDBRANCH  27  28
ENDBRANCH  23  27
ENDBRANCH  21  25
ENDBRANCH  19  21
ENDBRANCH   1  19
TORSDOF 8
