REMARK  Name = ZINC09317002
REMARK  7 active torsions:
REMARK  status: ('A' for Active; 'I' for Inactive)
REMARK    1  A    between atoms: C_1  and  O_2
REMARK    2  A    between atoms: O_2  and  C_3
REMARK    3  A    between atoms: C_7  and  C_9
REMARK    4  A    between atoms: C_9  and  C_11
REMARK    5  A    between atoms: C_12  and  N_30
REMARK    6  A    between atoms: C_13  and  C_20
REMARK    7  A    between atoms: N_22  and  C_23
REMARK                            x       y       z     vdW  Elec       q    Type
REMARK                         _______ _______ _______ _____ _____    ______ ____
ROOT
ATOM      1  C   UNL     1      -0.184   1.212   7.201  0.00  0.00    +0.116 A 
ATOM      2  C   UNL     1       0.985   0.457   7.279  0.00  0.00    +0.067 A 
ATOM      3  C   UNL     1       1.260   0.253   8.645  0.00  0.00    +0.083 A 
ATOM      4  C   UNL     1       0.230   0.890   9.377  0.00  0.00    +0.061 A 
ATOM      5  N   UNL     1      -0.633   1.464   8.489  0.00  0.00    -0.311 N 
ATOM      6  C   UNL     1      -1.723   2.147   8.939  0.00  0.00    +0.092 A 
ATOM      7  C   UNL     1      -1.966   2.268  10.265  0.00  0.00    +0.018 A 
ATOM      8  C   UNL     1      -1.096   1.689  11.196  0.00  0.00    +0.003 A 
ATOM      9  C   UNL     1      -0.001   1.002  10.754  0.00  0.00    +0.027 A 
ENDROOT
BRANCH   3  10
ATOM     10  C   UNL     1       2.393  -0.484   9.203  0.00  0.00    +0.252 C 
ATOM     11  O   UNL     1       2.298  -1.681   9.411  0.00  0.00    -0.270 OA
ATOM     12  N   UNL     1       3.542   0.159   9.486  0.00  0.00    -0.279 N 
ATOM     13  H   UNL     1       3.593   1.124   9.396  0.00  0.00    +0.155 HD
BRANCH  12  14
ATOM     14  C   UNL     1       4.664  -0.564   9.910  0.00  0.00    +0.069 A 
ATOM     15  C   UNL     1       4.799  -1.902   9.567  0.00  0.00    +0.026 A 
ATOM     16  C   UNL     1       5.909  -2.612   9.982  0.00  0.00    +0.002 A 
ATOM     17  C   UNL     1       6.881  -1.994  10.748  0.00  0.00    +0.003 A 
ATOM     18  C   UNL     1       6.748  -0.663  11.096  0.00  0.00    +0.040 A 
ATOM     19  C   UNL     1       5.642   0.056  10.680  0.00  0.00    +0.144 A 
ATOM     20  F   UNL     1       5.512   1.356  11.021  0.00  0.00    -0.204 F 
ENDBRANCH  12  14
ENDBRANCH   3  10
BRANCH   2  21
ATOM     21  N   UNL     1       1.738  -0.004   6.211  0.00  0.00    -0.356 N 
ATOM     22  H   UNL     1       1.504   0.254   5.306  0.00  0.00    +0.142 HD
ATOM     23  H   UNL     1       2.499  -0.585   6.370  0.00  0.00    +0.142 HD
ENDBRANCH   2  21
BRANCH   1  24
ATOM     24  C   UNL     1      -0.808   1.641   6.013  0.00  0.00    +0.212 C 
ATOM     25  O   UNL     1      -1.710   0.981   5.525  0.00  0.00    -0.285 OA
BRANCH  24  30
ATOM     26  C   UNL     1      -0.498   4.440   3.521  0.00  0.00    +0.121 A 
ATOM     27  C   UNL     1       0.459   5.239   4.133  0.00  0.00    +0.045 A 
ATOM     28  C   UNL     1       0.993   4.873   5.355  0.00  0.00    +0.004 A 
ATOM     29  C   UNL     1       0.587   3.705   5.968  0.00  0.00    +0.012 A 
ATOM     30  C   UNL     1      -0.370   2.893   5.358  0.00  0.00    +0.027 A 
ATOM     31  C   UNL     1      -0.913   3.267   4.128  0.00  0.00    +0.057 A 
BRANCH  26  33
ATOM     32  C   UNL     1      -0.552   6.030   1.755  0.00  0.00    +0.277 C 
ATOM     33  O   UNL     1      -1.025   4.808   2.323  0.00  0.00    -0.495 OA
ENDBRANCH  26  33
ENDBRANCH  24  30
ENDBRANCH   1  24
TORSDOF 6
