REMARK  Name = ZINC03841724
REMARK  10 active torsions:
REMARK  status: ('A' for Active; 'I' for Inactive)
REMARK    1  A    between atoms: C_1  and  C_2
REMARK    2  A    between atoms: C_2  and  C_4
REMARK    3  A    between atoms: C_8  and  N_10
REMARK    4  A    between atoms: C_11  and  O_13
REMARK    5  A    between atoms: O_13  and  C_14
REMARK    6  A    between atoms: C_24  and  N_26
REMARK    7  A    between atoms: N_26  and  C_27
REMARK    8  A    between atoms: C_27  and  N_29
REMARK    9  A    between atoms: N_29  and  C_30
REMARK   10  A    between atoms: C_33  and  C_36
REMARK                            x       y       z     vdW  Elec       q    Type
REMARK                         _______ _______ _______ _____ _____    ______ ____
ROOT
ATOM      1  C   UNL     1      -0.426  -6.718  -5.626  0.00  0.00    +0.235 C 
ATOM      2  C   UNL     1      -1.796  -6.940  -6.301  0.00  0.00    +0.207 C 
ATOM      3  O   UNL     1      -1.787  -8.252  -6.873  0.00  0.00    -0.368 OA
ATOM      4  C   UNL     1      -0.533  -8.901  -6.621  0.00  0.00    +0.173 C 
ATOM      5  C   UNL     1       0.071  -8.165  -5.379  0.00  0.00    +0.192 C 
ATOM      6  O   UNL     1      -0.654  -8.723  -4.269  0.00  0.00    -0.368 OA
ATOM      7  C   UNL     1      -0.829 -10.124  -4.529  0.00  0.00    +0.185 C 
ATOM      8  C   UNL     1      -0.810 -10.322  -6.077  0.00  0.00    +0.129 C 
ENDROOT
BRANCH   8   9
ATOM      9  N   UNL     1       0.270 -11.235  -6.460  0.00  0.00    -0.319 N 
ATOM     10  H   UNL     1       1.156 -10.887  -6.646  0.00  0.00    +0.148 HD
BRANCH   9  11
ATOM     11  C   UNL     1       0.032 -12.559  -6.551  0.00  0.00    +0.135 C 
ATOM     12  S   UNL     1      -1.532 -13.172  -6.221  0.00  0.00    -0.019 S 
BRANCH  11  13
ATOM     13  N   UNL     1       1.026 -13.399  -6.903  0.00  0.00    -0.297 N 
ATOM     14  H   UNL     1       1.929 -13.063  -7.011  0.00  0.00    +0.154 HD
BRANCH  13  15
ATOM     15  C   UNL     1       0.755 -14.751  -7.111  0.00  0.00    +0.033 A 
ATOM     16  C   UNL     1      -0.395 -15.130  -7.797  0.00  0.00    +0.024 A 
ATOM     17  C   UNL     1      -0.666 -16.464  -8.004  0.00  0.00    +0.020 A 
ATOM     18  C   UNL     1       0.216 -17.438  -7.525  0.00  0.00    +0.052 A 
ATOM     19  C   UNL     1       1.370 -17.052  -6.837  0.00  0.00    +0.020 A 
ATOM     20  C   UNL     1       1.637 -15.716  -6.638  0.00  0.00    +0.024 A 
BRANCH  18  21
ATOM     21  C   UNL     1      -0.063 -18.826  -7.739  0.00  0.00    +0.099 C 
ATOM     22  N   UNL     1      -0.284 -19.927  -7.908  0.00  0.00    -0.191 NA
ENDBRANCH  18  21
ENDBRANCH  13  15
ENDBRANCH  11  13
ENDBRANCH   9  11
ENDBRANCH   8   9
BRANCH   1  23
ATOM     23  O   UNL     1      -0.577  -6.016  -4.391  0.00  0.00    -0.442 OA
BRANCH  23  25
ATOM     24  N   UNL     1      -0.573  -3.954  -3.298  0.00  0.00    -0.251 N 
ATOM     25  C   UNL     1      -0.442  -4.677  -4.428  0.00  0.00    +0.405 C 
ATOM     26  O   UNL     1      -0.203  -4.120  -5.481  0.00  0.00    -0.226 OA
ATOM     27  H   UNL     1      -0.681  -4.404  -2.445  0.00  0.00    +0.158 HD
BRANCH  24  32
ATOM     28  C   UNL     1      -1.056  -0.504  -4.508  0.00  0.00    +0.019 A 
ATOM     29  C   UNL     1      -0.500   0.221  -3.448  0.00  0.00    +0.011 A 
ATOM     30  C   UNL     1       0.021  -0.444  -2.358  0.00  0.00    +0.002 A 
ATOM     31  C   UNL     1      -0.003  -1.826  -2.308  0.00  0.00    +0.023 A 
ATOM     32  C   UNL     1      -0.552  -2.556  -3.355  0.00  0.00    +0.037 A 
ATOM     33  C   UNL     1      -1.085  -1.900  -4.453  0.00  0.00    +0.034 A 
BRANCH  28  35
ATOM     34  C   UNL     1      -1.581   1.708  -5.728  0.00  0.00    +0.091 C 
ATOM     35  C   UNL     1      -1.614   0.202  -5.673  0.00  0.00    +0.160 C 
ATOM     36  O   UNL     1      -2.099  -0.428  -6.588  0.00  0.00    -0.292 OA
ENDBRANCH  28  35
ENDBRANCH  24  32
ENDBRANCH  23  25
ENDBRANCH   1  23
TORSDOF 9
