REMARK  Name = ZINC24961553
REMARK  7 active torsions:
REMARK  status: ('A' for Active; 'I' for Inactive)
REMARK    1  A    between atoms: C_3  and  S_24
REMARK    2  A    between atoms: C_5  and  C_6
REMARK    3  A    between atoms: C_6  and  N_7
REMARK    4  A    between atoms: C_8  and  C_10
REMARK    5  A    between atoms: C_10  and  C_11
REMARK    6  A    between atoms: C_20  and  O_23
REMARK    7  A    between atoms: S_24  and  N_27
REMARK                            x       y       z     vdW  Elec       q    Type
REMARK                         _______ _______ _______ _____ _____    ______ ____
ROOT
ATOM      1  N   UNL     1      -1.191   1.867   0.018  0.00  0.00    -0.311 N 
ATOM      2  C   UNL     1      -0.014   1.209   0.009  0.00  0.00    +0.214 C 
ATOM      3  O   UNL     1       0.002  -0.004   0.002  0.00  0.00    -0.276 OA
ATOM      4  H   UNL     1      -1.206   2.966   0.024  0.00  0.00    +0.149 HD
ENDROOT
BRANCH   1   5
ATOM      5  C   UNL     1      -2.449   1.117   0.020  0.00  0.00    +0.146 C 
BRANCH   5  10
ATOM      6  C   UNL     1      -4.266   2.636  -1.016  0.00  0.00    +0.015 A 
ATOM      7  C   UNL     1      -5.314   3.502  -0.766  0.00  0.00    +0.036 A 
ATOM      8  C   UNL     1      -5.647   3.777   0.519  0.00  0.00    +0.142 A 
ATOM      9  S   UNL     1      -4.465   2.792   1.425  0.00  0.00    -0.072 S 
ATOM     10  C   UNL     1      -3.608   2.080   0.030  0.00  0.00    +0.009 A 
BRANCH   8  11
ATOM     11  S   UNL     1      -6.916   4.833   1.134  0.00  0.00    +0.062 S 
ATOM     12  O   UNL     1      -6.522   5.220   2.444  0.00  0.00    -0.153 OA
ATOM     13  O   UNL     1      -7.189   5.779   0.110  0.00  0.00    -0.153 OA
BRANCH  11  14
ATOM     14  N   UNL     1      -8.281   3.911   1.304  0.00  0.00    -0.203 NA
ATOM     15  H   UNL     1      -9.100   4.536   1.688  0.00  0.00    +0.144 HD
ATOM     16  H   UNL     1      -8.084   3.090   2.010  0.00  0.00    +0.144 HD
ENDBRANCH  11  14
ENDBRANCH   8  11
ENDBRANCH   5  10
ENDBRANCH   1   5
BRANCH   2  17
ATOM     17  C   UNL     1       1.280   1.980   0.001  0.00  0.00    +0.102 C 
BRANCH  17  18
ATOM     18  C   UNL     1       2.457   1.002  -0.016  0.00  0.00    -0.018 C 
ATOM     19  C   UNL     1       2.399   0.114   1.229  0.00  0.00    +0.011 C 
ATOM     20  C   UNL     1       3.576  -0.864   1.213  0.00  0.00    -0.007 C 
ATOM     21  C   UNL     1       3.495  -1.738  -0.041  0.00  0.00    +0.007 C 
ATOM     22  C   UNL     1       3.552  -0.851  -1.286  0.00  0.00    -0.007 C 
ATOM     23  C   UNL     1       2.376   0.128  -1.269  0.00  0.00    +0.011 C 
ATOM     24  C   UNL     1       4.866  -0.068  -1.294  0.00  0.00    +0.038 C 
ATOM     25  C   UNL     1       4.947   0.806  -0.041  0.00  0.00    +0.067 C 
ATOM     26  C   UNL     1       4.890  -0.081   1.204  0.00  0.00    +0.038 C 
ATOM     27  C   UNL     1       3.771   1.784  -0.024  0.00  0.00    +0.042 C 
BRANCH  25  28
ATOM     28  O   UNL     1       6.175   1.537  -0.049  0.00  0.00    -0.389 OA
ATOM     29  H   UNL     1       6.412   2.224   0.778  0.00  0.00    +0.210 HD
ENDBRANCH  25  28
ENDBRANCH  17  18
ENDBRANCH   2  17
TORSDOF 7
