REMARK  Name = ZINC37270309
REMARK  6 active torsions:
REMARK  status: ('A' for Active; 'I' for Inactive)
REMARK    1  A    between atoms: C_1  and  N_2
REMARK    2  A    between atoms: N_2  and  C_3
REMARK    3  A    between atoms: N_2  and  S_7
REMARK    4  A    between atoms: C_3  and  C_4
REMARK    5  A    between atoms: S_7  and  C_10
REMARK    6  A    between atoms: C_15  and  N_16
REMARK                            x       y       z     vdW  Elec       q    Type
REMARK                         _______ _______ _______ _____ _____    ______ ____
ROOT
ATOM      1  S   UNL     1      -0.000  -0.824  -1.437  0.00  0.00    +0.063 S 
ATOM      2  O   UNL     1      -0.531  -2.115  -1.167  0.00  0.00    -0.153 OA
ATOM      3  O   UNL     1      -0.572   0.049  -2.401  0.00  0.00    -0.153 OA
ENDROOT
BRANCH   1   4
ATOM      4  C   UNL     1       1.682  -1.059  -1.905  0.00  0.00    +0.126 A 
ATOM      5  C   UNL     1       2.208  -2.335  -1.976  0.00  0.00    +0.031 A 
ATOM      6  C   UNL     1       3.527  -2.521  -2.344  0.00  0.00    +0.017 A 
ATOM      7  C   UNL     1       4.326  -1.430  -2.642  0.00  0.00    +0.020 A 
ATOM      8  C   UNL     1       3.806  -0.152  -2.573  0.00  0.00    +0.040 A 
ATOM      9  C   UNL     1       2.478   0.037  -2.209  0.00  0.00    +0.052 A 
ATOM     10 BR   UNL     1       6.130  -1.690  -3.144  0.00  0.00    -0.050 Br
BRANCH   9  11
ATOM     11  N   UNL     1       1.948   1.327  -2.144  0.00  0.00    -0.356 N 
ATOM     12  H   UNL     1       1.022   1.458  -1.886  0.00  0.00    +0.142 HD
ATOM     13  H   UNL     1       2.505   2.092  -2.357  0.00  0.00    +0.142 HD
ENDBRANCH   9  11
ENDBRANCH   1   4
BRANCH   1  15
ATOM     14  C   UNL     1      -0.018   1.461   0.010  0.00  0.00    +0.132 C 
ATOM     15  N   UNL     1       0.002  -0.004   0.002  0.00  0.00    -0.171 NA
BRANCH  15  16
ATOM     16  C   UNL     1       0.024  -0.743   1.267  0.00  0.00    +0.204 C 
BRANCH  16  17
ATOM     17  C   UNL     1      -1.384  -0.909   1.776  0.00  0.00    +0.226 C 
ATOM     18  O   UNL     1      -2.315  -0.455   1.145  0.00  0.00    -0.275 OA
ATOM     19  N   UNL     1      -1.610  -1.563   2.933  0.00  0.00    -0.328 N 
ATOM     20  H   UNL     1      -0.866  -1.926   3.438  0.00  0.00    +0.145 HD
ATOM     21  H   UNL     1      -2.517  -1.669   3.261  0.00  0.00    +0.145 HD
ENDBRANCH  16  17
ENDBRANCH  15  16
ENDBRANCH   1  15
TORSDOF 5
