REMARK  Name = ZINC09404849
REMARK  7 active torsions:
REMARK  status: ('A' for Active; 'I' for Inactive)
REMARK    1  A    between atoms: C_1  and  C_2
REMARK    2  A    between atoms: C_5  and  S_8
REMARK    3  A    between atoms: S_8  and  N_11
REMARK    4  A    between atoms: N_11  and  C_12
REMARK    5  A    between atoms: C_17  and  C_18
REMARK    6  A    between atoms: N_20  and  C_21
REMARK    7  A    between atoms: C_29  and  C_30
REMARK                            x       y       z     vdW  Elec       q    Type
REMARK                         _______ _______ _______ _____ _____    ______ ____
ROOT
ATOM      1  C   UNL     1      -2.073  -3.230   0.801  0.00  0.00    +0.060 A 
ATOM      2  C   UNL     1      -1.950  -4.610   0.914  0.00  0.00    +0.025 A 
ATOM      3  C   UNL     1      -0.775  -5.232   0.547  0.00  0.00    +0.002 A 
ATOM      4  C   UNL     1       0.290  -4.490   0.059  0.00  0.00    +0.001 A 
ATOM      5  C   UNL     1       0.186  -3.122  -0.064  0.00  0.00    +0.015 A 
ATOM      6  C   UNL     1      -0.999  -2.477   0.303  0.00  0.00    +0.059 A 
ENDROOT
BRANCH   6   7
ATOM      7  C   UNL     1      -1.117  -1.013   0.173  0.00  0.00    +0.250 C 
ATOM      8  O   UNL     1      -2.149  -0.456   0.493  0.00  0.00    -0.270 OA
ATOM      9  N   UNL     1      -0.081  -0.293  -0.301  0.00  0.00    -0.278 N 
ATOM     10  H   UNL     1       0.721  -0.742  -0.612  0.00  0.00    +0.155 HD
BRANCH   9  11
ATOM     11  C   UNL     1      -0.161   1.093  -0.345  0.00  0.00    +0.092 A 
ATOM     12  C   UNL     1      -0.977   1.960   0.515  0.00  0.00    +0.042 A 
ATOM     13  C   UNL     1      -1.864   1.726   1.566  0.00  0.00    +0.013 A 
ATOM     14  C   UNL     1      -2.482   2.780   2.179  0.00  0.00    +0.001 A 
ATOM     15  C   UNL     1      -2.232   4.080   1.762  0.00  0.00    +0.004 A 
ATOM     16  C   UNL     1      -1.359   4.331   0.725  0.00  0.00    +0.047 A 
ATOM     17  C   UNL     1      -0.719   3.274   0.087  0.00  0.00    +0.138 A 
ATOM     18  O   UNL     1       0.164   3.212  -0.929  0.00  0.00    -0.448 OA
ATOM     19  C   UNL     1       0.508   1.931  -1.194  0.00  0.00    +0.211 A 
BRANCH  19  20
ATOM     20  C   UNL     1       1.448   1.508  -2.230  0.00  0.00    +0.279 C 
ATOM     21  O   UNL     1       1.615   0.322  -2.453  0.00  0.00    -0.267 OA
ATOM     22  N   UNL     1       2.130   2.429  -2.939  0.00  0.00    -0.323 N 
ATOM     23  H   UNL     1       1.996   3.373  -2.762  0.00  0.00    +0.145 HD
ATOM     24  H   UNL     1       2.753   2.148  -3.627  0.00  0.00    +0.145 HD
ENDBRANCH  19  20
ENDBRANCH   9  11
ENDBRANCH   6   7
BRANCH   1  25
ATOM     25  N   UNL     1      -3.253  -2.601   1.175  0.00  0.00    -0.216 N 
ATOM     26  H   UNL     1      -3.572  -1.833   0.676  0.00  0.00    +0.174 HD
BRANCH  25  27
ATOM     27  S   UNL     1      -4.115  -3.163   2.473  0.00  0.00    +0.072 S 
ATOM     28  O   UNL     1      -5.183  -2.247   2.678  0.00  0.00    -0.150 OA
ATOM     29  O   UNL     1      -4.333  -4.549   2.246  0.00  0.00    -0.150 OA
BRANCH  27  34
ATOM     30  C   UNL     1      -0.534  -2.748   7.311  0.00  0.00    +0.044 C 
ATOM     31  C   UNL     1      -1.429  -2.852   6.103  0.00  0.00    -0.050 A 
ATOM     32  C   UNL     1      -2.247  -1.793   5.755  0.00  0.00    +0.005 A 
ATOM     33  C   UNL     1      -3.067  -1.888   4.647  0.00  0.00    +0.029 A 
ATOM     34  C   UNL     1      -3.069  -3.042   3.885  0.00  0.00    +0.109 A 
ATOM     35  C   UNL     1      -2.255  -4.102   4.236  0.00  0.00    +0.029 A 
ATOM     36  C   UNL     1      -1.431  -4.005   5.341  0.00  0.00    +0.005 A 
ENDBRANCH  27  34
ENDBRANCH  25  27
ENDBRANCH   1  25
TORSDOF 6
