REMARK  Name = ZINC33726973
REMARK  6 active torsions:
REMARK  status: ('A' for Active; 'I' for Inactive)
REMARK    1  A    between atoms: C_1  and  C_2
REMARK    2  A    between atoms: C_2  and  O_3
REMARK    3  A    between atoms: O_3  and  C_4
REMARK    4  A    between atoms: C_12  and  C_22
REMARK    5  A    between atoms: C_13  and  N_21
REMARK    6  A    between atoms: C_16  and  C_17
REMARK                            x       y       z     vdW  Elec       q    Type
REMARK                         _______ _______ _______ _____ _____    ______ ____
ROOT
ATOM      1  C   UNL     1       2.651   4.400   0.781  0.00  0.00    +0.403 C 
ATOM      2  O   UNL     1       2.926   4.767   1.906  0.00  0.00    -0.226 OA
ATOM      3  N   UNL     1       1.496   3.746   0.549  0.00  0.00    -0.267 N 
ATOM      4  C   UNL     1       0.558   3.469   1.646  0.00  0.00    +0.112 C 
ATOM      5  C   UNL     1      -0.825   4.002   1.259  0.00  0.00    +0.036 C 
ATOM      6  C   UNL     1      -1.242   3.399  -0.086  0.00  0.00    +0.043 C 
ATOM      7  C   UNL     1      -0.241   3.832  -1.163  0.00  0.00    +0.036 C 
ATOM      8  C   UNL     1       1.149   3.296  -0.806  0.00  0.00    +0.112 C 
ATOM      9  C   UNL     1      -2.611   3.902  -0.452  0.00  0.00    +0.075 C 
ATOM     10  C   UNL     1      -3.714   3.121  -0.329  0.00  0.00    +0.100 C 
ATOM     11  N   UNL     1      -3.613   1.828   0.130  0.00  0.00    -0.296 N 
ATOM     12  C   UNL     1      -2.395   1.189   0.120  0.00  0.00    +0.086 C 
ATOM     13  C   UNL     1      -1.239   1.899   0.020  0.00  0.00    +0.054 C 
ATOM     14  S   UNL     1      -2.331  -0.567   0.246  0.00  0.00    -0.035 SA
ATOM     15  H   UNL     1      -4.506   1.306   0.505  0.00  0.00    +0.154 HD
ENDROOT
BRANCH  13  16
ATOM     16  C   UNL     1      -0.015   1.215   0.009  0.00  0.00    +0.241 C 
ATOM     17  O   UNL     1       0.592   1.034   1.051  0.00  0.00    -0.271 OA
ATOM     18  N   UNL     1       0.489   0.753  -1.153  0.00  0.00    -0.326 N 
ATOM     19  H   UNL     1       1.449   0.216  -1.162  0.00  0.00    +0.145 HD
ATOM     20  H   UNL     1      -0.060   0.913  -2.093  0.00  0.00    +0.145 HD
ENDBRANCH  13  16
BRANCH  10  21
ATOM     21  N   UNL     1      -4.946   3.627  -0.666  0.00  0.00    -0.346 N 
ATOM     22  H   UNL     1      -5.844   2.999  -0.569  0.00  0.00    +0.143 HD
ATOM     23  H   UNL     1      -5.034   4.660  -1.034  0.00  0.00    +0.143 HD
ENDBRANCH  10  21
BRANCH   9  24
ATOM     24  C   UNL     1      -2.755   5.240  -0.943  0.00  0.00    +0.099 C 
ATOM     25  N   UNL     1      -2.870   6.301  -1.332  0.00  0.00    -0.191 NA
ENDBRANCH   9  24
BRANCH   1  26
ATOM     26  O   UNL     1       3.501   4.647  -0.234  0.00  0.00    -0.451 OA
BRANCH  26  28
ATOM     27  C   UNL     1       5.558   5.543  -1.181  0.00  0.00    +0.048 C 
ATOM     28  C   UNL     1       4.726   5.356   0.090  0.00  0.00    +0.230 C 
ENDBRANCH  26  28
ENDBRANCH   1  26
TORSDOF 5
