REMARK  Name = ZINC00491557
REMARK  7 active torsions:
REMARK  status: ('A' for Active; 'I' for Inactive)
REMARK    1  A    between atoms: C_1  and  C_2
REMARK    2  A    between atoms: C_5  and  C_8
REMARK    3  A    between atoms: N_10  and  C_11
REMARK    4  A    between atoms: C_11  and  N_13
REMARK    5  A    between atoms: N_13  and  C_14
REMARK    6  A    between atoms: C_17  and  S_20
REMARK    7  A    between atoms: S_20  and  N_23
REMARK                            x       y       z     vdW  Elec       q    Type
REMARK                         _______ _______ _______ _____ _____    ______ ____
ROOT
ATOM      1  N   UNL     1       3.635  -4.811  -0.058  0.00  0.00    -0.297 N 
ATOM      2  H   UNL     1       4.429  -4.293   0.146  0.00  0.00    +0.154 HD
ENDROOT
BRANCH   1   3
ATOM      3  C   UNL     1       3.664  -6.206   0.041  0.00  0.00    +0.033 A 
ATOM      4  C   UNL     1       4.247  -6.814   1.145  0.00  0.00    +0.025 A 
ATOM      5  C   UNL     1       4.270  -8.191   1.242  0.00  0.00    +0.030 A 
ATOM      6  C   UNL     1       3.723  -8.965   0.235  0.00  0.00    +0.105 A 
ATOM      7  C   UNL     1       3.146  -8.364  -0.869  0.00  0.00    +0.030 A 
ATOM      8  C   UNL     1       3.115  -6.986  -0.968  0.00  0.00    +0.025 A 
BRANCH   6   9
ATOM      9  S   UNL     1       3.761 -10.723   0.358  0.00  0.00    +0.056 S 
ATOM     10  O   UNL     1       3.868 -11.030   1.741  0.00  0.00    -0.153 OA
ATOM     11  O   UNL     1       2.699 -11.210  -0.451  0.00  0.00    -0.153 OA
BRANCH   9  12
ATOM     12  N   UNL     1       5.168 -11.233  -0.350  0.00  0.00    -0.204 NA
ATOM     13  H   UNL     1       5.782 -10.586  -0.730  0.00  0.00    +0.144 HD
ATOM     14  H   UNL     1       5.378 -12.180  -0.385  0.00  0.00    +0.144 HD
ENDBRANCH   9  12
ENDBRANCH   6   9
ENDBRANCH   1   3
BRANCH   1  15
ATOM     15  C   UNL     1       2.502  -4.186  -0.435  0.00  0.00    +0.141 C 
ATOM     16  S   UNL     1       1.132  -5.102  -0.898  0.00  0.00    -0.018 S 
BRANCH  15  19
ATOM     17  C   UNL     1       1.315  -2.214  -0.825  0.00  0.00    +0.250 C 
ATOM     18  O   UNL     1       0.342  -2.865  -1.154  0.00  0.00    -0.270 OA
ATOM     19  N   UNL     1       2.447  -2.839  -0.448  0.00  0.00    -0.264 N 
ATOM     20  H   UNL     1       3.223  -2.320  -0.185  0.00  0.00    +0.157 HD
BRANCH  17  25
ATOM     21  C   UNL     1       1.082   3.535  -0.877  0.00  0.00    +0.044 C 
ATOM     22  C   UNL     1       1.143   2.029  -0.864  0.00  0.00    -0.050 A 
ATOM     23  C   UNL     1       0.034   1.292  -1.239  0.00  0.00    +0.004 A 
ATOM     24  C   UNL     1       0.083  -0.087  -1.229  0.00  0.00    +0.013 A 
ATOM     25  C   UNL     1       1.255  -0.738  -0.839  0.00  0.00    +0.037 A 
ATOM     26  C   UNL     1       2.370   0.013  -0.461  0.00  0.00    +0.013 A 
ATOM     27  C   UNL     1       2.307   1.391  -0.476  0.00  0.00    +0.004 A 
ENDBRANCH  17  25
ENDBRANCH  15  19
ENDBRANCH   1  15
TORSDOF 6
