REMARK  Name = ZINC56519012
REMARK  6 active torsions:
REMARK  status: ('A' for Active; 'I' for Inactive)
REMARK    1  A    between atoms: C_1  and  O_2
REMARK    2  A    between atoms: O_2  and  C_3
REMARK    3  A    between atoms: C_8  and  C_9
REMARK    4  A    between atoms: C_9  and  N_10
REMARK    5  A    between atoms: N_13  and  N_14
REMARK    6  A    between atoms: N_17  and  C_18
REMARK                            x       y       z     vdW  Elec       q    Type
REMARK                         _______ _______ _______ _____ _____    ______ ____
ROOT
ATOM      1  N   UNL     1       0.561  -2.911   1.345  0.00  0.00    -0.294 N 
ATOM      2  C   UNL     1       1.705  -3.586   1.574  0.00  0.00    +0.316 C 
ATOM      3  O   UNL     1       2.275  -4.146   0.657  0.00  0.00    -0.251 OA
ATOM      4  N   UNL     1       2.218  -3.640   2.820  0.00  0.00    -0.217 N 
ATOM      5  H   UNL     1       0.107  -2.465   2.077  0.00  0.00    +0.151 HD
ATOM      6  H   UNL     1       3.042  -4.126   2.984  0.00  0.00    +0.174 HD
ENDROOT
BRANCH   4   7
ATOM      7  N   UNL     1       1.562  -2.995   3.876  0.00  0.00    -0.217 N 
ATOM      8  C   UNL     1       2.075  -3.050   5.121  0.00  0.00    +0.320 C 
ATOM      9  O   UNL     1       1.505  -2.490   6.038  0.00  0.00    -0.251 OA
ATOM     10  N   UNL     1       3.219  -3.724   5.350  0.00  0.00    -0.268 N 
ATOM     11  H   UNL     1       0.739  -2.510   3.711  0.00  0.00    +0.174 HD
ATOM     12  H   UNL     1       3.637  -4.227   4.634  0.00  0.00    +0.156 HD
BRANCH  10  13
ATOM     13  C   UNL     1       3.803  -3.700   6.622  0.00  0.00    +0.035 A 
ATOM     14  C   UNL     1       5.186  -3.702   6.752  0.00  0.00    +0.024 A 
ATOM     15  C   UNL     1       5.760  -3.677   8.008  0.00  0.00    +0.017 A 
ATOM     16  C   UNL     1       4.959  -3.651   9.136  0.00  0.00    +0.018 A 
ATOM     17  C   UNL     1       3.581  -3.649   9.009  0.00  0.00    +0.017 A 
ATOM     18  C   UNL     1       3.002  -3.668   7.755  0.00  0.00    +0.024 A 
ATOM     19 BR   UNL     1       5.748  -3.617  10.854  0.00  0.00    -0.050 Br
ENDBRANCH  10  13
ENDBRANCH   4   7
BRANCH   1  20
ATOM     20  C   UNL     1       0.004  -2.853  -0.008  0.00  0.00    +0.144 C 
BRANCH  20  26
ATOM     21  C   UNL     1      -1.209  -0.658   0.005  0.00  0.00    +0.125 A 
ATOM     22  C   UNL     1      -2.382   0.084   0.014  0.00  0.00    +0.046 A 
ATOM     23  C   UNL     1      -3.604  -0.559   0.029  0.00  0.00    +0.004 A 
ATOM     24  C   UNL     1      -3.660  -1.941   0.036  0.00  0.00    +0.001 A 
ATOM     25  C   UNL     1      -2.493  -2.682   0.028  0.00  0.00    +0.009 A 
ATOM     26  C   UNL     1      -1.268  -2.044   0.007  0.00  0.00    +0.011 A 
BRANCH  21  28
ATOM     27  C   UNL     1      -0.021   1.401  -0.011  0.00  0.00    +0.277 C 
ATOM     28  O   UNL     1      -0.005  -0.028  -0.010  0.00  0.00    -0.495 OA
ENDBRANCH  21  28
ENDBRANCH  20  26
ENDBRANCH   1  20
TORSDOF 5
