REMARK  Name = ZINC54155932
REMARK  6 active torsions:
REMARK  status: ('A' for Active; 'I' for Inactive)
REMARK    1  A    between atoms: C_4  and  S_8
REMARK    2  A    between atoms: S_8  and  N_11
REMARK    3  A    between atoms: N_11  and  C_12
REMARK    4  A    between atoms: C_12  and  C_13
REMARK    5  A    between atoms: C_13  and  C_14
REMARK    6  A    between atoms: N_15  and  O_16
REMARK                            x       y       z     vdW  Elec       q    Type
REMARK                         _______ _______ _______ _____ _____    ______ ____
ROOT
ATOM      1  S   UNL     1       4.373  -0.915   0.140  0.00  0.00    +0.060 S 
ATOM      2  O   UNL     1       4.047  -2.291   0.001  0.00  0.00    -0.153 OA
ATOM      3  O   UNL     1       3.469   0.029   0.698  0.00  0.00    -0.153 OA
ENDROOT
BRANCH   1   7
ATOM      4  C   UNL     1       8.149  -0.723   2.630  0.00  0.00    +0.016 A 
ATOM      5  C   UNL     1       8.085  -1.565   1.537  0.00  0.00    +0.018 A 
ATOM      6  C   UNL     1       6.932  -1.625   0.776  0.00  0.00    +0.044 A 
ATOM      7  C   UNL     1       5.842  -0.840   1.110  0.00  0.00    +0.120 A 
ATOM      8  C   UNL     1       5.906   0.002   2.203  0.00  0.00    +0.045 A 
ATOM      9  C   UNL     1       7.060   0.062   2.964  0.00  0.00    +0.020 A 
ATOM     10 BR   UNL     1       7.147   1.214   4.460  0.00  0.00    -0.050 Br
ATOM     11 BR   UNL     1       6.844  -2.777  -0.721  0.00  0.00    -0.048 Br
ENDBRANCH   1   7
BRANCH   1  12
ATOM     12  N   UNL     1       4.757  -0.364  -1.374  0.00  0.00    -0.190 NA
ATOM     13  H   UNL     1       4.692  -0.959  -2.137  0.00  0.00    +0.148 HD
BRANCH  12  14
ATOM     14  C   UNL     1       5.194   1.022  -1.560  0.00  0.00    +0.113 C 
BRANCH  14  15
ATOM     15  C   UNL     1       5.880   1.161  -2.921  0.00  0.00    +0.091 C 
BRANCH  15  16
ATOM     16  C   UNL     1       6.223   2.609  -3.164  0.00  0.00    +0.133 C 
ATOM     17  N   UNL     1       7.442   3.015  -3.033  0.00  0.00    -0.077 NA
ATOM     18  N   UNL     1       5.236   3.498  -3.527  0.00  0.00    -0.344 N 
ATOM     19  H   UNL     1       4.321   3.193  -3.625  0.00  0.00    +0.144 HD
ATOM     20  H   UNL     1       5.457   4.430  -3.683  0.00  0.00    +0.144 HD
BRANCH  17  21
ATOM     21  O   UNL     1       8.474   2.082  -2.767  0.00  0.00    -0.408 OA
ATOM     22  H   UNL     1       9.338   2.487  -2.609  0.00  0.00    +0.328 HD
ENDBRANCH  17  21
ENDBRANCH  15  16
ENDBRANCH  14  15
ENDBRANCH  12  14
ENDBRANCH   1  12
TORSDOF 6
