REMARK  Name = ZINC16325670
REMARK  7 active torsions:
REMARK  status: ('A' for Active; 'I' for Inactive)
REMARK    1  A    between atoms: C_1  and  C_2
REMARK    2  A    between atoms: C_5  and  N_9
REMARK    3  A    between atoms: C_13  and  S_15
REMARK    4  A    between atoms: S_15  and  C_16
REMARK    5  A    between atoms: C_16  and  C_18
REMARK    6  A    between atoms: C_16  and  C_19
REMARK    7  A    between atoms: N_21  and  C_22
REMARK                            x       y       z     vdW  Elec       q    Type
REMARK                         _______ _______ _______ _____ _____    ______ ____
ROOT
ATOM      1  C   UNL     1       4.854   4.241  -0.251  0.00  0.00    +0.136 C 
ATOM      2  C   UNL     1       5.478   4.397   1.137  0.00  0.00    +0.029 C 
ENDROOT
BRANCH   1   3
ATOM      3  C   UNL     1       3.564   3.469  -0.138  0.00  0.00    +0.230 C 
ATOM      4  O   UNL     1       2.503   4.057  -0.139  0.00  0.00    -0.274 OA
ATOM      5  N   UNL     1       3.590   2.126  -0.035  0.00  0.00    -0.285 N 
ATOM      6  H   UNL     1       4.438   1.661   0.041  0.00  0.00    +0.155 HD
BRANCH   5   7
ATOM      7  C   UNL     1       2.392   1.400  -0.038  0.00  0.00    +0.035 A 
ATOM      8  C   UNL     1       2.287   0.231   0.707  0.00  0.00    +0.025 A 
ATOM      9  C   UNL     1       1.109  -0.489   0.708  0.00  0.00    +0.029 A 
ATOM     10  C   UNL     1       0.027  -0.045  -0.037  0.00  0.00    +0.067 A 
ATOM     11  C   UNL     1       0.129   1.128  -0.786  0.00  0.00    +0.069 A 
ATOM     12  C   UNL     1       1.313   1.849  -0.785  0.00  0.00    +0.051 A 
ATOM     13  N   UNL     1      -1.100   1.312  -1.417  0.00  0.00    -0.306 N 
ATOM     14  H   UNL     1      -1.331   2.047  -2.006  0.00  0.00    +0.170 HD
ATOM     15  C   UNL     1      -1.913   0.298  -1.067  0.00  0.00    +0.325 A 
ATOM     16  O   UNL     1      -3.061   0.158  -1.445  0.00  0.00    -0.247 OA
ATOM     17  N   UNL     1      -1.263  -0.538  -0.236  0.00  0.00    -0.306 N 
ATOM     18  H   UNL     1      -1.629  -1.346   0.158  0.00  0.00    +0.170 HD
ENDBRANCH   5   7
ENDBRANCH   1   3
BRANCH   1  19
ATOM     19  S   UNL     1       4.518   5.880  -0.951  0.00  0.00    -0.084 S 
BRANCH  19  24
ATOM     20  N   UNL     1       9.342   8.939  -1.946  0.00  0.00    -0.292 N 
ATOM     21  C   UNL     1       8.337   8.032  -1.627  0.00  0.00    +0.187 A 
ATOM     22  N   UNL     1       8.437   6.819  -1.118  0.00  0.00    -0.125 NA
ATOM     23  N   UNL     1       7.300   6.085  -0.871  0.00  0.00    -0.133 NA
ATOM     24  C   UNL     1       6.116   6.593  -1.155  0.00  0.00    +0.161 A 
ATOM     25  S   UNL     1       6.567   8.198  -1.796  0.00  0.00    -0.024 S 
ATOM     26  H   UNL     1       9.111   9.835  -2.239  0.00  0.00    +0.154 HD
BRANCH  20  31
ATOM     27  C   UNL     1      14.785   7.399  -1.538  0.00  0.00    +0.045 C 
ATOM     28  C   UNL     1      13.339   7.808  -1.646  0.00  0.00    -0.032 A 
ATOM     29  C   UNL     1      12.363   6.848  -1.839  0.00  0.00    +0.006 A 
ATOM     30  C   UNL     1      11.036   7.220  -1.939  0.00  0.00    +0.023 A 
ATOM     31  C   UNL     1      10.683   8.560  -1.845  0.00  0.00    +0.034 A 
ATOM     32  C   UNL     1      11.665   9.523  -1.657  0.00  0.00    +0.043 A 
ATOM     33  C   UNL     1      12.991   9.144  -1.552  0.00  0.00    +0.046 A 
ATOM     34 CL   UNL     1      14.220  10.346  -1.311  0.00  0.00    -0.083 Cl
ENDBRANCH  20  31
ENDBRANCH  19  24
ENDBRANCH   1  19
TORSDOF 5
