REMARK  Name = ZINC13639782
REMARK  5 active torsions:
REMARK  status: ('A' for Active; 'I' for Inactive)
REMARK    1  A    between atoms: C_1  and  C_2
REMARK    2  A    between atoms: C_4  and  N_26
REMARK    3  A    between atoms: C_9  and  C_18
REMARK    4  A    between atoms: C_21  and  O_25
REMARK    5  A    between atoms: C_23  and  O_24
REMARK                            x       y       z     vdW  Elec       q    Type
REMARK                         _______ _______ _______ _____ _____    ______ ____
ROOT
ATOM      1  C   UNL     1       5.066  -2.271   1.607  0.00  0.00    +0.046 C 
ATOM      2  C   UNL     1       4.834  -1.991   0.145  0.00  0.00    -0.027 A 
ATOM      3  C   UNL     1       5.801  -1.339  -0.592  0.00  0.00    +0.038 A 
ATOM      4  C   UNL     1       5.587  -1.085  -1.934  0.00  0.00    +0.127 A 
ATOM      5  C   UNL     1       4.409  -1.482  -2.533  0.00  0.00    +0.038 A 
ATOM      6  C   UNL     1       3.429  -2.138  -1.800  0.00  0.00    -0.017 A 
ATOM      7  C   UNL     1       3.643  -2.393  -0.458  0.00  0.00    +0.034 A 
ATOM      8  N   UNL     1       2.694  -3.072   0.337  0.00  0.00    -0.336 N 
ATOM      9  C   UNL     1       1.338  -2.832  -0.161  0.00  0.00    +0.108 C 
ATOM     10  C   UNL     1       1.219  -3.326  -1.594  0.00  0.00    +0.029 C 
ATOM     11  C   UNL     1       2.169  -2.539  -2.520  0.00  0.00    +0.049 C 
ATOM     12  C   UNL     1       2.539  -3.557  -3.586  0.00  0.00    -0.023 C 
ATOM     13  C   UNL     1       2.343  -4.774  -3.147  0.00  0.00    -0.030 C 
ATOM     14  C   UNL     1       1.794  -4.758  -1.719  0.00  0.00    +0.033 C 
ATOM     15  H   UNL     1       2.777  -2.796   1.304  0.00  0.00    +0.147 HD
ENDROOT
BRANCH   9  16
ATOM     16  C   UNL     1       1.042  -1.355  -0.115  0.00  0.00    +0.015 A 
ATOM     17  C   UNL     1       0.448  -0.736  -1.198  0.00  0.00    +0.012 A 
ATOM     18  C   UNL     1       0.175   0.618  -1.159  0.00  0.00    +0.046 A 
ATOM     19  C   UNL     1       0.497   1.360  -0.031  0.00  0.00    +0.120 A 
ATOM     20  C   UNL     1       1.094   0.741   1.057  0.00  0.00    +0.091 A 
ATOM     21  C   UNL     1       1.367  -0.618   1.015  0.00  0.00    +0.125 A 
BRANCH  21  22
ATOM     22  O   UNL     1       1.951  -1.227   2.080  0.00  0.00    -0.506 OA
ATOM     23  H   UNL     1       1.323  -1.574   2.728  0.00  0.00    +0.292 HD
ENDBRANCH  21  22
BRANCH  19  24
ATOM     24  O   UNL     1       0.229   2.691   0.008  0.00  0.00    -0.507 OA
ATOM     25  H   UNL     1       0.948   3.247  -0.321  0.00  0.00    +0.292 HD
ENDBRANCH  19  24
ENDBRANCH   9  16
BRANCH   4  26
ATOM     26  N   UNL     1       6.622  -0.387  -2.728  0.00  0.00    +0.056 N 
ATOM     27  O   UNL     1       7.662  -0.036  -2.200  0.00  0.00    -0.126 OA
ATOM     28  O   UNL     1       6.434  -0.162  -3.911  0.00  0.00    -0.126 OA
ENDBRANCH   4  26
TORSDOF 4
