REMARK  Name = ZINC21334126
REMARK  9 active torsions:
REMARK  status: ('A' for Active; 'I' for Inactive)
REMARK    1  A    between atoms: C_1  and  O_2
REMARK    2  A    between atoms: O_2  and  C_3
REMARK    3  A    between atoms: C_5  and  C_10
REMARK    4  A    between atoms: C_8  and  O_9
REMARK    5  A    between atoms: N_11  and  N_12
REMARK    6  A    between atoms: C_13  and  C_21
REMARK    7  A    between atoms: N_17  and  C_18
REMARK    8  A    between atoms: C_24  and  O_30
REMARK    9  A    between atoms: C_25  and  C_27
REMARK                            x       y       z     vdW  Elec       q    Type
REMARK                         _______ _______ _______ _____ _____    ______ ____
ROOT
ATOM      1  N   UNL     1       0.179  -4.953   1.178  0.00  0.00    -0.208 N 
ATOM      2  C   UNL     1      -0.160  -4.293   0.027  0.00  0.00    +0.082 A 
ATOM      3  C   UNL     1      -0.267  -4.980  -1.129  0.00  0.00    +0.077 A 
ATOM      4  S   UNL     1       0.113  -6.646  -0.615  0.00  0.00    -0.056 S 
ATOM      5  C   UNL     1       0.392  -6.316   1.118  0.00  0.00    +0.190 A 
ATOM      6  N   UNL     1       0.716  -7.146   2.077  0.00  0.00    -0.256 NA
ENDROOT
BRANCH   2   7
ATOM      7  C   UNL     1      -0.401  -2.834   0.049  0.00  0.00    +0.002 A 
ATOM      8  C   UNL     1      -0.913  -2.228   1.200  0.00  0.00    +0.013 A 
ATOM      9  C   UNL     1      -1.139  -0.869   1.227  0.00  0.00    +0.047 A 
ATOM     10  C   UNL     1      -0.861  -0.091   0.111  0.00  0.00    +0.129 A 
ATOM     11  C   UNL     1      -0.352  -0.690  -1.050  0.00  0.00    +0.078 A 
ATOM     12  C   UNL     1      -0.118  -2.065  -1.075  0.00  0.00    +0.026 A 
BRANCH  11  13
ATOM     13  C   UNL     1      -0.060   0.133  -2.240  0.00  0.00    +0.245 C 
ATOM     14  O   UNL     1      -0.261   1.332  -2.214  0.00  0.00    -0.270 OA
ATOM     15  N   UNL     1       0.429  -0.445  -3.355  0.00  0.00    -0.325 N 
ATOM     16  H   UNL     1       0.647   0.169  -4.242  0.00  0.00    +0.145 HD
ATOM     17  H   UNL     1       0.611  -1.529  -3.378  0.00  0.00    +0.145 HD
ENDBRANCH  11  13
BRANCH  10  18
ATOM     18  O   UNL     1      -1.086   1.246   0.143  0.00  0.00    -0.506 OA
ATOM     19  H   UNL     1      -0.865   1.862  -0.741  0.00  0.00    +0.292 HD
ENDBRANCH  10  18
ENDBRANCH   2   7
BRANCH   6  20
ATOM     20  C   UNL     1       0.900  -8.569   1.783  0.00  0.00    +0.108 C 
ATOM     21  C   UNL     1       1.076  -9.518   2.970  0.00  0.00    +0.029 C 
ATOM     22  C   UNL     1       2.272  -9.180   2.077  0.00  0.00    +0.029 C 
ENDBRANCH   6  20
BRANCH   1  24
ATOM     23  C   UNL     1       1.052  -4.738   3.337  0.00  0.00    +0.141 C 
ATOM     24  N   UNL     1       0.302  -4.261   2.390  0.00  0.00    -0.172 NA
BRANCH  23  27
ATOM     25  C   UNL     1       1.922  -3.964   6.906  0.00  0.00    +0.162 A 
ATOM     26  C   UNL     1       1.890  -4.591   5.675  0.00  0.00    +0.059 A 
ATOM     27  C   UNL     1       1.087  -4.076   4.654  0.00  0.00    -0.002 A 
ATOM     28  C   UNL     1       0.313  -2.937   4.886  0.00  0.00    +0.013 A 
ATOM     29  C   UNL     1       0.346  -2.320   6.119  0.00  0.00    +0.050 A 
ATOM     30  C   UNL     1       1.148  -2.828   7.131  0.00  0.00    +0.158 A 
BRANCH  25  32
ATOM     31  C   UNL     1       3.474  -5.627   7.601  0.00  0.00    +0.277 C 
ATOM     32  O   UNL     1       2.707  -4.459   7.901  0.00  0.00    -0.491 OA
ENDBRANCH  25  32
BRANCH  30  33
ATOM     33  O   UNL     1       1.177  -2.216   8.344  0.00  0.00    -0.503 OA
ATOM     34  H   UNL     1       0.565  -1.319   8.523  0.00  0.00    +0.292 HD
ENDBRANCH  30  33
ENDBRANCH  23  27
ENDBRANCH   1  24
TORSDOF 8
