REMARK  Name = ZINC40301949
REMARK  3 active torsions:
REMARK  status: ('A' for Active; 'I' for Inactive)
REMARK    1  A    between atoms: C_4  and  N_18
REMARK    2  A    between atoms: C_6  and  C_7
REMARK    3  A    between atoms: C_13  and  C_15
REMARK                            x       y       z     vdW  Elec       q    Type
REMARK                         _______ _______ _______ _____ _____    ______ ____
ROOT
ATOM      1  C   UNL     1      -1.266  -0.763   0.011  0.00  0.00    +0.247 C 
ATOM      2  O   UNL     1      -1.252  -1.973  -0.103  0.00  0.00    -0.270 OA
ATOM      3  N   UNL     1      -2.441  -0.111   0.128  0.00  0.00    -0.286 N 
ATOM      4  C   UNL     1      -2.613   1.353   0.143  0.00  0.00    +0.109 C 
ATOM      5  C   UNL     1      -4.070   1.586  -0.327  0.00  0.00    +0.021 C 
ATOM      6  C   UNL     1      -4.806   0.391   0.335  0.00  0.00    +0.033 C 
ATOM      7  C   UNL     1      -3.762  -0.743   0.254  0.00  0.00    +0.162 C 
ENDROOT
BRANCH   1  13
ATOM      8  C   UNL     1       1.141  -0.539  -0.588  0.00  0.00    +0.014 A 
ATOM      9  C   UNL     1       2.325   0.170  -0.579  0.00  0.00    +0.018 A 
ATOM     10  C   UNL     1       2.390   1.409   0.033  0.00  0.00    +0.039 A 
ATOM     11  C   UNL     1       1.261   1.949   0.641  0.00  0.00    +0.039 A 
ATOM     12  C   UNL     1       0.068   1.245   0.636  0.00  0.00    +0.037 A 
ATOM     13  C   UNL     1       0.003  -0.006   0.020  0.00  0.00    +0.039 A 
ATOM     14 BR   UNL     1       4.017   2.371   0.041  0.00  0.00    -0.048 Br
BRANCH  11  15
ATOM     15  N   UNL     1       1.331   3.201   1.258  0.00  0.00    -0.357 N 
ATOM     16  H   UNL     1       2.167   3.693   1.262  0.00  0.00    +0.142 HD
ATOM     17  H   UNL     1       0.545   3.577   1.683  0.00  0.00    +0.142 HD
ENDBRANCH  11  15
ENDBRANCH   1  13
BRANCH   7  18
ATOM     18  C   UNL     1      -3.815  -1.575   1.509  0.00  0.00    +0.231 C 
ATOM     19  O   UNL     1      -2.845  -1.640   2.235  0.00  0.00    -0.274 OA
ATOM     20  N   UNL     1      -4.939  -2.247   1.825  0.00  0.00    -0.328 N 
ATOM     21  H   UNL     1      -5.715  -2.196   1.245  0.00  0.00    +0.145 HD
ATOM     22  H   UNL     1      -4.973  -2.783   2.634  0.00  0.00    +0.145 HD
ENDBRANCH   7  18
TORSDOF 3
