REMARK  Name = ZINC57837017
REMARK  3 active torsions:
REMARK  status: ('A' for Active; 'I' for Inactive)
REMARK    1  A    between atoms: N_4  and  C_9
REMARK    2  A    between atoms: C_9  and  C_10
REMARK    3  A    between atoms: C_10  and  N_12
REMARK                            x       y       z     vdW  Elec       q    Type
REMARK                         _______ _______ _______ _____ _____    ______ ____
ROOT
ATOM      1  C   UNL     1      -0.016   1.360   0.009  0.00  0.00    +0.047 A 
ATOM      2  C   UNL     1       1.198   2.062   0.002  0.00  0.00    +0.059 A 
ATOM      3  C   UNL     1       2.370   1.385  -0.013  0.00  0.00    +0.109 A 
ATOM      4  N   UNL     1       2.386   0.027  -0.021  0.00  0.00    -0.307 N 
ATOM      5  C   UNL     1       1.238  -0.676  -0.013  0.00  0.00    +0.270 A 
ATOM      6  O   UNL     1       1.269  -1.896  -0.020  0.00  0.00    -0.266 OA
ATOM      7  C   UNL     1       0.002  -0.004   0.002  0.00  0.00    +0.107 A 
ATOM      8 CL   UNL     1      -1.484  -0.901   0.012  0.00  0.00    -0.078 Cl
ATOM      9 CL   UNL     1       1.198   3.799   0.010  0.00  0.00    -0.082 Cl
ENDROOT
BRANCH   4  10
ATOM     10  C   UNL     1       3.668  -0.682  -0.037  0.00  0.00    +0.183 C 
BRANCH  10  11
ATOM     11  C   UNL     1       4.122  -0.933   1.378  0.00  0.00    +0.066 C 
ATOM     12  S   UNL     1       3.225  -0.437   2.605  0.00  0.00    -0.039 S 
BRANCH  11  13
ATOM     13  N   UNL     1       5.284  -1.575   1.609  0.00  0.00    -0.354 N 
ATOM     14  H   UNL     1       5.829  -1.876   0.865  0.00  0.00    +0.143 HD
ATOM     15  H   UNL     1       5.576  -1.737   2.520  0.00  0.00    +0.143 HD
ENDBRANCH  11  13
ENDBRANCH  10  11
ENDBRANCH   4  10
TORSDOF 3
