REMARK  Name = ZINC10747169
REMARK  10 active torsions:
REMARK  status: ('A' for Active; 'I' for Inactive)
REMARK    1  A    between atoms: C_1  and  C_2
REMARK    2  A    between atoms: C_4  and  N_14
REMARK    3  A    between atoms: C_7  and  N_8
REMARK    4  A    between atoms: N_14  and  C_15
REMARK    5  A    between atoms: C_15  and  C_17
REMARK    6  A    between atoms: C_15  and  C_18
REMARK    7  A    between atoms: C_18  and  C_20
REMARK    8  A    between atoms: C_21  and  N_30
REMARK    9  A    between atoms: N_22  and  C_29
REMARK   10  A    between atoms: N_25  and  C_28
REMARK                            x       y       z     vdW  Elec       q    Type
REMARK                         _______ _______ _______ _____ _____    ______ ____
ROOT
ATOM      1  C   UNL     1      -3.722   1.748  -0.012  0.00  0.00    +0.139 C 
ATOM      2  C   UNL     1      -4.133   2.090  -1.446  0.00  0.00    +0.036 C 
ENDROOT
BRANCH   1   3
ATOM      3  N   UNL     1      -2.440   1.038  -0.027  0.00  0.00    -0.334 N 
ATOM      4  H   UNL     1      -2.423   0.068  -0.017  0.00  0.00    +0.147 HD
BRANCH   3   8
ATOM      5  C   UNL     1       2.474   1.069  -0.124  0.00  0.00    +0.046 C 
ATOM      6  C   UNL     1       1.155   1.799  -0.103  0.00  0.00    -0.027 A 
ATOM      7  C   UNL     1      -0.027   1.087  -0.070  0.00  0.00    +0.028 A 
ATOM      8  C   UNL     1      -1.242   1.759  -0.055  0.00  0.00    +0.028 A 
ATOM      9  C   UNL     1      -1.267   3.148  -0.064  0.00  0.00    +0.025 A 
ATOM     10  C   UNL     1      -0.085   3.860  -0.098  0.00  0.00    +0.025 A 
ATOM     11  C   UNL     1       1.130   3.187  -0.118  0.00  0.00    +0.039 A 
BRANCH  11  12
ATOM     12  N   UNL     1       2.330   3.910  -0.152  0.00  0.00    -0.271 N 
ATOM     13  C   UNL     1       3.016   4.319  -1.384  0.00  0.00    +0.114 C 
ATOM     14  C   UNL     1       4.004   5.428  -0.954  0.00  0.00    +0.029 C 
ATOM     15  C   UNL     1       4.247   5.073   0.531  0.00  0.00    +0.098 C 
ATOM     16  C   UNL     1       3.005   4.312   0.939  0.00  0.00    +0.220 C 
ATOM     17  O   UNL     1       2.666   4.097   2.083  0.00  0.00    -0.275 OA
ENDBRANCH  11  12
ENDBRANCH   3   8
ENDBRANCH   1   3
BRANCH   1  18
ATOM     18  C   UNL     1      -4.774   0.871   0.616  0.00  0.00    +0.191 C 
ATOM     19  O   UNL     1      -4.566  -0.317   0.763  0.00  0.00    -0.290 OA
BRANCH  18  20
ATOM     20  C   UNL     1      -6.001   1.429   1.033  0.00  0.00    +0.122 A 
ATOM     21  C   UNL     1      -7.045   0.615   1.506  0.00  0.00    +0.116 A 
ATOM     22  N   UNL     1      -8.213   1.202   1.904  0.00  0.00    -0.284 N 
ATOM     23  C   UNL     1      -8.381   2.532   1.840  0.00  0.00    +0.333 A 
ATOM     24  O   UNL     1      -9.441   3.006   2.202  0.00  0.00    -0.246 OA
ATOM     25  N   UNL     1      -7.422   3.359   1.393  0.00  0.00    -0.263 N 
ATOM     26  C   UNL     1      -6.231   2.879   0.982  0.00  0.00    +0.269 A 
ATOM     27  O   UNL     1      -5.364   3.631   0.576  0.00  0.00    -0.267 OA
ATOM     28  C   UNL     1      -7.673   4.802   1.351  0.00  0.00    +0.157 C 
ATOM     29  C   UNL     1      -9.305   0.363   2.403  0.00  0.00    +0.155 C 
BRANCH  21  30
ATOM     30  N   UNL     1      -6.894  -0.736   1.572  0.00  0.00    -0.344 N 
ATOM     31  H   UNL     1      -6.036  -1.138   1.365  0.00  0.00    +0.144 HD
ATOM     32  H   UNL     1      -7.644  -1.296   1.825  0.00  0.00    +0.144 HD
ENDBRANCH  21  30
ENDBRANCH  18  20
ENDBRANCH   1  18
TORSDOF 6
