REMARK  Name = ZINC06527186
REMARK  4 active torsions:
REMARK  status: ('A' for Active; 'I' for Inactive)
REMARK    1  A    between atoms: C_3  and  C_6
REMARK    2  A    between atoms: C_8  and  C_18
REMARK    3  A    between atoms: C_11  and  S_16
REMARK    4  A    between atoms: C_12  and  C_13
REMARK                            x       y       z     vdW  Elec       q    Type
REMARK                         _______ _______ _______ _____ _____    ______ ____
ROOT
ATOM      1  C   UNL     1      -0.053   3.715  -0.741  0.00  0.00    +0.087 C 
ATOM      2  C   UNL     1       1.197   2.979  -0.355  0.00  0.00    +0.167 C 
ATOM      3  C   UNL     1       1.171   1.667  -0.009  0.00  0.00    +0.112 C 
ATOM      4  N   UNL     1      -0.012   0.965   0.003  0.00  0.00    -0.229 NA
ATOM      5  C   UNL     1      -1.211   1.636   0.017  0.00  0.00    +0.104 C 
ATOM      6  C   UNL     1      -1.277   2.951  -0.324  0.00  0.00    +0.055 C 
ATOM      7  N   UNL     1       2.341   1.032   0.333  0.00  0.00    -0.345 N 
ATOM      8  H   UNL     1       2.329   0.094   0.581  0.00  0.00    +0.143 HD
ATOM      9  H   UNL     1       3.178   1.521   0.326  0.00  0.00    +0.143 HD
ENDROOT
BRANCH   1  12
ATOM     10  C   UNL     1      -0.110   4.968  -4.338  0.00  0.00    +0.008 A 
ATOM     11  C   UNL     1      -0.102   5.043  -2.958  0.00  0.00    +0.012 A 
ATOM     12  C   UNL     1      -0.069   3.896  -2.237  0.00  0.00    -0.001 A 
ATOM     13  S   UNL     1      -0.040   2.655  -3.521  0.00  0.00    -0.101 S 
ATOM     14  C   UNL     1      -0.084   3.749  -4.930  0.00  0.00    +0.045 A 
ENDBRANCH   1  12
BRANCH   6  15
ATOM     15  C   UNL     1      -2.516   3.609  -0.285  0.00  0.00    +0.241 C 
ATOM     16  O   UNL     1      -3.517   3.003   0.057  0.00  0.00    -0.271 OA
ATOM     17  N   UNL     1      -2.598   4.911  -0.624  0.00  0.00    -0.326 N 
ATOM     18  H   UNL     1      -1.801   5.393  -0.896  0.00  0.00    +0.145 HD
ATOM     19  H   UNL     1      -3.454   5.366  -0.597  0.00  0.00    +0.145 HD
ENDBRANCH   6  15
BRANCH   5  20
ATOM     20  S   UNL     1      -2.682   0.784   0.481  0.00  0.00    -0.123 S 
ATOM     21  H   UNL     1      -2.151  -0.496   0.744  0.00  0.00    +0.109 HD
ENDBRANCH   5  20
BRANCH   2  22
ATOM     22  C   UNL     1       2.445   3.680  -0.347  0.00  0.00    +0.074 C 
ATOM     23  N   UNL     1       3.436   4.237  -0.341  0.00  0.00    -0.196 NA
ENDBRANCH   2  22
TORSDOF 4
