REMARK  Name = ZINC46711036
REMARK  7 active torsions:
REMARK  status: ('A' for Active; 'I' for Inactive)
REMARK    1  A    between atoms: C_3  and  C_24
REMARK    2  A    between atoms: C_5  and  N_7
REMARK    3  A    between atoms: C_8  and  C_10
REMARK    4  A    between atoms: C_11  and  C_12
REMARK    5  A    between atoms: C_15  and  C_17
REMARK    6  A    between atoms: N_26  and  C_27
REMARK    7  A    between atoms: C_27  and  C_28
REMARK                            x       y       z     vdW  Elec       q    Type
REMARK                         _______ _______ _______ _____ _____    ______ ____
ROOT
ATOM      1  N   UNL     1       1.226  -2.086  -0.021  0.00  0.00    -0.282 N 
ATOM      2  C   UNL     1       0.071  -2.772   0.088  0.00  0.00    +0.241 C 
ATOM      3  O   UNL     1      -0.992  -2.176   0.102  0.00  0.00    -0.270 OA
ATOM      4  H   UNL     1       2.067  -2.562  -0.110  0.00  0.00    +0.155 HD
ENDROOT
BRANCH   1   9
ATOM      5  C   UNL     1       2.133   1.406  -0.749  0.00  0.00    +0.003 A 
ATOM      6  C   UNL     1       1.203   2.089   0.009  0.00  0.00    +0.013 A 
ATOM      7  C   UNL     1       0.267   1.384   0.768  0.00  0.00    +0.038 A 
ATOM      8  C   UNL     1       0.276  -0.011   0.757  0.00  0.00    +0.036 A 
ATOM      9  C   UNL     1       1.213  -0.687  -0.007  0.00  0.00    +0.034 A 
ATOM     10  C   UNL     1       2.141   0.024  -0.759  0.00  0.00    +0.023 A 
BRANCH   7  11
ATOM     11  C   UNL     1      -0.730   2.114   1.581  0.00  0.00    +0.245 C 
ATOM     12  O   UNL     1      -1.544   1.498   2.241  0.00  0.00    -0.270 OA
ATOM     13  N   UNL     1      -0.735   3.462   1.590  0.00  0.00    -0.303 N 
ATOM     14  H   UNL     1      -0.086   3.953   1.063  0.00  0.00    +0.150 HD
BRANCH  13  15
ATOM     15  C   UNL     1      -1.723   4.184   2.395  0.00  0.00    +0.200 C 
BRANCH  15  16
ATOM     16  C   UNL     1      -1.516   5.668   2.232  0.00  0.00    +0.228 C 
ATOM     17  O   UNL     1      -0.630   6.081   1.513  0.00  0.00    -0.274 OA
ATOM     18  N   UNL     1      -2.314   6.536   2.884  0.00  0.00    -0.328 N 
ATOM     19  H   UNL     1      -3.022   6.205   3.459  0.00  0.00    +0.145 HD
ATOM     20  H   UNL     1      -2.181   7.491   2.779  0.00  0.00    +0.145 HD
ENDBRANCH  15  16
ENDBRANCH  13  15
ENDBRANCH   7  11
ENDBRANCH   1   9
BRANCH   2  21
ATOM     21  C   UNL     1       0.093  -4.181   0.186  0.00  0.00    +0.068 C 
ATOM     22  C   UNL     1      -1.071  -4.873   0.297  0.00  0.00    +0.020 C 
BRANCH  22  23
ATOM     23  C   UNL     1      -1.049  -6.283   0.395  0.00  0.00    +0.013 A 
ATOM     24  C   UNL     1      -2.117  -7.168   0.508  0.00  0.00    +0.016 A 
ATOM     25  C   UNL     1      -1.851  -8.505   0.589  0.00  0.00    +0.017 A 
ATOM     26  C   UNL     1      -0.531  -8.928   0.555  0.00  0.00    +0.020 A 
ATOM     27  S   UNL     1       0.355  -7.386   0.398  0.00  0.00    -0.089 S 
BRANCH  26  28
ATOM     28  C   UNL     1       0.005 -10.302   0.625  0.00  0.00    -0.011 A 
ATOM     29  C   UNL     1      -0.865 -11.389   0.737  0.00  0.00    +0.010 A 
ATOM     30  C   UNL     1      -0.358 -12.670   0.802  0.00  0.00    +0.020 A 
ATOM     31  C   UNL     1       1.010 -12.880   0.756  0.00  0.00    +0.041 A 
ATOM     32  C   UNL     1       1.878 -11.806   0.646  0.00  0.00    +0.020 A 
ATOM     33  C   UNL     1       1.383 -10.520   0.574  0.00  0.00    +0.010 A 
ATOM     34 CL   UNL     1       1.640 -14.495   0.838  0.00  0.00    -0.084 Cl
ENDBRANCH  26  28
ENDBRANCH  22  23
ENDBRANCH   2  21
TORSDOF 7
