REMARK  Name = ZINC20220868
REMARK  10 active torsions:
REMARK  status: ('A' for Active; 'I' for Inactive)
REMARK    1  A    between atoms: C_1  and  O_2
REMARK    2  A    between atoms: O_2  and  C_3
REMARK    3  A    between atoms: C_3  and  C_5
REMARK    4  A    between atoms: C_8  and  N_11
REMARK    5  A    between atoms: C_12  and  C_14
REMARK    6  A    between atoms: C_14  and  S_15
REMARK    7  A    between atoms: S_15  and  C_16
REMARK    8  A    between atoms: N_26  and  C_27
REMARK    9  A    between atoms: C_27  and  C_28
REMARK   10  A    between atoms: C_28  and  C_29
REMARK                            x       y       z     vdW  Elec       q    Type
REMARK                         _______ _______ _______ _____ _____    ______ ____
ROOT
ATOM      1  C   UNL     1       4.007   1.921   0.342  0.00  0.00    +0.212 A 
ATOM      2  N   UNL     1       5.241   1.454   0.484  0.00  0.00    -0.201 NA
ATOM      3  C   UNL     1       6.266   2.299   0.436  0.00  0.00    +0.165 A 
ATOM      4  C   UNL     1       5.995   3.670   0.246  0.00  0.00    +0.138 A 
ATOM      5  C   UNL     1       7.300   4.353   0.242  0.00  0.00    +0.029 A 
ATOM      6  C   UNL     1       7.688   5.683   0.098  0.00  0.00    +0.012 A 
ATOM      7  C   UNL     1       9.025   6.015   0.138  0.00  0.00    +0.001 A 
ATOM      8  C   UNL     1       9.983   5.031   0.323  0.00  0.00    +0.002 A 
ATOM      9  C   UNL     1       9.614   3.711   0.467  0.00  0.00    +0.026 A 
ATOM     10  C   UNL     1       8.269   3.356   0.428  0.00  0.00    +0.053 A 
ATOM     11  N   UNL     1       7.625   2.134   0.542  0.00  0.00    -0.323 N 
ATOM     12  N   UNL     1       4.740   4.074   0.117  0.00  0.00    -0.143 NA
ATOM     13  N   UNL     1       3.777   3.218   0.164  0.00  0.00    -0.122 NA
ENDROOT
BRANCH   1  14
ATOM     14  S   UNL     1       2.647   0.802   0.399  0.00  0.00    -0.075 S 
BRANCH  14  15
ATOM     15  C   UNL     1       1.277   1.961   0.166  0.00  0.00    +0.173 C 
BRANCH  15  17
ATOM     16  N   UNL     1      -1.191   1.867   0.018  0.00  0.00    -0.285 N 
ATOM     17  C   UNL     1      -0.027   1.205   0.180  0.00  0.00    +0.227 C 
ATOM     18  O   UNL     1      -0.030   0.002   0.332  0.00  0.00    -0.275 OA
ATOM     19  H   UNL     1      -1.196   2.965  -0.033  0.00  0.00    +0.155 HD
BRANCH  16  23
ATOM     20  C   UNL     1      -4.764  -0.251  -0.292  0.00  0.00    +0.059 A 
ATOM     21  C   UNL     1      -4.744   1.004   0.325  0.00  0.00    +0.017 A 
ATOM     22  C   UNL     1      -3.561   1.700   0.426  0.00  0.00    +0.024 A 
ATOM     23  C   UNL     1      -2.387   1.158  -0.086  0.00  0.00    +0.033 A 
ATOM     24  C   UNL     1      -2.404  -0.088  -0.705  0.00  0.00    +0.024 A 
ATOM     25  C   UNL     1      -3.582  -0.793  -0.805  0.00  0.00    +0.017 A 
BRANCH  20  26
ATOM     26  C   UNL     1      -6.029  -1.001  -0.401  0.00  0.00    +0.339 C 
ATOM     27  O   UNL     1      -7.056  -0.528   0.045  0.00  0.00    -0.245 OA
BRANCH  26  29
ATOM     28  C   UNL     1      -7.327  -2.890  -1.069  0.00  0.00    +0.280 C 
ATOM     29  O   UNL     1      -6.047  -2.209  -0.997  0.00  0.00    -0.464 OA
ENDBRANCH  26  29
ENDBRANCH  20  26
ENDBRANCH  16  23
ENDBRANCH  15  17
ENDBRANCH  14  15
ENDBRANCH   1  14
BRANCH  11  30
ATOM     30  C   UNL     1       8.298   0.849   0.746  0.00  0.00    +0.128 C 
BRANCH  30  31
ATOM     31  C   UNL     1       8.443   0.582   2.246  0.00  0.00    +0.057 C 
BRANCH  31  32
ATOM     32  C   UNL     1       9.135  -0.740   2.455  0.00  0.00    -0.046 A 
ATOM     33  C   UNL     1       8.392  -1.901   2.561  0.00  0.00    +0.004 A 
ATOM     34  C   UNL     1       9.027  -3.114   2.748  0.00  0.00    +0.000 A 
ATOM     35  C   UNL     1      10.406  -3.165   2.841  0.00  0.00    +0.000 A 
ATOM     36  C   UNL     1      11.149  -2.004   2.741  0.00  0.00    +0.000 A 
ATOM     37  C   UNL     1      10.514  -0.791   2.548  0.00  0.00    +0.004 A 
ENDBRANCH  31  32
ENDBRANCH  30  31
ENDBRANCH  11  30
TORSDOF 9
