REMARK  Name = ZINC00719864
REMARK  10 active torsions:
REMARK  status: ('A' for Active; 'I' for Inactive)
REMARK    1  A    between atoms: C_1  and  O_2
REMARK    2  A    between atoms: O_2  and  C_3
REMARK    3  A    between atoms: C_6  and  C_11
REMARK    4  A    between atoms: C_8  and  O_9
REMARK    5  A    between atoms: O_9  and  C_10
REMARK    6  A    between atoms: C_13  and  C_35
REMARK    7  A    between atoms: C_18  and  C_20
REMARK    8  A    between atoms: C_20  and  O_22
REMARK    9  A    between atoms: O_22  and  C_23
REMARK   10  A    between atoms: C_23  and  C_24
REMARK                            x       y       z     vdW  Elec       q    Type
REMARK                         _______ _______ _______ _____ _____    ______ ____
ROOT
ATOM      1  C   UNL     1      -0.794   5.910   0.039  0.00  0.00    +0.075 A 
ATOM      2  C   UNL     1       0.620   5.941   0.026  0.00  0.00    +0.060 A 
ATOM      3  C   UNL     1       1.307   4.778   0.015  0.00  0.00    +0.149 A 
ATOM      4  N   UNL     1       0.621   3.594   0.015  0.00  0.00    -0.209 N 
ATOM      5  C   UNL     1      -0.752   3.598   0.028  0.00  0.00    +0.157 A 
ATOM      6  N   UNL     1      -1.431   4.753   0.040  0.00  0.00    -0.228 NA
ATOM      7  C   UNL     1      -1.166   2.274   0.019  0.00  0.00    +0.085 A 
ATOM      8  C   UNL     1      -0.018   1.473   0.010  0.00  0.00    +0.172 A 
ATOM      9  N   UNL     1       1.047   2.260   0.004  0.00  0.00    -0.158 NA
ENDROOT
BRANCH   1  13
ATOM     10  C   UNL     1      -2.994   9.551   0.077  0.00  0.00    +0.162 A 
ATOM     11  C   UNL     1      -1.607   9.579   0.064  0.00  0.00    +0.050 A 
ATOM     12  C   UNL     1      -0.891   8.400   0.058  0.00  0.00    +0.014 A 
ATOM     13  C   UNL     1      -1.562   7.176   0.052  0.00  0.00    +0.004 A 
ATOM     14  C   UNL     1      -2.957   7.148   0.065  0.00  0.00    +0.059 A 
ATOM     15  C   UNL     1      -3.669   8.333   0.077  0.00  0.00    +0.162 A 
BRANCH  10  17
ATOM     16  C   UNL     1      -2.939  11.928   0.087  0.00  0.00    +0.277 C 
ATOM     17  O   UNL     1      -3.695  10.715   0.089  0.00  0.00    -0.491 OA
ENDBRANCH  10  17
BRANCH  15  18
ATOM     18  O   UNL     1      -5.029   8.309   0.089  0.00  0.00    -0.491 OA
ATOM     19  C   UNL     1      -5.655   7.024   0.089  0.00  0.00    +0.277 C 
ENDBRANCH  15  18
ENDBRANCH   1  13
BRANCH   3  20
ATOM     20  C   UNL     1       2.814   4.785   0.000  0.00  0.00    +0.434 C 
ATOM     21  F   UNL     1       3.268   4.793  -1.323  0.00  0.00    -0.164 F 
ATOM     22  F   UNL     1       3.282   5.925   0.661  0.00  0.00    -0.164 F 
ATOM     23  F   UNL     1       3.292   3.641   0.649  0.00  0.00    -0.164 F 
ENDBRANCH   3  20
BRANCH   8  24
ATOM     24  C   UNL     1       0.002  -0.004   0.002  0.00  0.00    +0.360 C 
ATOM     25  O   UNL     1      -1.042  -0.626   0.008  0.00  0.00    -0.243 OA
BRANCH  24  26
ATOM     26  O   UNL     1       1.178  -0.662  -0.012  0.00  0.00    -0.460 OA
BRANCH  26  27
ATOM     27  C   UNL     1       1.121  -2.112  -0.019  0.00  0.00    +0.234 C 
BRANCH  27  28
ATOM     28  C   UNL     1       2.543  -2.678  -0.035  0.00  0.00    +0.013 C 
ATOM     29  C   UNL     1       3.252  -2.307   1.267  0.00  0.00    +0.003 C 
ATOM     30  C   UNL     1       4.657  -2.918   1.253  0.00  0.00    -0.018 C 
ATOM     31  C   UNL     1       4.533  -4.434   1.104  0.00  0.00    -0.078 C 
ATOM     32  C   UNL     1       2.483  -4.202  -0.179  0.00  0.00    -0.062 C 
ATOM     33  C   UNL     1       1.807  -4.528  -1.515  0.00  0.00    -0.015 C 
ATOM     34  C   UNL     1       1.766  -6.043  -1.720  0.00  0.00    -0.003 C 
ATOM     35  C   UNL     1       3.199  -6.584  -1.676  0.00  0.00    -0.019 C 
ATOM     36  C   UNL     1       3.821  -6.225  -0.327  0.00  0.00    -0.078 C 
ATOM     37  N   UNL     1       3.859  -4.761  -0.167  0.00  0.00    +0.382 N 
ATOM     38  H   UNL     1       4.390  -4.351  -0.945  0.00  0.00    -0.081 HD
ENDBRANCH  27  28
ENDBRANCH  26  27
ENDBRANCH  24  26
ENDBRANCH   8  24
TORSDOF 8
