REMARK  Name = ZINC20475497
REMARK  6 active torsions:
REMARK  status: ('A' for Active; 'I' for Inactive)
REMARK    1  A    between atoms: C_1  and  C_2
REMARK    2  A    between atoms: C_5  and  N_20
REMARK    3  A    between atoms: C_6  and  C_19
REMARK    4  A    between atoms: C_7  and  N_8
REMARK    5  A    between atoms: N_8  and  S_9
REMARK    6  A    between atoms: S_9  and  C_12
REMARK                            x       y       z     vdW  Elec       q    Type
REMARK                         _______ _______ _______ _____ _____    ______ ____
ROOT
ATOM      1  N   UNL     1       1.440   1.157   2.539  0.00  0.00    -0.216 N 
ATOM      2  H   UNL     1       2.284   1.209   1.836  0.00  0.00    +0.174 HD
ENDROOT
BRANCH   1   9
ATOM      3  C   UNL     1       0.749   3.453   4.067  0.00  0.00    +0.046 C 
ATOM      4  C   UNL     1      -0.136   2.935   2.963  0.00  0.00    -0.028 A 
ATOM      5  C   UNL     1      -1.322   3.580   2.668  0.00  0.00    +0.007 A 
ATOM      6  C   UNL     1      -2.136   3.108   1.657  0.00  0.00    +0.023 A 
ATOM      7  C   UNL     1      -1.762   1.985   0.928  0.00  0.00    +0.029 A 
ATOM      8  C   UNL     1      -0.575   1.331   1.225  0.00  0.00    -0.007 A 
ATOM      9  C   UNL     1       0.241   1.808   2.242  0.00  0.00    +0.056 A 
ATOM     10  C   UNL     1      -0.169   0.110   0.441  0.00  0.00    +0.047 C 
BRANCH   7  11
ATOM     11  N   UNL     1      -2.583   1.512  -0.098  0.00  0.00    -0.358 N 
ATOM     12  H   UNL     1      -2.287   0.623  -0.674  0.00  0.00    +0.142 HD
ATOM     13  H   UNL     1      -3.526   2.029  -0.330  0.00  0.00    +0.142 HD
ENDBRANCH   7  11
ENDBRANCH   1   9
BRANCH   1  14
ATOM     14  S   UNL     1       1.591   0.305   3.952  0.00  0.00    +0.073 S 
ATOM     15  O   UNL     1       2.980   0.066   4.135  0.00  0.00    -0.150 OA
ATOM     16  O   UNL     1       0.801   0.981   4.920  0.00  0.00    -0.150 OA
BRANCH  14  17
ATOM     17  C   UNL     1       0.838  -1.267   3.695  0.00  0.00    +0.122 A 
ATOM     18  C   UNL     1       1.623  -2.398   3.575  0.00  0.00    +0.030 A 
ATOM     19  C   UNL     1       1.032  -3.632   3.378  0.00  0.00    +0.002 A 
ATOM     20  C   UNL     1      -0.344  -3.734   3.292  0.00  0.00    +0.001 A 
ATOM     21  C   UNL     1      -1.129  -2.603   3.408  0.00  0.00    +0.017 A 
ATOM     22  C   UNL     1      -0.539  -1.369   3.609  0.00  0.00    +0.044 A 
ATOM     23 BR   UNL     1      -1.613   0.179   3.767  0.00  0.00    -0.048 Br
ENDBRANCH  14  17
ENDBRANCH   1  14
TORSDOF 4
