REMARK  Name = ZINC48120753
REMARK  11 active torsions:
REMARK  status: ('A' for Active; 'I' for Inactive)
REMARK    1  A    between atoms: C_1  and  C_2
REMARK    2  A    between atoms: C_4  and  O_24
REMARK    3  A    between atoms: C_7  and  N_8
REMARK    4  A    between atoms: N_11  and  C_12
REMARK    5  A    between atoms: C_12  and  C_13
REMARK    6  A    between atoms: C_13  and  C_14
REMARK    7  A    between atoms: C_17  and  S_20
REMARK    8  A    between atoms: S_20  and  N_23
REMARK    9  A    between atoms: O_24  and  C_25
REMARK   10  A    between atoms: C_25  and  C_26
REMARK   11  A    between atoms: C_25  and  C_27
REMARK                            x       y       z     vdW  Elec       q    Type
REMARK                         _______ _______ _______ _____ _____    ______ ____
ROOT
ATOM      1  N   UNL     1       0.033  -0.036   2.414  0.00  0.00    -0.269 N 
ATOM      2  C   UNL     1       0.151  -0.679   3.593  0.00  0.00    +0.304 C 
ATOM      3  O   UNL     1       0.349  -1.878   3.614  0.00  0.00    -0.253 OA
ATOM      4  N   UNL     1       0.049   0.008   4.748  0.00  0.00    -0.299 N 
ATOM      5  H   UNL     1      -0.068   0.928   2.395  0.00  0.00    +0.156 HD
ATOM      6  H   UNL     1      -0.109   0.965   4.731  0.00  0.00    +0.150 HD
ENDROOT
BRANCH   1  13
ATOM      7  C   UNL     1      -1.282   1.073   0.149  0.00  0.00    +0.046 C 
ATOM      8  C   UNL     1      -0.575  -0.256   0.086  0.00  0.00    -0.026 A 
ATOM      9  C   UNL     1      -0.547  -0.969  -1.097  0.00  0.00    +0.050 A 
ATOM     10  C   UNL     1       0.104  -2.192  -1.155  0.00  0.00    +0.121 A 
ATOM     11  C   UNL     1       0.728  -2.701  -0.025  0.00  0.00    +0.047 A 
ATOM     12  C   UNL     1       0.701  -1.990   1.158  0.00  0.00    +0.027 A 
ATOM     13  C   UNL     1       0.055  -0.762   1.215  0.00  0.00    +0.038 A 
BRANCH  10  14
ATOM     14  O   UNL     1       0.130  -2.893  -2.320  0.00  0.00    -0.489 OA
BRANCH  14  15
ATOM     15  C   UNL     1       0.914  -4.088  -2.340  0.00  0.00    +0.167 C 
ATOM     16  C   UNL     1       0.083  -5.252  -1.797  0.00  0.00    +0.051 C 
ATOM     17  C   UNL     1       1.341  -4.393  -3.777  0.00  0.00    +0.051 C 
ENDBRANCH  14  15
ENDBRANCH  10  14
ENDBRANCH   1  13
BRANCH   4  18
ATOM     18  C   UNL     1       0.177  -0.691   6.029  0.00  0.00    +0.110 C 
BRANCH  18  19
ATOM     19  C   UNL     1       0.024   0.312   7.175  0.00  0.00    +0.054 C 
BRANCH  19  20
ATOM     20  C   UNL     1       0.155  -0.406   8.492  0.00  0.00    -0.046 A 
ATOM     21  C   UNL     1      -0.965  -0.936   9.106  0.00  0.00    +0.005 A 
ATOM     22  C   UNL     1      -0.844  -1.595  10.315  0.00  0.00    +0.029 A 
ATOM     23  C   UNL     1       0.397  -1.725  10.910  0.00  0.00    +0.105 A 
ATOM     24  C   UNL     1       1.517  -1.197  10.296  0.00  0.00    +0.029 A 
ATOM     25  C   UNL     1       1.397  -0.541   9.085  0.00  0.00    +0.005 A 
BRANCH  23  26
ATOM     26  S   UNL     1       0.551  -2.564  12.452  0.00  0.00    +0.056 S 
ATOM     27  O   UNL     1       1.737  -2.075  13.064  0.00  0.00    -0.153 OA
ATOM     28  O   UNL     1      -0.719  -2.489  13.084  0.00  0.00    -0.153 OA
BRANCH  26  29
ATOM     29  N   UNL     1       0.818  -4.163  12.114  0.00  0.00    -0.204 NA
ATOM     30  H   UNL     1       0.861  -4.464  11.193  0.00  0.00    +0.144 HD
ATOM     31  H   UNL     1       0.931  -4.800  12.838  0.00  0.00    +0.144 HD
ENDBRANCH  26  29
ENDBRANCH  23  26
ENDBRANCH  19  20
ENDBRANCH  18  19
ENDBRANCH   4  18
TORSDOF 8
