REMARK  Name = ZINC16319469
REMARK  12 active torsions:
REMARK  status: ('A' for Active; 'I' for Inactive)
REMARK    1  A    between atoms: C_1  and  C_2
REMARK    2  A    between atoms: C_2  and  O_3
REMARK    3  A    between atoms: O_3  and  C_4
REMARK    4  A    between atoms: C_9  and  N_10
REMARK    5  A    between atoms: N_10  and  C_11
REMARK    6  A    between atoms: N_10  and  S_28
REMARK    7  A    between atoms: C_11  and  C_12
REMARK    8  A    between atoms: N_17  and  C_20
REMARK    9  A    between atoms: C_25  and  O_26
REMARK   10  A    between atoms: O_26  and  C_27
REMARK   11  A    between atoms: S_28  and  C_31
REMARK   12  A    between atoms: C_34  and  C_37
REMARK                            x       y       z     vdW  Elec       q    Type
REMARK                         _______ _______ _______ _____ _____    ______ ____
ROOT
ATOM      1  N   UNL     1       3.703   4.212   2.893  0.00  0.00    -0.191 N 
ENDROOT
BRANCH   1   7
ATOM      2  C   UNL     1       5.913   3.302   3.265  0.00  0.00    +0.143 A 
ATOM      3  C   UNL     1       7.287   3.392   3.114  0.00  0.00    +0.047 A 
ATOM      4  C   UNL     1       7.840   4.468   2.445  0.00  0.00    +0.004 A 
ATOM      5  C   UNL     1       7.025   5.457   1.926  0.00  0.00    +0.002 A 
ATOM      6  C   UNL     1       5.653   5.372   2.068  0.00  0.00    +0.028 A 
ATOM      7  C   UNL     1       5.092   4.298   2.743  0.00  0.00    +0.093 A 
BRANCH   2   8
ATOM      8  O   UNL     1       5.368   2.243   3.922  0.00  0.00    -0.490 OA
BRANCH   8  10
ATOM      9  C   UNL     1       5.480   0.154   5.133  0.00  0.00    +0.048 C 
ATOM     10  C   UNL     1       6.272   1.260   4.431  0.00  0.00    +0.226 C 
ENDBRANCH   8  10
ENDBRANCH   2   8
ENDBRANCH   1   7
BRANCH   1  11
ATOM     11  S   UNL     1       2.983   4.773   4.275  0.00  0.00    +0.075 S 
ATOM     12  O   UNL     1       3.866   5.739   4.829  0.00  0.00    -0.150 OA
ATOM     13  O   UNL     1       1.637   5.076   3.938  0.00  0.00    -0.150 OA
BRANCH  11  14
ATOM     14  C   UNL     1       2.927   3.430   5.415  0.00  0.00    +0.109 A 
ATOM     15  C   UNL     1       1.831   2.588   5.437  0.00  0.00    +0.029 A 
ATOM     16  C   UNL     1       1.789   1.532   6.328  0.00  0.00    +0.005 A 
ATOM     17  C   UNL     1       2.838   1.323   7.203  0.00  0.00    -0.050 A 
ATOM     18  C   UNL     1       3.932   2.168   7.184  0.00  0.00    +0.005 A 
ATOM     19  C   UNL     1       3.976   3.222   6.290  0.00  0.00    +0.029 A 
ATOM     20  C   UNL     1       2.790   0.175   8.178  0.00  0.00    +0.044 C 
ENDBRANCH  11  14
ENDBRANCH   1  11
BRANCH   1  21
ATOM     21  C   UNL     1       2.885   3.626   1.828  0.00  0.00    +0.227 C 
BRANCH  21  22
ATOM     22  C   UNL     1       2.850   2.128   1.988  0.00  0.00    +0.235 C 
ATOM     23  O   UNL     1       3.449   1.602   2.901  0.00  0.00    -0.274 OA
ATOM     24  N   UNL     1       2.154   1.374   1.115  0.00  0.00    -0.297 N 
ATOM     25  C   UNL     1       1.421   1.992  -0.001  0.00  0.00    +0.126 C 
ATOM     26  C   UNL     1      -0.018   1.465   0.010  0.00  0.00    +0.124 C 
ATOM     27  N   UNL     1       0.002  -0.004   0.002  0.00  0.00    -0.324 N 
ATOM     28  C   UNL     1       0.640  -0.535   1.214  0.00  0.00    +0.124 C 
ATOM     29  C   UNL     1       2.106  -0.090   1.252  0.00  0.00    +0.126 C 
BRANCH  27  30
ATOM     30  C   UNL     1      -1.289  -0.522  -0.153  0.00  0.00    +0.072 A 
ATOM     31  C   UNL     1      -2.271  -0.234   0.783  0.00  0.00    +0.027 A 
ATOM     32  C   UNL     1      -3.546  -0.744   0.624  0.00  0.00    +0.002 A 
ATOM     33  C   UNL     1      -3.844  -1.548  -0.460  0.00  0.00    +0.004 A 
ATOM     34  C   UNL     1      -2.868  -1.844  -1.394  0.00  0.00    +0.047 A 
ATOM     35  C   UNL     1      -1.589  -1.333  -1.246  0.00  0.00    +0.141 A 
BRANCH  35  36
ATOM     36  O   UNL     1      -0.628  -1.624  -2.163  0.00  0.00    -0.493 OA
ATOM     37  C   UNL     1      -1.008  -2.462  -3.257  0.00  0.00    +0.277 C 
ENDBRANCH  35  36
ENDBRANCH  27  30
ENDBRANCH  21  22
ENDBRANCH   1  21
TORSDOF 9
