REMARK  Name = ZINC64365820
REMARK  3 active torsions:
REMARK  status: ('A' for Active; 'I' for Inactive)
REMARK    1  A    between atoms: C_3  and  C_11
REMARK    2  A    between atoms: C_12  and  C_13
REMARK    3  A    between atoms: C_12  and  C_15
REMARK                            x       y       z     vdW  Elec       q    Type
REMARK                         _______ _______ _______ _____ _____    ______ ____
ROOT
ATOM      1  C   UNL     1      -0.013   1.463   0.020  0.00  0.00    +0.005 C 
ATOM      2  C   UNL     1       1.131   2.145   0.019  0.00  0.00    +0.006 C 
ATOM      3  C   UNL     1       2.447   1.491  -0.077  0.00  0.00    -0.024 C 
ATOM      4  C   UNL     1       2.525   0.158  -0.496  0.00  0.00    +0.014 C 
ATOM      5  C   UNL     1       1.291  -0.457  -0.739  0.00  0.00    -0.017 C 
ATOM      6  C   UNL     1       0.905  -1.430  -1.586  0.00  0.00    +0.025 C 
ATOM      7  C   UNL     1      -0.510  -1.472  -1.633  0.00  0.00    +0.106 C 
ATOM      8  N   UNL     1      -1.053  -0.661  -0.773  0.00  0.00    -0.279 NA
ATOM      9  C   UNL     1       0.022  -0.034  -0.019  0.00  0.00    +0.158 C 
ENDROOT
BRANCH   3  10
ATOM     10  C   UNL     1       3.625   2.206   0.253  0.00  0.00    +0.032 C 
ATOM     11  C   UNL     1       4.485   1.714   1.214  0.00  0.00    +0.114 C 
BRANCH  11  12
ATOM     12  C   UNL     1       5.656   2.505   1.629  0.00  0.00    +0.252 C 
ATOM     13  O   UNL     1       5.866   3.591   1.124  0.00  0.00    -0.270 OA
ATOM     14  N   UNL     1       6.495   2.024   2.567  0.00  0.00    -0.325 N 
ATOM     15  H   UNL     1       6.328   1.158   2.970  0.00  0.00    +0.145 HD
ATOM     16  H   UNL     1       7.267   2.545   2.841  0.00  0.00    +0.145 HD
ENDBRANCH  11  12
BRANCH  11  17
ATOM     17  C   UNL     1       4.238   0.435   1.809  0.00  0.00    +0.104 C 
ATOM     18  N   UNL     1       4.042  -0.580   2.280  0.00  0.00    -0.191 NA
ENDBRANCH  11  17
ENDBRANCH   3  10
TORSDOF 3
