REMARK  Name = ZINC67207060
REMARK  9 active torsions:
REMARK  status: ('A' for Active; 'I' for Inactive)
REMARK    1  A    between atoms: C_1  and  O_2
REMARK    2  A    between atoms: O_2  and  C_3
REMARK    3  A    between atoms: C_5  and  C_13
REMARK    4  A    between atoms: C_7  and  N_10
REMARK    5  A    between atoms: C_8  and  O_9
REMARK    6  A    between atoms: C_15  and  C_27
REMARK    7  A    between atoms: C_17  and  C_22
REMARK    8  A    between atoms: C_17  and  O_26
REMARK    9  A    between atoms: C_27  and  C_29
REMARK                            x       y       z     vdW  Elec       q    Type
REMARK                         _______ _______ _______ _____ _____    ______ ____
ROOT
ATOM      1  C   UNL     1       2.401   0.379  -4.220  0.00  0.00    +0.118 C 
ATOM      2  C   UNL     1       3.899   0.563  -3.953  0.00  0.00    +0.144 C 
ATOM      3  C   UNL     1       4.518   1.310  -5.139  0.00  0.00    +0.241 C 
ATOM      4  N   UNL     1       4.223   0.580  -6.373  0.00  0.00    -0.291 N 
ATOM      5  C   UNL     1       3.115  -0.166  -6.495  0.00  0.00    +0.133 C 
ATOM      6  S   UNL     1       2.830  -0.980  -7.974  0.00  0.00    -0.019 S 
ATOM      7  N   UNL     1       2.220  -0.300  -5.504  0.00  0.00    -0.319 N 
ATOM      8  H   UNL     1       4.842   0.637  -7.118  0.00  0.00    +0.151 HD
ATOM      9  H   UNL     1       1.438  -0.858  -5.640  0.00  0.00    +0.148 HD
ENDROOT
BRANCH   1  12
ATOM     10  C   UNL     1       0.721  -0.600  -0.981  0.00  0.00    +0.164 A 
ATOM     11  C   UNL     1       1.281   0.163  -1.992  0.00  0.00    +0.055 A 
ATOM     12  C   UNL     1       1.792  -0.452  -3.120  0.00  0.00    -0.021 A 
ATOM     13  C   UNL     1       1.744  -1.828  -3.242  0.00  0.00    +0.042 A 
ATOM     14  C   UNL     1       1.186  -2.595  -2.236  0.00  0.00    +0.171 A 
ATOM     15  C   UNL     1       0.678  -1.985  -1.101  0.00  0.00    +0.189 A 
BRANCH  14  16
ATOM     16  N   UNL     1       1.136  -4.069  -2.370  0.00  0.00    +0.060 N 
ATOM     17  O   UNL     1       1.584  -4.601  -3.359  0.00  0.00    -0.126 OA
ATOM     18  O   UNL     1       0.648  -4.739  -1.490  0.00  0.00    -0.126 OA
ENDBRANCH  14  16
BRANCH  10  20
ATOM     19  C   UNL     1       0.297   1.430   0.184  0.00  0.00    +0.277 C 
ATOM     20  O   UNL     1       0.219   0.004   0.130  0.00  0.00    -0.491 OA
ENDBRANCH  10  20
BRANCH  15  21
ATOM     21  O   UNL     1       0.134  -2.739  -0.108  0.00  0.00    -0.502 OA
ATOM     22  H   UNL     1      -0.815  -2.898  -0.210  0.00  0.00    +0.292 HD
ENDBRANCH  15  21
ENDBRANCH   1  12
BRANCH   3  23
ATOM     23  C   UNL     1       3.923   2.717  -5.223  0.00  0.00    +0.436 C 
ATOM     24  F   UNL     1       4.199   3.412  -4.041  0.00  0.00    -0.166 F 
ATOM     25  F   UNL     1       4.489   3.398  -6.307  0.00  0.00    -0.166 F 
ATOM     26  F   UNL     1       2.538   2.628  -5.400  0.00  0.00    -0.166 F 
ENDBRANCH   3  23
BRANCH   3  27
ATOM     27  O   UNL     1       5.933   1.398  -4.962  0.00  0.00    -0.364 OA
ATOM     28  H   UNL     1       6.391   1.860  -5.678  0.00  0.00    +0.212 HD
ENDBRANCH   3  27
BRANCH   2  29
ATOM     29  C   UNL     1       4.555  -0.785  -3.801  0.00  0.00    +0.173 C 
ATOM     30  O   UNL     1       4.172  -1.724  -4.466  0.00  0.00    -0.292 OA
BRANCH  29  31
ATOM     31  C   UNL     1       5.660  -0.963  -2.846  0.00  0.00    +0.018 A 
ATOM     32  C   UNL     1       6.101   0.116  -2.073  0.00  0.00    +0.011 A 
ATOM     33  C   UNL     1       7.137  -0.058  -1.180  0.00  0.00    +0.001 A 
ATOM     34  C   UNL     1       7.740  -1.297  -1.047  0.00  0.00    +0.000 A 
ATOM     35  C   UNL     1       7.310  -2.369  -1.809  0.00  0.00    +0.001 A 
ATOM     36  C   UNL     1       6.271  -2.212  -2.703  0.00  0.00    +0.011 A 
ENDBRANCH  29  31
ENDBRANCH   2  29
TORSDOF 8
