REMARK  Name = ZINC01507957
REMARK  5 active torsions:
REMARK  status: ('A' for Active; 'I' for Inactive)
REMARK    1  A    between atoms: C_1  and  C_2
REMARK    2  A    between atoms: C_3  and  N_9
REMARK    3  A    between atoms: C_4  and  C_8
REMARK    4  A    between atoms: N_9  and  C_10
REMARK    5  A    between atoms: C_10  and  O_23
REMARK                            x       y       z     vdW  Elec       q    Type
REMARK                         _______ _______ _______ _____ _____    ______ ____
ROOT
ATOM      1  C   UNL     1       0.714  -1.173  -3.639  0.00  0.00    +0.198 C 
ATOM      2  C   UNL     1       1.149  -2.499  -3.442  0.00  0.00    +0.143 C 
ATOM      3  C   UNL     1       1.326  -3.011  -2.147  0.00  0.00    +0.205 C 
ATOM      4  O   UNL     1       1.084  -2.247  -1.059  0.00  0.00    -0.286 OA
ATOM      5  C   UNL     1       1.764  -4.349  -2.012  0.00  0.00    +0.046 A 
ATOM      6  C   UNL     1       1.956  -4.911  -0.740  0.00  0.00    +0.013 A 
ATOM      7  C   UNL     1       2.378  -6.202  -0.628  0.00  0.00    +0.001 A 
ATOM      8  C   UNL     1       2.622  -6.972  -1.761  0.00  0.00    +0.002 A 
ATOM      9  C   UNL     1       2.445  -6.458  -3.010  0.00  0.00    +0.026 A 
ATOM     10  C   UNL     1       2.010  -5.130  -3.167  0.00  0.00    +0.068 A 
ATOM     11  N   UNL     1       1.835  -4.623  -4.394  0.00  0.00    -0.176 NA
ATOM     12  C   UNL     1       1.422  -3.379  -4.588  0.00  0.00    +0.276 C 
ATOM     13  O   UNL     1       1.271  -2.959  -5.726  0.00  0.00    -0.268 OA
ENDROOT
BRANCH   1  14
ATOM     14  N   UNL     1       0.628  -0.329  -2.591  0.00  0.00    -0.282 N 
ATOM     15  H   UNL     1       0.945  -0.606  -1.718  0.00  0.00    +0.155 HD
BRANCH  14  18
ATOM     16  C   UNL     1      -1.947   0.668  -1.234  0.00  0.00    +0.067 C 
ATOM     17  C   UNL     1      -1.053   1.425  -2.182  0.00  0.00    +0.054 A 
ATOM     18  C   UNL     1       0.079   0.954  -2.765  0.00  0.00    +0.077 A 
ATOM     19  C   UNL     1       0.603   1.975  -3.572  0.00  0.00    +0.081 A 
ATOM     20  N   UNL     1      -0.184   3.016  -3.475  0.00  0.00    -0.177 NA
ATOM     21  N   UNL     1      -1.237   2.694  -2.611  0.00  0.00    -0.280 N 
ATOM     22  H   UNL     1      -1.970   3.280  -2.361  0.00  0.00    +0.189 HD
ATOM     23  C   UNL     1       1.856   1.889  -4.404  0.00  0.00    +0.069 C 
ENDBRANCH  14  18
ENDBRANCH   1  14
BRANCH   1  24
ATOM     24  O   UNL     1       0.385  -0.750  -4.872  0.00  0.00    -0.495 OA
ATOM     25  H   UNL     1      -0.381  -1.201  -5.251  0.00  0.00    +0.293 HD
ENDBRANCH   1  24
TORSDOF 3
