REMARK  Name = ZINC12501514
REMARK  5 active torsions:
REMARK  status: ('A' for Active; 'I' for Inactive)
REMARK    1  A    between atoms: C_4  and  N_7
REMARK    2  A    between atoms: N_10  and  N_11
REMARK    3  A    between atoms: N_11  and  C_12
REMARK    4  A    between atoms: C_12  and  N_14
REMARK    5  A    between atoms: C_15  and  C_17
REMARK                            x       y       z     vdW  Elec       q    Type
REMARK                         _______ _______ _______ _____ _____    ______ ____
ROOT
ATOM      1  N   UNL     1       0.100  -2.718   0.190  0.00  0.00    -0.244 N 
ATOM      2  H   UNL     1       0.930  -2.222   0.111  0.00  0.00    +0.172 HD
ENDROOT
BRANCH   1   6
ATOM      3  N   UNL     1       0.002  -0.004   0.002  0.00  0.00    -0.268 N 
ATOM      4  C   UNL     1      -1.150  -0.694   0.111  0.00  0.00    +0.320 C 
ATOM      5  O   UNL     1      -2.213  -0.104   0.124  0.00  0.00    -0.251 OA
ATOM      6  N   UNL     1      -1.125  -2.038   0.205  0.00  0.00    -0.219 N 
ATOM      7  H   UNL     1       0.845  -0.477  -0.077  0.00  0.00    +0.156 HD
ATOM      8  H   UNL     1      -1.954  -2.535   0.284  0.00  0.00    +0.174 HD
BRANCH   3  12
ATOM      9  C   UNL     1      -0.057   4.162   0.004  0.00  0.00    +0.000 A 
ATOM     10  C   UNL     1       0.994   3.486   0.597  0.00  0.00    +0.002 A 
ATOM     11  C   UNL     1       1.016   2.105   0.598  0.00  0.00    +0.023 A 
ATOM     12  C   UNL     1      -0.018   1.395   0.003  0.00  0.00    +0.035 A 
ATOM     13  C   UNL     1      -1.068   2.077  -0.597  0.00  0.00    +0.023 A 
ATOM     14  C   UNL     1      -1.088   3.458  -0.590  0.00  0.00    +0.002 A 
ENDBRANCH   3  12
ENDBRANCH   1   6
BRANCH   1  15
ATOM     15  C   UNL     1       0.126  -4.063   0.284  0.00  0.00    +0.153 C 
ATOM     16  S   UNL     1       1.623  -4.893   0.265  0.00  0.00    -0.017 S 
BRANCH  15  17
ATOM     17  N   UNL     1      -1.026  -4.753   0.393  0.00  0.00    -0.263 N 
ATOM     18  C   UNL     1      -1.000  -6.097   0.487  0.00  0.00    +0.251 C 
ATOM     19  O   UNL     1       0.062  -6.687   0.473  0.00  0.00    -0.270 OA
ATOM     20  H   UNL     1      -1.874  -4.282   0.403  0.00  0.00    +0.157 HD
BRANCH  18  21
ATOM     21  C   UNL     1      -2.264  -6.854   0.606  0.00  0.00    +0.050 A 
ATOM     22  C   UNL     1      -3.486  -6.179   0.628  0.00  0.00    +0.014 A 
ATOM     23  C   UNL     1      -4.662  -6.891   0.734  0.00  0.00    +0.001 A 
ATOM     24  C   UNL     1      -4.632  -8.272   0.831  0.00  0.00    +0.001 A 
ATOM     25  C   UNL     1      -3.425  -8.947   0.815  0.00  0.00    +0.015 A 
ATOM     26  C   UNL     1      -2.241  -8.247   0.704  0.00  0.00    +0.025 A 
ATOM     27  I   UNL     1      -0.413  -9.271   0.682  0.00  0.00    -0.043 I 
ENDBRANCH  18  21
ENDBRANCH  15  17
ENDBRANCH   1  15
TORSDOF 5
