REMARK  Name = ZINC05720572
REMARK  2 active torsions:
REMARK  status: ('A' for Active; 'I' for Inactive)
REMARK    1  A    between atoms: C_1  and  S_2
REMARK    2  A    between atoms: S_2  and  C_3
REMARK                            x       y       z     vdW  Elec       q    Type
REMARK                         _______ _______ _______ _____ _____    ______ ____
ROOT
ATOM      1  C   UNL     1      -2.080   2.265   1.125  0.00  0.00    +0.058 C 
ATOM      2  C   UNL     1      -0.874   1.882   1.502  0.00  0.00    +0.150 C 
ATOM      3  S   UNL     1      -0.017   1.417   0.010  0.00  0.00    +0.008 S 
ATOM      4  O   UNL     1       0.002  -0.004   0.002  0.00  0.00    -0.169 OA
ATOM      5  O   UNL     1       1.185   2.174   0.002  0.00  0.00    -0.169 OA
ATOM      6  C   UNL     1      -1.211   2.065  -1.226  0.00  0.00    +0.258 C 
ATOM      7  C   UNL     1      -2.478   2.211  -0.317  0.00  0.00    +0.234 C 
ATOM      8  N   UNL     1      -3.182   3.445  -0.654  0.00  0.00    -0.288 N 
ATOM      9  C   UNL     1      -2.440   4.517  -1.087  0.00  0.00    +0.151 C 
ATOM     10  N   UNL     1      -2.818   5.762  -1.165  0.00  0.00    -0.280 NA
ATOM     11  S   UNL     1      -0.848   3.839  -1.520  0.00  0.00    -0.059 S 
ATOM     12  O   UNL     1      -3.345   1.096  -0.529  0.00  0.00    -0.198 OA
ATOM     13  H   UNL     1      -4.276   3.497  -0.557  0.00  0.00    +0.151 HD
ATOM     14  H   UNL     1      -3.837   6.048  -0.863  0.00  0.00    +0.189 HD
ENDROOT
BRANCH   1  16
ATOM     15  C   UNL     1      -2.339   2.700   3.897  0.00  0.00    +0.090 C 
ATOM     16  S   UNL     1      -3.249   2.797   2.331  0.00  0.00    -0.127 S 
ENDBRANCH   1  16
TORSDOF 1
