REMARK  Name = ZINC31818975
REMARK  5 active torsions:
REMARK  status: ('A' for Active; 'I' for Inactive)
REMARK    1  A    between atoms: C_1  and  C_2
REMARK    2  A    between atoms: C_4  and  C_7
REMARK    3  A    between atoms: C_7  and  S_8
REMARK    4  A    between atoms: S_8  and  C_9
REMARK    5  A    between atoms: C_13  and  N_15
REMARK                            x       y       z     vdW  Elec       q    Type
REMARK                         _______ _______ _______ _____ _____    ______ ____
ROOT
ATOM      1  C   UNL     1      -0.049   3.764   0.022  0.00  0.00    +0.192 A 
ATOM      2  N   UNL     1       1.117   3.134   0.008  0.00  0.00    -0.207 NA
ATOM      3  C   UNL     1       1.173   1.804   0.001  0.00  0.00    +0.122 A 
ATOM      4  C   UNL     1      -0.013   1.076   0.008  0.00  0.00    +0.086 A 
ATOM      5  C   UNL     1      -1.218   1.772   0.017  0.00  0.00    +0.122 A 
ATOM      6  N   UNL     1      -1.197   3.103   0.029  0.00  0.00    -0.207 NA
ATOM      7  N   UNL     1       2.397   1.154  -0.014  0.00  0.00    -0.343 N 
ATOM      8  H   UNL     1       2.436   0.054  -0.020  0.00  0.00    +0.144 HD
ATOM      9  H   UNL     1       3.330   1.736  -0.019  0.00  0.00    +0.144 HD
ENDROOT
BRANCH   5  10
ATOM     10  N   UNL     1      -2.424   1.088   0.019  0.00  0.00    -0.343 N 
ATOM     11  H   UNL     1      -3.372   1.645   0.027  0.00  0.00    +0.144 HD
ATOM     12  H   UNL     1      -2.432  -0.012   0.013  0.00  0.00    +0.144 HD
ENDBRANCH   5  10
BRANCH   1  13
ATOM     13  S   UNL     1      -0.073   5.525   0.031  0.00  0.00    -0.080 S 
BRANCH  13  14
ATOM     14  C   UNL     1      -1.859   5.815   0.049  0.00  0.00    +0.133 C 
BRANCH  14  18
ATOM     15  C   UNL     1      -2.669  10.184  -2.250  0.00  0.00    +0.073 C 
ATOM     16  C   UNL     1      -2.492   9.259  -1.073  0.00  0.00    +0.076 A 
ATOM     17  N   UNL     1      -2.259   7.968  -1.067  0.00  0.00    -0.248 NA
ATOM     18  C   UNL     1      -2.128   7.298   0.059  0.00  0.00    +0.059 A 
ATOM     19  C   UNL     1      -2.245   7.976   1.229  0.00  0.00    +0.071 A 
ATOM     20  S   UNL     1      -2.544   9.630   0.623  0.00  0.00    -0.081 S 
ENDBRANCH  14  18
ENDBRANCH  13  14
ENDBRANCH   1  13
TORSDOF 4
