REMARK  Name = ZINC32125061
REMARK  9 active torsions:
REMARK  status: ('A' for Active; 'I' for Inactive)
REMARK    1  A    between atoms: C_1  and  C_2
REMARK    2  A    between atoms: C_2  and  C_3
REMARK    3  A    between atoms: C_2  and  O_4
REMARK    4  A    between atoms: O_4  and  C_5
REMARK    5  A    between atoms: C_8  and  C_11
REMARK    6  A    between atoms: N_13  and  C_14
REMARK    7  A    between atoms: C_14  and  N_16
REMARK    8  A    between atoms: N_16  and  C_17
REMARK    9  A    between atoms: C_18  and  C_27
REMARK                            x       y       z     vdW  Elec       q    Type
REMARK                         _______ _______ _______ _____ _____    ______ ____
ROOT
ATOM      1  N   UNL     1       3.566  -4.766   1.063  0.00  0.00    -0.291 N 
ATOM      2  H   UNL     1       4.508  -4.227   0.886  0.00  0.00    +0.154 HD
ENDROOT
BRANCH   1   3
ATOM      3  C   UNL     1       3.580  -6.135   1.276  0.00  0.00    +0.084 A 
ATOM      4  C   UNL     1       4.670  -6.992   1.299  0.00  0.00    +0.068 A 
ATOM      5  C   UNL     1       4.416  -8.404   1.555  0.00  0.00    -0.023 A 
ATOM      6  C   UNL     1       3.117  -8.726   1.727  0.00  0.00    -0.004 A 
ATOM      7  S   UNL     1       2.242  -7.193   1.572  0.00  0.00    -0.077 S 
ATOM      8  C   UNL     1       2.536 -10.083   1.979  0.00  0.00    +0.043 C 
ATOM      9  C   UNL     1       3.319 -10.768   3.107  0.00  0.00    +0.005 C 
ATOM     10  C   UNL     1       4.480 -11.541   2.489  0.00  0.00    +0.001 C 
ATOM     11  C   UNL     1       4.994 -10.813   1.248  0.00  0.00    +0.005 C 
ATOM     12  C   UNL     1       5.534  -9.437   1.623  0.00  0.00    +0.037 C 
BRANCH   4  13
ATOM     13  C   UNL     1       6.031  -6.494   1.078  0.00  0.00    +0.244 C 
ATOM     14  O   UNL     1       6.704  -6.123   2.021  0.00  0.00    -0.270 OA
ATOM     15  N   UNL     1       6.536  -6.448  -0.171  0.00  0.00    -0.325 N 
ATOM     16  H   UNL     1       7.558  -6.074  -0.337  0.00  0.00    +0.145 HD
ATOM     17  H   UNL     1       5.928  -6.784  -1.024  0.00  0.00    +0.145 HD
ENDBRANCH   4  13
ENDBRANCH   1   3
BRANCH   1  18
ATOM     18  C   UNL     1       2.397  -4.096   1.071  0.00  0.00    +0.141 C 
ATOM     19  S   UNL     1       0.930  -4.935   1.345  0.00  0.00    -0.018 S 
BRANCH  18  22
ATOM     20  C   UNL     1       1.213  -2.093   0.872  0.00  0.00    +0.250 C 
ATOM     21  O   UNL     1       0.172  -2.689   1.067  0.00  0.00    -0.270 OA
ATOM     22  N   UNL     1       2.382  -2.764   0.863  0.00  0.00    -0.264 N 
ATOM     23  H   UNL     1       3.325  -2.224   0.687  0.00  0.00    +0.157 HD
BRANCH  20  27
ATOM     24  C   UNL     1       1.168   2.102   0.218  0.00  0.00    +0.121 A 
ATOM     25  C   UNL     1      -0.024   1.422   0.440  0.00  0.00    +0.046 A 
ATOM     26  C   UNL     1      -0.014   0.062   0.652  0.00  0.00    +0.016 A 
ATOM     27  C   UNL     1       1.198  -0.636   0.644  0.00  0.00    +0.037 A 
ATOM     28  C   UNL     1       2.394   0.052   0.420  0.00  0.00    +0.016 A 
ATOM     29  C   UNL     1       2.375   1.412   0.209  0.00  0.00    +0.046 A 
BRANCH  24  30
ATOM     30  O   UNL     1       1.154   3.443   0.009  0.00  0.00    -0.489 OA
BRANCH  30  32
ATOM     31  C   UNL     1      -0.640   4.398   1.317  0.00  0.00    +0.051 C 
ATOM     32  C   UNL     1      -0.126   4.071  -0.087  0.00  0.00    +0.167 C 
ATOM     33  C   UNL     1      -0.002   5.362  -0.898  0.00  0.00    +0.051 C 
ENDBRANCH  30  32
ENDBRANCH  24  30
ENDBRANCH  20  27
ENDBRANCH  18  22
ENDBRANCH   1  18
TORSDOF 7
