REMARK  Name = ZINC36545344
REMARK  9 active torsions:
REMARK  status: ('A' for Active; 'I' for Inactive)
REMARK    1  A    between atoms: C_5  and  N_7
REMARK    2  A    between atoms: N_7  and  C_8
REMARK    3  A    between atoms: C_8  and  C_10
REMARK    4  A    between atoms: C_8  and  C_17
REMARK    5  A    between atoms: C_13  and  O_16
REMARK    6  A    between atoms: N_19  and  C_20
REMARK    7  A    between atoms: C_26  and  C_28
REMARK    8  A    between atoms: C_32  and  O_35
REMARK    9  A    between atoms: C_33  and  O_34
REMARK                            x       y       z     vdW  Elec       q    Type
REMARK                         _______ _______ _______ _____ _____    ______ ____
ROOT
ATOM      1  N   UNL     1       1.119  -1.960   0.044  0.00  0.00    -0.250 N 
ATOM      2  C   UNL     1       0.345  -2.494   1.011  0.00  0.00    +0.255 C 
ATOM      3  O   UNL     1      -0.375  -3.442   0.759  0.00  0.00    -0.269 OA
ENDROOT
BRANCH   1   8
ATOM      4  C   UNL     1       2.561   1.396   0.463  0.00  0.00    +0.002 A 
ATOM      5  C   UNL     1       3.809   1.083   0.971  0.00  0.00    +0.002 A 
ATOM      6  C   UNL     1       4.166  -0.237   1.173  0.00  0.00    +0.022 A 
ATOM      7  C   UNL     1       3.276  -1.250   0.866  0.00  0.00    +0.062 A 
ATOM      8  C   UNL     1       2.022  -0.939   0.356  0.00  0.00    +0.056 A 
ATOM      9  C   UNL     1       1.667   0.389   0.155  0.00  0.00    +0.025 A 
ATOM     10 CL   UNL     1       3.726  -2.907   1.118  0.00  0.00    -0.082 Cl
ENDBRANCH   1   8
BRANCH   2  11
ATOM     11  C   UNL     1       0.373  -1.930   2.373  0.00  0.00    +0.082 A 
ATOM     12  C   UNL     1       0.206  -0.556   2.568  0.00  0.00    +0.017 A 
ATOM     13  C   UNL     1       0.233  -0.032   3.842  0.00  0.00    +0.005 A 
ATOM     14  C   UNL     1       0.423  -0.861   4.935  0.00  0.00    +0.049 A 
ATOM     15  C   UNL     1       0.590  -2.224   4.759  0.00  0.00    +0.159 A 
ATOM     16  C   UNL     1       0.560  -2.769   3.478  0.00  0.00    +0.171 A 
BRANCH  16  17
ATOM     17  O   UNL     1       0.717  -4.105   3.302  0.00  0.00    -0.503 OA
ATOM     18  H   UNL     1       1.637  -4.381   3.187  0.00  0.00    +0.292 HD
ENDBRANCH  16  17
BRANCH  15  19
ATOM     19  O   UNL     1       0.777  -3.032   5.837  0.00  0.00    -0.503 OA
ATOM     20  H   UNL     1      -0.042  -3.380   6.215  0.00  0.00    +0.292 HD
ENDBRANCH  15  19
ENDBRANCH   2  11
BRANCH   1  21
ATOM     21  C   UNL     1       1.013  -2.450  -1.332  0.00  0.00    +0.198 C 
BRANCH  21  22
ATOM     22  C   UNL     1      -0.371  -2.173  -1.860  0.00  0.00    -0.018 A 
ATOM     23  C   UNL     1      -1.030  -1.014  -1.493  0.00  0.00    +0.009 A 
ATOM     24  C   UNL     1      -2.299  -0.757  -1.975  0.00  0.00    +0.046 A 
ATOM     25  C   UNL     1      -2.913  -1.664  -2.827  0.00  0.00    +0.117 A 
ATOM     26  C   UNL     1      -2.249  -2.826  -3.194  0.00  0.00    +0.046 A 
ATOM     27  C   UNL     1      -0.978  -3.075  -2.713  0.00  0.00    +0.009 A 
BRANCH  25  28
ATOM     28  O   UNL     1      -4.161  -1.414  -3.302  0.00  0.00    -0.507 OA
ATOM     29  H   UNL     1      -4.174  -0.923  -4.135  0.00  0.00    +0.292 HD
ENDBRANCH  25  28
ENDBRANCH  21  22
BRANCH  21  30
ATOM     30  C   UNL     1       2.029  -1.747  -2.195  0.00  0.00    +0.239 C 
ATOM     31  O   UNL     1       2.757  -0.906  -1.711  0.00  0.00    -0.273 OA
ATOM     32  N   UNL     1       2.129  -2.053  -3.504  0.00  0.00    -0.311 N 
ATOM     33  H   UNL     1       1.547  -2.725  -3.891  0.00  0.00    +0.149 HD
BRANCH  32  34
ATOM     34  C   UNL     1       3.117  -1.369  -4.342  0.00  0.00    +0.073 C 
ATOM     35  C   UNL     1       2.532  -0.048  -4.846  0.00  0.00    +0.022 C 
ATOM     36  C   UNL     1       3.564   0.665  -5.721  0.00  0.00    +0.002 C 
ATOM     37  C   UNL     1       3.921  -0.222  -6.915  0.00  0.00    +0.000 C 
ATOM     38  C   UNL     1       4.506  -1.543  -6.412  0.00  0.00    +0.002 C 
ATOM     39  C   UNL     1       3.474  -2.257  -5.536  0.00  0.00    +0.022 C 
ENDBRANCH  32  34
ENDBRANCH  21  30
ENDBRANCH   1  21
TORSDOF 9
