REMARK  Name = ZINC35681714
REMARK  6 active torsions:
REMARK  status: ('A' for Active; 'I' for Inactive)
REMARK    1  A    between atoms: C_1  and  C_2
REMARK    2  A    between atoms: C_5  and  C_8
REMARK    3  A    between atoms: C_10  and  C_21
REMARK    4  A    between atoms: C_11  and  S_13
REMARK    5  A    between atoms: S_13  and  C_14
REMARK    6  A    between atoms: N_23  and  N_24
REMARK                            x       y       z     vdW  Elec       q    Type
REMARK                         _______ _______ _______ _____ _____    ______ ____
ROOT
ATOM      1  C   UNL     1       0.082  -4.250  -0.023  0.00  0.00    +0.229 A 
ATOM      2  N   UNL     1       0.086  -5.009   1.041  0.00  0.00    -0.203 NA
ATOM      3  C   UNL     1       0.095  -6.310   0.647  0.00  0.00    +0.179 A 
ATOM      4  C   UNL     1       0.096  -6.310  -0.741  0.00  0.00    +0.199 A 
ATOM      5  O   UNL     1       0.082  -5.021  -1.127  0.00  0.00    -0.428 OA
ENDROOT
BRANCH   1  10
ATOM      6  C   UNL     1       0.039   1.504   0.006  0.00  0.00    +0.044 C 
ATOM      7  C   UNL     1       0.050  -0.003  -0.001  0.00  0.00    -0.050 A 
ATOM      8  C   UNL     1       0.050  -0.685  -1.205  0.00  0.00    +0.004 A 
ATOM      9  C   UNL     1       0.061  -2.065  -1.219  0.00  0.00    +0.013 A 
ATOM     10  C   UNL     1       0.071  -2.772  -0.015  0.00  0.00    +0.037 A 
ATOM     11  C   UNL     1       0.071  -2.077   1.195  0.00  0.00    +0.013 A 
ATOM     12  C   UNL     1       0.066  -0.698   1.195  0.00  0.00    +0.004 A 
ENDBRANCH   1  10
BRANCH   3  13
ATOM     13  C   UNL     1       0.104  -7.487   1.520  0.00  0.00    +0.280 C 
ATOM     14  O   UNL     1       0.112  -8.604   1.036  0.00  0.00    -0.267 OA
ATOM     15  N   UNL     1       0.102  -7.333   2.859  0.00  0.00    -0.248 N 
ATOM     16  H   UNL     1       0.096  -6.443   3.245  0.00  0.00    +0.169 HD
BRANCH  15  17
ATOM     17  N   UNL     1       0.110  -8.430   3.673  0.00  0.00    -0.254 NA
ATOM     18  H   UNL     1       0.896  -9.028   3.466  0.00  0.00    +0.140 HD
ATOM     19  H   UNL     1       0.108  -8.159   4.645  0.00  0.00    +0.140 HD
ENDBRANCH  15  17
ENDBRANCH   3  13
BRANCH   4  20
ATOM     20  S   UNL     1       0.106  -7.724  -1.793  0.00  0.00    -0.050 S 
BRANCH  20  21
ATOM     21  C   UNL     1      -0.052  -7.050  -3.414  0.00  0.00    +0.016 A 
ATOM     22  C   UNL     1       1.081  -6.807  -4.181  0.00  0.00    +0.016 A 
ATOM     23  C   UNL     1       0.953  -6.279  -5.450  0.00  0.00    +0.021 A 
ATOM     24  C   UNL     1      -0.302  -5.992  -5.959  0.00  0.00    +0.041 A 
ATOM     25  C   UNL     1      -1.432  -6.233  -5.197  0.00  0.00    +0.021 A 
ATOM     26  C   UNL     1      -1.311  -6.766  -3.929  0.00  0.00    +0.016 A 
ATOM     27 CL   UNL     1      -0.458  -5.328  -7.555  0.00  0.00    -0.084 Cl
ENDBRANCH  20  21
ENDBRANCH   4  20
TORSDOF 5
