REMARK  Name = ZINC04865132
REMARK  5 active torsions:
REMARK  status: ('A' for Active; 'I' for Inactive)
REMARK    1  A    between atoms: C_1  and  C_2
REMARK    2  A    between atoms: C_2  and  O_3
REMARK    3  A    between atoms: O_3  and  C_4
REMARK    4  A    between atoms: C_6  and  C_11
REMARK    5  A    between atoms: C_9  and  O_10
REMARK                            x       y       z     vdW  Elec       q    Type
REMARK                         _______ _______ _______ _____ _____    ______ ____
ROOT
ATOM      1  C   UNL     1      -0.229  -4.969   0.477  0.00  0.00    +0.092 C 
ATOM      2  C   UNL     1       0.873  -5.805   1.060  0.00  0.00    +0.067 A 
ATOM      3  C   UNL     1       1.044  -7.101   0.678  0.00  0.00    +0.111 A 
ATOM      4  N   UNL     1       2.065  -7.840   1.223  0.00  0.00    -0.323 N 
ATOM      5  H   UNL     1       2.192  -8.763   0.952  0.00  0.00    +0.169 HD
ATOM      6  C   UNL     1       2.892  -7.290   2.131  0.00  0.00    +0.159 A 
ATOM      7  S   UNL     1       4.160  -8.229   2.796  0.00  0.00    -0.013 S 
ATOM      8  N   UNL     1       2.736  -6.013   2.525  0.00  0.00    -0.302 N 
ATOM      9  H   UNL     1       3.342  -5.635   3.182  0.00  0.00    +0.171 HD
ATOM     10  C   UNL     1       1.748  -5.254   2.014  0.00  0.00    +0.258 A 
ATOM     11  O   UNL     1       1.612  -4.097   2.375  0.00  0.00    -0.267 OA
ATOM     12  N   UNL     1       0.197  -7.666  -0.243  0.00  0.00    -0.304 N 
ATOM     13  C   UNL     1      -1.030  -7.113  -0.495  0.00  0.00    +0.017 C 
ATOM     14  C   UNL     1      -1.283  -5.829  -0.171  0.00  0.00    +0.024 C 
ATOM     15  C   UNL     1      -2.539  -5.253  -0.431  0.00  0.00    +0.162 C 
ATOM     16  O   UNL     1      -2.743  -4.098  -0.113  0.00  0.00    -0.292 OA
ATOM     17  C   UNL     1      -3.636  -6.039  -1.095  0.00  0.00    +0.080 C 
ATOM     18  C   UNL     1      -3.008  -7.109  -1.994  0.00  0.00    +0.014 C 
ATOM     19  C   UNL     1      -2.087  -7.977  -1.138  0.00  0.00    +0.051 C 
ATOM     20  H   UNL     1       0.471  -8.465  -0.721  0.00  0.00    +0.153 HD
ENDROOT
BRANCH   1  23
ATOM     21  C   UNL     1       0.777  -1.811  -1.336  0.00  0.00    +0.162 A 
ATOM     22  C   UNL     1       0.243  -2.669  -0.388  0.00  0.00    +0.054 A 
ATOM     23  C   UNL     1       0.352  -4.037  -0.555  0.00  0.00    -0.032 A 
ATOM     24  C   UNL     1       0.992  -4.552  -1.667  0.00  0.00    +0.008 A 
ATOM     25  C   UNL     1       1.526  -3.702  -2.616  0.00  0.00    +0.049 A 
ATOM     26  C   UNL     1       1.416  -2.330  -2.458  0.00  0.00    +0.158 A 
BRANCH  26  27
ATOM     27  O   UNL     1       1.936  -1.492  -3.394  0.00  0.00    -0.503 OA
ATOM     28  H   UNL     1       2.856  -1.241  -3.231  0.00  0.00    +0.292 HD
ENDBRANCH  26  27
BRANCH  21  29
ATOM     29  O   UNL     1       0.671  -0.465  -1.174  0.00  0.00    -0.489 OA
BRANCH  29  31
ATOM     30  C   UNL     1      -0.019   1.526   0.010  0.00  0.00    +0.048 C 
ATOM     31  C   UNL     1       0.002  -0.004   0.002  0.00  0.00    +0.226 C 
ENDBRANCH  29  31
ENDBRANCH  21  29
ENDBRANCH   1  23
TORSDOF 4
