REMARK  Name = ZINC42439741
REMARK  4 active torsions:
REMARK  status: ('A' for Active; 'I' for Inactive)
REMARK    1  A    between atoms: C_1  and  C_2
REMARK    2  A    between atoms: C_6  and  C_23
REMARK    3  A    between atoms: C_14  and  O_22
REMARK    4  A    between atoms: C_17  and  C_19
REMARK                            x       y       z     vdW  Elec       q    Type
REMARK                         _______ _______ _______ _____ _____    ______ ____
ROOT
ATOM      1  C   UNL     1      -0.555   1.363   0.378  0.00  0.00    +0.028 C 
ATOM      2  C   UNL     1      -0.062  -0.049   0.053  0.00  0.00    +0.074 C 
ATOM      3  C   UNL     1       0.504  -0.081  -1.369  0.00  0.00    +0.023 C 
ATOM      4  C   UNL     1       1.121  -1.455  -1.638  0.00  0.00    +0.016 C 
ATOM      5  C   UNL     1       2.268  -1.702  -0.655  0.00  0.00    +0.092 C 
ATOM      6  C   UNL     1       1.721  -1.689   0.775  0.00  0.00    +0.122 C 
ATOM      7  N   UNL     1       0.998  -0.429   0.997  0.00  0.00    -0.282 N 
ATOM      8  C   UNL     1       1.304   0.365   2.042  0.00  0.00    +0.306 C 
ATOM      9  O   UNL     1       0.831   1.483   2.116  0.00  0.00    -0.252 OA
ATOM     10  N   UNL     1       2.134  -0.080   3.006  0.00  0.00    -0.269 N 
ATOM     11  C   UNL     1       2.679  -1.446   3.107  0.00  0.00    +0.141 C 
ATOM     12  C   UNL     1       3.018  -1.628   4.607  0.00  0.00    +0.134 C 
ATOM     13  C   UNL     1       3.534  -0.214   4.984  0.00  0.00    +0.067 C 
ATOM     14  C   UNL     1       2.651   0.718   4.127  0.00  0.00    +0.193 C 
ENDROOT
BRANCH   5  15
ATOM     15  C   UNL     1       2.896  -3.042  -0.942  0.00  0.00    +0.215 C 
ATOM     16  O   UNL     1       2.469  -3.732  -1.843  0.00  0.00    -0.276 OA
ATOM     17  N   UNL     1       3.933  -3.473  -0.197  0.00  0.00    -0.329 N 
ATOM     18  H   UNL     1       4.275  -2.922   0.524  0.00  0.00    +0.145 HD
ATOM     19  H   UNL     1       4.337  -4.336  -0.381  0.00  0.00    +0.145 HD
ENDBRANCH   5  15
BRANCH  14  20
ATOM     20  C   UNL     1       3.473   1.867   3.602  0.00  0.00    +0.376 C 
ATOM     21  O   UNL     1       3.839   2.750   4.359  0.00  0.00    -0.244 OA
ATOM     22  O   UNL     1       3.772   1.913   2.421  0.00  0.00    -0.244 OA
ENDBRANCH  14  20
BRANCH  12  23
ATOM     23  O   UNL     1       1.850  -1.965   5.359  0.00  0.00    -0.390 OA
ATOM     24  H   UNL     1       1.435  -2.796   5.091  0.00  0.00    +0.210 HD
ENDBRANCH  12  23
TORSDOF 3
