REMARK  Name = ZINC20566737
REMARK  7 active torsions:
REMARK  status: ('A' for Active; 'I' for Inactive)
REMARK    1  A    between atoms: C_1  and  C_2
REMARK    2  A    between atoms: C_2  and  C_3
REMARK    3  A    between atoms: C_3  and  N_4
REMARK    4  A    between atoms: C_8  and  C_9
REMARK    5  A    between atoms: N_22  and  C_24
REMARK    6  A    between atoms: N_27  and  C_34
REMARK    7  A    between atoms: N_30  and  C_33
REMARK                            x       y       z     vdW  Elec       q    Type
REMARK                         _______ _______ _______ _____ _____    ______ ____
ROOT
ATOM      1  C   UNL     1       2.722  -6.255  -0.083  0.00  0.00    -0.024 A 
ATOM      2  C   UNL     1       1.673  -6.954  -0.705  0.00  0.00    +0.010 A 
ATOM      3  C   UNL     1       1.639  -8.315  -0.647  0.00  0.00    +0.024 A 
ATOM      4  C   UNL     1       2.640  -9.017   0.031  0.00  0.00    +0.033 A 
ATOM      5  C   UNL     1       3.676  -8.331   0.653  0.00  0.00    -0.024 A 
ATOM      6  C   UNL     1       3.726  -6.966   0.593  0.00  0.00    +0.013 A 
ATOM      7  C   UNL     1       4.756  -9.071   1.399  0.00  0.00    +0.064 C 
ATOM      8  C   UNL     1       4.211 -10.420   1.874  0.00  0.00    +0.144 C 
ATOM      9  C   UNL     1       3.642 -11.182   0.669  0.00  0.00    +0.081 C 
ATOM     10  N   UNL     1       2.570 -10.411   0.059  0.00  0.00    -0.329 N 
ATOM     11  C   UNL     1       1.407 -11.038  -0.572  0.00  0.00    +0.087 C 
ATOM     12  C   UNL     1       1.057 -12.349   0.129  0.00  0.00    -0.060 C 
ATOM     13  N   UNL     1       2.269 -13.180   0.190  0.00  0.00    +0.380 N 
ATOM     14  C   UNL     1       3.214 -12.568   1.122  0.00  0.00    -0.055 C 
ATOM     15  C   UNL     1       1.918 -14.528   0.659  0.00  0.00    -0.096 C 
ATOM     16  C   UNL     1       3.115 -10.192   2.877  0.00  0.00    +0.240 C 
ATOM     17  O   UNL     1       2.135  -9.562   2.544  0.00  0.00    -0.274 OA
ATOM     18  N   UNL     1       3.190 -10.664   4.129  0.00  0.00    -0.228 N 
ATOM     19  C   UNL     1       4.247 -11.369   4.560  0.00  0.00    +0.317 C 
ATOM     20  O   UNL     1       4.263 -11.772   5.706  0.00  0.00    -0.252 OA
ATOM     21  N   UNL     1       5.286 -11.640   3.756  0.00  0.00    -0.228 N 
ATOM     22  C   UNL     1       5.326 -11.222   2.484  0.00  0.00    +0.240 C 
ATOM     23  O   UNL     1       6.291 -11.499   1.804  0.00  0.00    -0.274 OA
ATOM     24  C   UNL     1       6.410 -12.416   4.285  0.00  0.00    +0.143 C 
ATOM     25  C   UNL     1       2.085 -10.403   5.054  0.00  0.00    +0.143 C 
ATOM     26  H   UNL     1       2.686 -13.238  -0.727  0.00  0.00    -0.082 HD
ENDROOT
BRANCH   1  31
ATOM     27  N   UNL     1       0.425  -2.000   0.176  0.00  0.00    -0.220 N 
ATOM     28  C   UNL     1       1.565  -2.651  -0.141  0.00  0.00    +0.259 C 
ATOM     29  O   UNL     1       2.502  -2.065  -0.650  0.00  0.00    -0.269 OA
ATOM     30  C   UNL     1       1.635  -4.096   0.150  0.00  0.00    +0.102 C 
ATOM     31  C   UNL     1       2.768  -4.840  -0.143  0.00  0.00    +0.026 C 
ATOM     32  C   UNL     1       0.450  -4.711   0.766  0.00  0.00    +0.276 C 
ATOM     33  O   UNL     1       0.432  -6.027   1.065  0.00  0.00    -0.268 OA
ATOM     34  N   UNL     1      -0.598  -3.946   1.020  0.00  0.00    -0.123 NA
ATOM     35  C   UNL     1      -0.606  -2.644   0.742  0.00  0.00    +0.335 C 
ATOM     36  O   UNL     1      -1.607  -2.005   1.010  0.00  0.00    -0.250 OA
BRANCH  27  37
ATOM     37  C   UNL     1       0.315  -0.565  -0.097  0.00  0.00    +0.118 C 
BRANCH  37  39
ATOM     38  C   UNL     1       0.698   1.724   0.830  0.00  0.00    +0.005 C 
ATOM     39  C   UNL     1       0.813   0.225   1.115  0.00  0.00    +0.016 C 
ENDBRANCH  37  39
ENDBRANCH  27  37
ENDBRANCH   1  31
TORSDOF 3
