REMARK  Name = ZINC59309563
REMARK  9 active torsions:
REMARK  status: ('A' for Active; 'I' for Inactive)
REMARK    1  A    between atoms: C_1  and  C_2
REMARK    2  A    between atoms: C_4  and  C_9
REMARK    3  A    between atoms: C_9  and  C_11
REMARK    4  A    between atoms: C_11  and  S_12
REMARK    5  A    between atoms: S_12  and  C_13
REMARK    6  A    between atoms: N_18  and  N_19
REMARK    7  A    between atoms: C_20  and  C_21
REMARK    8  A    between atoms: C_20  and  C_22
REMARK    9  A    between atoms: C_25  and  N_28
REMARK                            x       y       z     vdW  Elec       q    Type
REMARK                         _______ _______ _______ _____ _____    ______ ____
ROOT
ATOM      1  C   UNL     1       0.074  -6.681  -4.024  0.00  0.00    +0.210 A 
ATOM      2  N   UNL     1       0.087  -7.557  -5.035  0.00  0.00    -0.186 NA
ATOM      3  C   UNL     1       0.104  -8.784  -4.557  0.00  0.00    +0.232 A 
ATOM      4  N   UNL     1       0.104  -8.706  -3.209  0.00  0.00    -0.245 N 
ATOM      5  N   UNL     1       0.090  -7.339  -2.889  0.00  0.00    -0.144 NA
ATOM      6  N   UNL     1       0.121  -9.947  -5.304  0.00  0.00    -0.205 N 
ATOM      7  H   UNL     1       0.133 -10.809  -4.860  0.00  0.00    +0.177 HD
ATOM      8  H   UNL     1       0.115  -9.449  -2.585  0.00  0.00    +0.192 HD
ENDROOT
BRANCH   6   9
ATOM      9  N   UNL     1       0.120  -9.880  -6.704  0.00  0.00    -0.184 NA
ATOM     10  C   UNL     1       0.136 -10.972  -7.406  0.00  0.00    +0.063 C 
ATOM     11  C   UNL     1       0.154 -12.312  -6.715  0.00  0.00    +0.068 C 
BRANCH  10  12
ATOM     12  C   UNL     1       0.135 -10.902  -8.878  0.00  0.00    -0.002 A 
ATOM     13  C   UNL     1       0.145 -12.077  -9.635  0.00  0.00    +0.011 A 
ATOM     14  C   UNL     1       0.144 -12.008 -11.011  0.00  0.00    +0.023 A 
ATOM     15  C   UNL     1       0.133 -10.771 -11.647  0.00  0.00    +0.025 A 
ATOM     16  C   UNL     1       0.123  -9.600 -10.897  0.00  0.00    +0.023 A 
ATOM     17  C   UNL     1       0.117  -9.661  -9.520  0.00  0.00    +0.011 A 
BRANCH  15  18
ATOM     18  N   UNL     1       0.133 -10.704 -13.041  0.00  0.00    -0.358 N 
ATOM     19  H   UNL     1       0.140 -11.520 -13.565  0.00  0.00    +0.142 HD
ATOM     20  H   UNL     1       0.125  -9.842 -13.485  0.00  0.00    +0.142 HD
ENDBRANCH  15  18
ENDBRANCH  10  12
ENDBRANCH   6   9
BRANCH   1  21
ATOM     21  S   UNL     1       0.049  -4.927  -4.190  0.00  0.00    -0.076 S 
BRANCH  21  22
ATOM     22  C   UNL     1       0.050  -4.324  -2.479  0.00  0.00    +0.157 C 
BRANCH  22  23
ATOM     23  C   UNL     1       0.029  -2.818  -2.477  0.00  0.00    +0.173 C 
ATOM     24  O   UNL     1       0.015  -2.210  -3.526  0.00  0.00    -0.291 OA
BRANCH  23  28
ATOM     25  C   UNL     1      -0.018   1.503   0.010  0.00  0.00    +0.045 C 
ATOM     26  C   UNL     1       0.002  -0.004   0.002  0.00  0.00    -0.036 A 
ATOM     27  C   UNL     1       0.006  -0.685  -1.196  0.00  0.00    +0.015 A 
ATOM     28  C   UNL     1       0.025  -2.084  -1.202  0.00  0.00    +0.019 A 
ATOM     29  C   UNL     1       0.041  -2.781   0.011  0.00  0.00    +0.012 A 
ATOM     30  C   UNL     1       0.037  -2.087   1.201  0.00  0.00    +0.016 A 
ATOM     31  C   UNL     1       0.023  -0.701   1.199  0.00  0.00    +0.021 A 
ATOM     32 BR   UNL     1       0.026   0.242   2.837  0.00  0.00    -0.050 Br
ENDBRANCH  23  28
ENDBRANCH  22  23
ENDBRANCH  21  22
ENDBRANCH   1  21
TORSDOF 7
