REMARK  Name = ZINC36540283
REMARK  19 active torsions:
REMARK  status: ('A' for Active; 'I' for Inactive)
REMARK    1  A    between atoms: C_1  and  C_2
REMARK    2  A    between atoms: C_2  and  C_3
REMARK    3  A    between atoms: C_3  and  C_4
REMARK    4  A    between atoms: C_4  and  C_5
REMARK    5  A    between atoms: N_7  and  C_8
REMARK    6  A    between atoms: N_7  and  C_9
REMARK    7  A    between atoms: C_9  and  C_11
REMARK    8  A    between atoms: C_9  and  C_20
REMARK    9  A    between atoms: C_12  and  O_19
REMARK   10  A    between atoms: C_14  and  O_18
REMARK   11  A    between atoms: C_16  and  O_17
REMARK   12  A    between atoms: N_22  and  C_23
REMARK   13  A    between atoms: C_23  and  C_24
REMARK   14  A    between atoms: C_23  and  C_25
REMARK   15  A    between atoms: C_23  and  C_26
REMARK   16  A    between atoms: C_26  and  C_27
REMARK   17  A    between atoms: C_27  and  C_28
REMARK   18  A    between atoms: C_27  and  C_29
REMARK   19  A    between atoms: C_27  and  C_30
REMARK                            x       y       z     vdW  Elec       q    Type
REMARK                         _______ _______ _______ _____ _____    ______ ____
ROOT
ATOM      1  C   UNL     1      -5.612  -3.521   0.252  0.00  0.00    +0.199 C 
ENDROOT
BRANCH   1   2
ATOM      2  C   UNL     1      -4.974  -4.155  -0.957  0.00  0.00    +0.065 A 
ATOM      3  C   UNL     1      -4.921  -5.537  -1.069  0.00  0.00    +0.129 A 
ATOM      4  C   UNL     1      -4.335  -6.120  -2.182  0.00  0.00    +0.091 A 
ATOM      5  C   UNL     1      -3.802  -5.323  -3.183  0.00  0.00    +0.124 A 
ATOM      6  C   UNL     1      -3.856  -3.942  -3.072  0.00  0.00    +0.091 A 
ATOM      7  C   UNL     1      -4.446  -3.358  -1.961  0.00  0.00    +0.129 A 
BRANCH   7   8
ATOM      8  O   UNL     1      -4.503  -2.004  -1.855  0.00  0.00    -0.506 OA
ATOM      9  H   UNL     1      -3.738  -1.612  -1.412  0.00  0.00    +0.292 HD
ENDBRANCH   7   8
BRANCH   5  10
ATOM     10  O   UNL     1      -3.226  -5.895  -4.273  0.00  0.00    -0.507 OA
ATOM     11  H   UNL     1      -3.840  -6.058  -5.002  0.00  0.00    +0.292 HD
ENDBRANCH   5  10
BRANCH   3  12
ATOM     12  O   UNL     1      -5.444  -6.318  -0.087  0.00  0.00    -0.506 OA
ATOM     13  H   UNL     1      -6.378  -6.532  -0.211  0.00  0.00    +0.292 HD
ENDBRANCH   3  12
ENDBRANCH   1   2
BRANCH   1  16
ATOM     14  C   UNL     1      -5.253  -1.206   0.921  0.00  0.00    +0.216 C 
ATOM     15  O   UNL     1      -6.417  -0.982   0.663  0.00  0.00    -0.276 OA
ATOM     16  N   UNL     1      -4.752  -2.445   0.749  0.00  0.00    -0.289 N 
ATOM     17  C   UNL     1      -3.346  -2.716   1.060  0.00  0.00    +0.133 C 
BRANCH  14  18
ATOM     18  C   UNL     1      -4.368  -0.099   1.433  0.00  0.00    +0.096 C 
BRANCH  18  19
ATOM     19  C   UNL     1      -5.178   1.195   1.535  0.00  0.00    +0.009 C 
BRANCH  19  21
ATOM     20  C   UNL     1      -5.088   3.614   2.158  0.00  0.00    +0.004 C 
ATOM     21  C   UNL     1      -4.279   2.319   2.055  0.00  0.00    -0.003 C 
ENDBRANCH  19  21
ENDBRANCH  18  19
ENDBRANCH  14  18
ENDBRANCH   1  16
BRANCH   1  22
ATOM     22  C   UNL     1      -5.791  -4.560   1.329  0.00  0.00    +0.239 C 
ATOM     23  O   UNL     1      -4.905  -4.757   2.134  0.00  0.00    -0.273 OA
ATOM     24  N   UNL     1      -6.934  -5.270   1.397  0.00  0.00    -0.308 N 
ATOM     25  H   UNL     1      -7.623  -5.146   0.725  0.00  0.00    +0.149 HD
BRANCH  24  26
ATOM     26  C   UNL     1      -7.137  -6.229   2.485  0.00  0.00    +0.030 C 
ATOM     27  C   UNL     1      -6.172  -7.404   2.316  0.00  0.00    +0.031 C 
ATOM     28  C   UNL     1      -6.873  -5.542   3.827  0.00  0.00    +0.031 C 
BRANCH  26  29
ATOM     29  C   UNL     1      -8.578  -6.744   2.450  0.00  0.00    +0.031 C 
BRANCH  29  30
ATOM     30  C   UNL     1      -9.532  -5.572   2.210  0.00  0.00    -0.036 C 
ATOM     31  C   UNL     1      -9.685  -5.339   0.706  0.00  0.00    +0.010 C 
ATOM     32  C   UNL     1     -10.898  -5.894   2.818  0.00  0.00    +0.010 C 
ATOM     33  C   UNL     1      -8.966  -4.311   2.867  0.00  0.00    +0.010 C 
ENDBRANCH  29  30
ENDBRANCH  26  29
ENDBRANCH  24  26
ENDBRANCH   1  22
TORSDOF 12
