REMARK  Name = ZINC41001935
REMARK  16 active torsions:
REMARK  status: ('A' for Active; 'I' for Inactive)
REMARK    1  A    between atoms: C_1  and  C_2
REMARK    2  A    between atoms: C_2  and  C_3
REMARK    3  A    between atoms: C_3  and  O_4
REMARK    4  A    between atoms: O_4  and  C_5
REMARK    5  A    between atoms: C_5  and  C_7
REMARK    6  A    between atoms: C_8  and  C_37
REMARK    7  A    between atoms: C_12  and  S_34
REMARK    8  A    between atoms: C_15  and  C_17
REMARK    9  A    between atoms: C_20  and  O_25
REMARK   10  A    between atoms: C_21  and  O_23
REMARK   11  A    between atoms: O_23  and  C_24
REMARK   12  A    between atoms: O_25  and  C_26
REMARK   13  A    between atoms: C_26  and  C_27
REMARK   14  A    between atoms: C_30  and  C_33
REMARK   15  A    between atoms: S_34  and  C_35
REMARK   16  A    between atoms: C_35  and  C_36
REMARK                            x       y       z     vdW  Elec       q    Type
REMARK                         _______ _______ _______ _____ _____    ______ ____
ROOT
ATOM      1  C   UNL     1       1.587  -3.945  -2.311  0.00  0.00    +0.082 C 
ATOM      2  C   UNL     1       1.909  -4.499  -3.490  0.00  0.00    +0.020 C 
ATOM      3  N   UNL     1       1.812  -5.850  -3.714  0.00  0.00    -0.287 N 
ATOM      4  C   UNL     1       1.621  -6.669  -2.610  0.00  0.00    +0.219 A 
ATOM      5  N   UNL     1       1.713  -7.966  -2.501  0.00  0.00    -0.187 NA
ATOM      6  C   UNL     1       1.447  -8.329  -1.237  0.00  0.00    +0.210 A 
ATOM      7  N   UNL     1       1.181  -7.253  -0.529  0.00  0.00    -0.141 NA
ATOM      8  N   UNL     1       1.284  -6.167  -1.396  0.00  0.00    -0.220 N 
ATOM      9  C   UNL     1       1.087  -4.744  -1.137  0.00  0.00    +0.179 C 
ATOM     10  C   UNL     1       2.394  -3.609  -4.605  0.00  0.00    +0.061 C 
ATOM     11  H   UNL     1       1.875  -6.218  -4.609  0.00  0.00    +0.155 HD
ENDROOT
BRANCH   9  12
ATOM     12  C   UNL     1      -0.381  -4.473  -0.934  0.00  0.00    -0.015 A 
ATOM     13  C   UNL     1      -1.282  -4.767  -1.940  0.00  0.00    +0.010 A 
ATOM     14  C   UNL     1      -2.631  -4.520  -1.759  0.00  0.00    +0.050 A 
ATOM     15  C   UNL     1      -3.081  -3.979  -0.566  0.00  0.00    +0.162 A 
ATOM     16  C   UNL     1      -2.174  -3.684   0.448  0.00  0.00    +0.162 A 
ATOM     17  C   UNL     1      -0.825  -3.938   0.261  0.00  0.00    +0.055 A 
BRANCH  16  18
ATOM     18  O   UNL     1      -2.612  -3.152   1.620  0.00  0.00    -0.491 OA
ATOM     19  C   UNL     1      -1.625  -2.875   2.615  0.00  0.00    +0.277 C 
ENDBRANCH  16  18
BRANCH  15  20
ATOM     20  O   UNL     1      -4.407  -3.735  -0.386  0.00  0.00    -0.484 OA
BRANCH  20  21
ATOM     21  C   UNL     1      -5.280  -4.062  -1.469  0.00  0.00    +0.264 C 
BRANCH  21  22
ATOM     22  C   UNL     1      -6.699  -3.726  -1.090  0.00  0.00    -0.010 A 
ATOM     23  C   UNL     1      -7.490  -4.672  -0.465  0.00  0.00    +0.007 A 
ATOM     24  C   UNL     1      -8.792  -4.363  -0.117  0.00  0.00    +0.004 A 
ATOM     25  C   UNL     1      -9.303  -3.109  -0.394  0.00  0.00    -0.050 A 
ATOM     26  C   UNL     1      -8.512  -2.163  -1.019  0.00  0.00    +0.004 A 
ATOM     27  C   UNL     1      -7.208  -2.470  -1.363  0.00  0.00    +0.007 A 
ATOM     28  C   UNL     1     -10.722  -2.773  -0.016  0.00  0.00    +0.044 C 
ENDBRANCH  21  22
ENDBRANCH  20  21
ENDBRANCH  15  20
ENDBRANCH   9  12
BRANCH   1  29
ATOM     29  C   UNL     1       1.729  -2.547  -2.163  0.00  0.00    +0.339 C 
ATOM     30  O   UNL     1       2.713  -2.091  -1.611  0.00  0.00    -0.245 OA
BRANCH  29  31
ATOM     31  O   UNL     1       0.773  -1.718  -2.632  0.00  0.00    -0.461 OA
BRANCH  31  32
ATOM     32  C   UNL     1       0.982  -0.317  -2.448  0.00  0.00    +0.232 C 
BRANCH  32  34
ATOM     33  C   UNL     1       0.026   1.957  -2.843  0.00  0.00    +0.007 C 
ATOM     34  C   UNL     1      -0.198   0.457  -3.041  0.00  0.00    +0.038 C 
ENDBRANCH  32  34
ENDBRANCH  31  32
ENDBRANCH  29  31
ENDBRANCH   1  29
BRANCH   6  35
ATOM     35  S   UNL     1       1.454  -9.981  -0.624  0.00  0.00    -0.085 S 
BRANCH  35  36
ATOM     36  C   UNL     1       1.888 -10.985  -2.072  0.00  0.00    +0.074 C 
ATOM     37  C   UNL     1       1.929 -12.462  -1.675  0.00  0.00    +0.016 C 
ENDBRANCH  35  36
ENDBRANCH   6  35
TORSDOF 11
