REMARK  Name = ZINC05607265
REMARK  2 active torsions:
REMARK  status: ('A' for Active; 'I' for Inactive)
REMARK    1  A    between atoms: C_1  and  N_2
REMARK    2  A    between atoms: C_11  and  O_13
REMARK                            x       y       z     vdW  Elec       q    Type
REMARK                         _______ _______ _______ _____ _____    ______ ____
ROOT
ATOM      1  C   UNL     1       2.174   5.198   0.696  0.00  0.00    +0.132 C 
ATOM      2  N   UNL     1       2.347   3.925  -0.016  0.00  0.00    -0.304 N 
ATOM      3  C   UNL     1       1.166   3.177   0.002  0.00  0.00    +0.054 A 
ATOM      4  C   UNL     1      -0.053   3.847   0.019  0.00  0.00    +0.046 A 
ATOM      5  C   UNL     1      -1.238   3.135   0.030  0.00  0.00    +0.061 A 
ATOM      6  C   UNL     1      -1.220   1.751   0.017  0.00  0.00    +0.061 A 
ATOM      7  C   UNL     1      -0.013   1.076   0.008  0.00  0.00    +0.046 A 
ATOM      8  C   UNL     1       1.179   1.785   0.000  0.00  0.00    +0.051 A 
ATOM      9  N   UNL     1       2.398   1.087   0.001  0.00  0.00    -0.319 N 
ATOM     10  C   UNL     1       3.627   1.857  -0.253  0.00  0.00    +0.229 C 
ATOM     11  C   UNL     1       3.501   3.186   0.502  0.00  0.00    +0.244 C 
ATOM     12  C   UNL     1       4.812   1.093   0.262  0.00  0.00    +0.257 C 
ATOM     13  O   UNL     1       4.861   0.802   1.438  0.00  0.00    -0.272 OA
ATOM     14  N   UNL     1       5.819   0.724  -0.543  0.00  0.00    -0.238 N 
ATOM     15  C   UNL     1       5.825   1.019  -1.851  0.00  0.00    +0.312 C 
ATOM     16  O   UNL     1       6.763   0.660  -2.535  0.00  0.00    -0.252 OA
ATOM     17  N   UNL     1       4.822   1.700  -2.426  0.00  0.00    -0.238 N 
ATOM     18  C   UNL     1       3.759   2.121  -1.724  0.00  0.00    +0.257 C 
ATOM     19  O   UNL     1       2.881   2.733  -2.294  0.00  0.00    -0.272 OA
ATOM     20 CL   UNL     1      -2.712   0.864   0.020  0.00  0.00    -0.082 Cl
ATOM     21 CL   UNL     1      -2.753   3.981   0.053  0.00  0.00    -0.082 Cl
ATOM     22  H   UNL     1       2.430   0.132   0.164  0.00  0.00    +0.148 HD
ATOM     23  H   UNL     1       6.566   0.231  -0.168  0.00  0.00    +0.159 HD
ATOM     24  H   UNL     1       4.866   1.893  -3.375  0.00  0.00    +0.159 HD
ENDROOT
BRANCH  11  25
ATOM     25  O   UNL     1       4.688   3.958   0.311  0.00  0.00    -0.371 OA
ATOM     26  H   UNL     1       4.676   4.816   0.758  0.00  0.00    +0.212 HD
ENDBRANCH  11  25
TORSDOF 1
