REMARK  Name = ZINC01510852
REMARK  7 active torsions:
REMARK  status: ('A' for Active; 'I' for Inactive)
REMARK    1  A    between atoms: C_1  and  C_2
REMARK    2  A    between atoms: C_5  and  C_8
REMARK    3  A    between atoms: C_17  and  C_20
REMARK    4  A    between atoms: N_22  and  N_23
REMARK    5  A    between atoms: C_24  and  C_25
REMARK    6  A    between atoms: C_28  and  O_32
REMARK    7  A    between atoms: C_29  and  O_31
REMARK                            x       y       z     vdW  Elec       q    Type
REMARK                         _______ _______ _______ _____ _____    ______ ____
ROOT
ATOM      1  C   UNL     1       1.479   7.755   1.279  0.00  0.00    -0.003 C 
ATOM      2  C   UNL     1       0.739   8.262   0.039  0.00  0.00    +0.015 C 
ATOM      3  C   UNL     1       1.455   7.768  -1.219  0.00  0.00    -0.009 C 
ATOM      4  C   UNL     1       2.890   8.298  -1.230  0.00  0.00    +0.007 C 
ATOM      5  C   UNL     1       3.630   7.791   0.009  0.00  0.00    -0.009 C 
ATOM      6  C   UNL     1       2.914   8.284   1.268  0.00  0.00    +0.015 C 
ATOM      7  C   UNL     1       3.651   6.261   0.001  0.00  0.00    +0.019 C 
ATOM      8  C   UNL     1       2.216   5.732   0.012  0.00  0.00    +0.050 C 
ATOM      9  C   UNL     1       1.476   6.238  -1.228  0.00  0.00    +0.019 C 
ATOM     10  C   UNL     1       1.499   6.225   1.270  0.00  0.00    +0.027 C 
ENDROOT
BRANCH   1  15
ATOM     11  C   UNL     1      -1.228   9.618   6.032  0.00  0.00    +0.044 C 
ATOM     12  C   UNL     1      -0.521   9.132   4.793  0.00  0.00    -0.050 A 
ATOM     13  C   UNL     1      -0.017  10.043   3.883  0.00  0.00    +0.003 A 
ATOM     14  C   UNL     1       0.631   9.597   2.746  0.00  0.00    +0.004 A 
ATOM     15  C   UNL     1       0.773   8.241   2.519  0.00  0.00    -0.041 A 
ATOM     16  C   UNL     1       0.264   7.330   3.426  0.00  0.00    +0.004 A 
ATOM     17  C   UNL     1      -0.379   7.776   4.566  0.00  0.00    +0.003 A 
ENDBRANCH   1  15
BRANCH   8  18
ATOM     18  C   UNL     1       2.236   4.225   0.003  0.00  0.00    +0.238 C 
ATOM     19  O   UNL     1       3.295   3.632  -0.010  0.00  0.00    -0.273 OA
ATOM     20  N   UNL     1       1.078   3.535   0.011  0.00  0.00    -0.207 N 
ATOM     21  H   UNL     1       0.118   4.072   0.023  0.00  0.00    +0.177 HD
BRANCH  20  22
ATOM     22  N   UNL     1       1.097   2.134   0.003  0.00  0.00    -0.188 NA
ATOM     23  C   UNL     1      -0.018   1.470   0.010  0.00  0.00    +0.138 C 
BRANCH  23  24
ATOM     24  C   UNL     1       0.002  -0.004   0.002  0.00  0.00    -0.002 A 
ATOM     25  C   UNL     1       1.220  -0.688  -0.013  0.00  0.00    +0.013 A 
ATOM     26  C   UNL     1       1.237  -2.067  -0.021  0.00  0.00    +0.050 A 
ATOM     27  C   UNL     1       0.046  -2.778  -0.013  0.00  0.00    +0.158 A 
ATOM     28  C   UNL     1      -1.173  -2.103   0.002  0.00  0.00    +0.159 A 
ATOM     29  C   UNL     1      -1.197  -0.721   0.015  0.00  0.00    +0.058 A 
BRANCH  28  30
ATOM     30  O   UNL     1      -2.338  -2.804   0.010  0.00  0.00    -0.503 OA
ATOM     31  H   UNL     1      -3.300  -2.271   0.022  0.00  0.00    +0.292 HD
ENDBRANCH  28  30
BRANCH  27  32
ATOM     32  O   UNL     1       0.068  -4.137  -0.021  0.00  0.00    -0.503 OA
ATOM     33  H   UNL     1      -0.876  -4.703  -0.015  0.00  0.00    +0.292 HD
ENDBRANCH  27  32
ENDBRANCH  23  24
ENDBRANCH  20  22
ENDBRANCH   8  18
TORSDOF 6
