REMARK  Name = ZINC39012175
REMARK  8 active torsions:
REMARK  status: ('A' for Active; 'I' for Inactive)
REMARK    1  A    between atoms: C_2  and  C_32
REMARK    2  A    between atoms: C_4  and  N_11
REMARK    3  A    between atoms: C_6  and  C_7
REMARK    4  A    between atoms: C_12  and  C_14
REMARK    5  A    between atoms: C_14  and  S_15
REMARK    6  A    between atoms: S_15  and  C_16
REMARK    7  A    between atoms: C_19  and  C_23
REMARK    8  A    between atoms: N_21  and  N_22
REMARK                            x       y       z     vdW  Elec       q    Type
REMARK                         _______ _______ _______ _____ _____    ______ ____
ROOT
ATOM      1  C   UNL     1       4.962  -2.721   0.153  0.00  0.00    +0.173 C 
ENDROOT
BRANCH   1   3
ATOM      2  N   UNL     1       3.622  -0.651  -0.037  0.00  0.00    -0.285 N 
ATOM      3  C   UNL     1       3.645  -1.995   0.057  0.00  0.00    +0.227 C 
ATOM      4  O   UNL     1       2.606  -2.620   0.064  0.00  0.00    -0.275 OA
ATOM      5  H   UNL     1       4.452  -0.156  -0.121  0.00  0.00    +0.155 HD
BRANCH   2   9
ATOM      6  C   UNL     1      -0.015   1.381   0.029  0.00  0.00    +0.024 A 
ATOM      7  C   UNL     1       0.140   0.218   0.763  0.00  0.00    +0.057 A 
ATOM      8  C   UNL     1       1.344  -0.457   0.743  0.00  0.00    +0.035 A 
ATOM      9  C   UNL     1       2.400   0.031  -0.015  0.00  0.00    +0.034 A 
ATOM     10  C   UNL     1       2.241   1.198  -0.751  0.00  0.00    +0.035 A 
ATOM     11  C   UNL     1       1.034   1.870  -0.727  0.00  0.00    +0.057 A 
BRANCH  11  12
ATOM     12  C   UNL     1       0.861   3.136  -1.525  0.00  0.00    +0.417 C 
ATOM     13  F   UNL     1       1.222   4.236  -0.739  0.00  0.00    -0.166 F 
ATOM     14  F   UNL     1       1.677   3.087  -2.660  0.00  0.00    -0.166 F 
ATOM     15  F   UNL     1      -0.476   3.261  -1.916  0.00  0.00    -0.166 F 
ENDBRANCH  11  12
BRANCH   7  16
ATOM     16  C   UNL     1      -1.007  -0.311   1.585  0.00  0.00    +0.417 C 
ATOM     17  F   UNL     1      -1.776  -1.182   0.806  0.00  0.00    -0.166 F 
ATOM     18  F   UNL     1      -0.506  -0.998   2.696  0.00  0.00    -0.166 F 
ATOM     19  F   UNL     1      -1.803   0.756   2.016  0.00  0.00    -0.166 F 
ENDBRANCH   7  16
ENDBRANCH   2   9
ENDBRANCH   1   3
BRANCH   1  20
ATOM     20  S   UNL     1       4.661  -4.506   0.267  0.00  0.00    -0.078 S 
BRANCH  20  21
ATOM     21  C   UNL     1       6.276  -5.205   0.371  0.00  0.00    +0.189 C 
ATOM     22  N   UNL     1       7.364  -4.512   0.366  0.00  0.00    -0.161 NA
ATOM     23  N   UNL     1       8.495  -5.333   0.461  0.00  0.00    -0.243 N 
ATOM     24  C   UNL     1       7.992  -6.716   0.533  0.00  0.00    +0.222 C 
ATOM     25  N   UNL     1       6.529  -6.564   0.474  0.00  0.00    -0.223 N 
ATOM     26  H   UNL     1       9.422  -5.048   0.476  0.00  0.00    +0.170 HD
BRANCH  24  27
ATOM     27  C   UNL     1       8.411  -7.371   1.850  0.00  0.00    +0.197 C 
ATOM     28  C   UNL     1       9.919  -7.383   1.989  0.00  0.00    -0.017 C 
ATOM     29  C   UNL     1      10.166  -6.654   3.075  0.00  0.00    +0.065 C 
ATOM     30  C   UNL     1      11.662  -6.589   3.323  0.00  0.00    +0.057 C 
ATOM     31  C   UNL     1      12.260  -7.737   2.479  0.00  0.00    +0.011 C 
ATOM     32  C   UNL     1      11.193  -7.899   1.372  0.00  0.00    +0.035 C 
ATOM     33  N   UNL     1       8.996  -6.206   3.608  0.00  0.00    -0.158 NA
ATOM     34  N   UNL     1       7.980  -6.556   2.999  0.00  0.00    -0.176 NA
ENDBRANCH  24  27
BRANCH  25  35
ATOM     35  N   UNL     1       5.602  -7.567   0.512  0.00  0.00    -0.250 NA
ATOM     36  H   UNL     1       4.665  -7.196   0.453  0.00  0.00    +0.141 HD
ATOM     37  H   UNL     1       5.769  -8.242  -0.219  0.00  0.00    +0.141 HD
ENDBRANCH  25  35
ENDBRANCH  20  21
ENDBRANCH   1  20
TORSDOF 8
