REMARK  Name = ZINC39335232
REMARK  7 active torsions:
REMARK  status: ('A' for Active; 'I' for Inactive)
REMARK    1  A    between atoms: C_6  and  N_7
REMARK    2  A    between atoms: C_8  and  C_10
REMARK    3  A    between atoms: C_10  and  S_11
REMARK    4  A    between atoms: S_11  and  C_12
REMARK    5  A    between atoms: C_13  and  C_26
REMARK    6  A    between atoms: C_20  and  C_24
REMARK    7  A    between atoms: C_21  and  N_23
REMARK                            x       y       z     vdW  Elec       q    Type
REMARK                         _______ _______ _______ _____ _____    ______ ____
ROOT
ATOM      1  C   UNL     1      -3.720  -5.346  -0.450  0.00  0.00    +0.081 C 
ATOM      2  C   UNL     1      -3.825  -6.696  -0.558  0.00  0.00    +0.068 C 
ATOM      3  C   UNL     1      -5.162  -7.379  -0.646  0.00  0.00    +0.045 C 
ATOM      4  C   UNL     1      -5.106  -8.464  -1.726  0.00  0.00    +0.018 C 
ATOM      5  C   UNL     1      -6.464  -9.162  -1.817  0.00  0.00    +0.001 C 
ATOM      6  C   UNL     1      -6.798  -9.806  -0.470  0.00  0.00    +0.000 C 
ATOM      7  C   UNL     1      -6.847  -8.728   0.613  0.00  0.00    +0.001 C 
ATOM      8  C   UNL     1      -5.489  -8.030   0.701  0.00  0.00    +0.018 C 
ATOM      9  C   UNL     1      -6.241  -6.390  -0.994  0.00  0.00    +0.076 C 
ATOM     10  C   UNL     1      -6.048  -5.052  -0.871  0.00  0.00    +0.100 C 
ATOM     11  N   UNL     1      -4.845  -4.553  -0.422  0.00  0.00    -0.296 N 
ATOM     12  H   UNL     1      -4.790  -3.643  -0.090  0.00  0.00    +0.154 HD
ENDROOT
BRANCH  10  13
ATOM     13  N   UNL     1      -7.066  -4.187  -1.192  0.00  0.00    -0.346 N 
ATOM     14  H   UNL     1      -7.916  -4.533  -1.504  0.00  0.00    +0.143 HD
ATOM     15  H   UNL     1      -6.934  -3.230  -1.105  0.00  0.00    +0.143 HD
ENDBRANCH  10  13
BRANCH   9  16
ATOM     16  C   UNL     1      -7.503  -6.872  -1.468  0.00  0.00    +0.099 C 
ATOM     17  N   UNL     1      -8.505  -7.255  -1.844  0.00  0.00    -0.191 NA
ENDBRANCH   9  16
BRANCH   2  18
ATOM     18  C   UNL     1      -2.633  -7.489  -0.589  0.00  0.00    +0.098 C 
ATOM     19  N   UNL     1      -1.688  -8.118  -0.613  0.00  0.00    -0.191 NA
ENDBRANCH   2  18
BRANCH   1  20
ATOM     20  S   UNL     1      -2.127  -4.602  -0.337  0.00  0.00    -0.100 S 
BRANCH  20  21
ATOM     21  C   UNL     1      -2.480  -2.828  -0.204  0.00  0.00    +0.171 C 
BRANCH  21  23
ATOM     22  N   UNL     1      -1.200  -0.722   0.010  0.00  0.00    -0.285 N 
ATOM     23  C   UNL     1      -1.184  -2.065  -0.099  0.00  0.00    +0.227 C 
ATOM     24  O   UNL     1      -0.127  -2.660  -0.113  0.00  0.00    -0.275 OA
ATOM     25  H   UNL     1      -2.045  -0.252   0.098  0.00  0.00    +0.155 HD
BRANCH  22  31
ATOM     26  C   UNL     1       1.071  -0.454  -0.766  0.00  0.00    +0.026 A 
ATOM     27  C   UNL     1       2.256   0.256  -0.779  0.00  0.00    +0.040 A 
ATOM     28  C   UNL     1       2.378   1.416  -0.032  0.00  0.00    +0.124 A 
ATOM     29  C   UNL     1       1.312   1.866   0.730  0.00  0.00    +0.040 A 
ATOM     30  C   UNL     1       0.126   1.159   0.745  0.00  0.00    +0.026 A 
ATOM     31  C   UNL     1       0.002  -0.004  -0.004  0.00  0.00    +0.034 A 
ATOM     32  F   UNL     1       3.538   2.108  -0.045  0.00  0.00    -0.205 F 
ENDBRANCH  22  31
ENDBRANCH  21  23
ENDBRANCH  20  21
ENDBRANCH   1  20
TORSDOF 7
