REMARK  Name = ZINC09260429
REMARK  6 active torsions:
REMARK  status: ('A' for Active; 'I' for Inactive)
REMARK    1  A    between atoms: C_1  and  C_2
REMARK    2  A    between atoms: C_4  and  C_15
REMARK    3  A    between atoms: C_5  and  C_14
REMARK    4  A    between atoms: N_6  and  C_7
REMARK    5  A    between atoms: C_10  and  O_13
REMARK    6  A    between atoms: N_22  and  C_25
REMARK                            x       y       z     vdW  Elec       q    Type
REMARK                         _______ _______ _______ _____ _____    ______ ____
ROOT
ATOM      1  C   UNL     1       5.562   0.084   1.350  0.00  0.00    +0.028 C 
ATOM      2  C   UNL     1       6.173  -1.157   1.281  0.00  0.00    +0.100 C 
ATOM      3  C   UNL     1       7.335  -1.491   2.126  0.00  0.00    +0.255 C 
ATOM      4  O   UNL     1       7.791  -0.681   2.910  0.00  0.00    -0.270 OA
ATOM      5  N   UNL     1       7.878  -2.720   2.004  0.00  0.00    -0.263 N 
ATOM      6  C   UNL     1       7.386  -3.622   1.144  0.00  0.00    +0.151 C 
ATOM      7  S   UNL     1       8.140  -5.157   1.059  0.00  0.00    -0.018 S 
ATOM      8  N   UNL     1       6.334  -3.387   0.347  0.00  0.00    -0.216 N 
ATOM      9  C   UNL     1       5.686  -2.204   0.365  0.00  0.00    +0.262 C 
ATOM     10  O   UNL     1       4.729  -2.005  -0.360  0.00  0.00    -0.269 OA
ATOM     11  H   UNL     1       8.643  -2.956   2.553  0.00  0.00    +0.157 HD
ENDROOT
BRANCH   8  12
ATOM     12  C   UNL     1       5.893  -4.396  -0.520  0.00  0.00    +0.063 A 
ATOM     13  C   UNL     1       4.940  -5.312  -0.094  0.00  0.00    +0.025 A 
ATOM     14  C   UNL     1       4.503  -6.302  -0.952  0.00  0.00    +0.003 A 
ATOM     15  C   UNL     1       5.022  -6.390  -2.231  0.00  0.00    +0.021 A 
ATOM     16  C   UNL     1       5.976  -5.484  -2.658  0.00  0.00    +0.061 A 
ATOM     17  C   UNL     1       6.414  -4.486  -1.805  0.00  0.00    +0.081 A 
ATOM     18 CL   UNL     1       7.611  -3.349  -2.339  0.00  0.00    -0.080 Cl
ATOM     19 CL   UNL     1       6.624  -5.598  -4.264  0.00  0.00    -0.082 Cl
ENDBRANCH   8  12
BRANCH   1  23
ATOM     20  C   UNL     1       3.104   0.742  -3.011  0.00  0.00    +0.064 C 
ATOM     21  C   UNL     1       3.489   0.731  -1.554  0.00  0.00    +0.022 A 
ATOM     22  C   UNL     1       4.636   0.241  -1.057  0.00  0.00    +0.031 A 
ATOM     23  C   UNL     1       4.577   0.442   0.399  0.00  0.00    -0.003 A 
ATOM     24  C   UNL     1       3.361   1.062   0.647  0.00  0.00    +0.028 A 
ATOM     25  N   UNL     1       2.725   1.219  -0.529  0.00  0.00    -0.317 N 
ATOM     26  C   UNL     1       2.839   1.481   1.997  0.00  0.00    +0.064 C 
BRANCH  25  27
ATOM     27  C   UNL     1       1.461   1.807  -0.683  0.00  0.00    +0.047 A 
ATOM     28  C   UNL     1       0.394   1.047  -1.145  0.00  0.00    +0.030 A 
ATOM     29  C   UNL     1      -0.849   1.627  -1.301  0.00  0.00    +0.047 A 
ATOM     30  C   UNL     1      -1.035   2.966  -0.987  0.00  0.00    +0.117 A 
ATOM     31  C   UNL     1       0.031   3.725  -0.526  0.00  0.00    +0.047 A 
ATOM     32  C   UNL     1       1.276   3.147  -0.374  0.00  0.00    +0.030 A 
BRANCH  30  33
ATOM     33  O   UNL     1      -2.260   3.535  -1.136  0.00  0.00    -0.507 OA
ATOM     34  H   UNL     1      -2.412   3.920  -2.010  0.00  0.00    +0.292 HD
ENDBRANCH  30  33
ENDBRANCH  25  27
ENDBRANCH   1  23
TORSDOF 4
