REMARK  Name = ZINC01591537
REMARK  4 active torsions:
REMARK  status: ('A' for Active; 'I' for Inactive)
REMARK    1  A    between atoms: C_2  and  N_16
REMARK    2  A    between atoms: C_6  and  C_12
REMARK    3  A    between atoms: CA_7  and  C_9
REMARK    4  A    between atoms: C_12  and  C_13
REMARK                            x       y       z     vdW  Elec       q    Type
REMARK                         _______ _______ _______ _____ _____    ______ ____
ROOT
ATOM      1  C   UNL     1      -2.627   3.939   0.712  0.00  0.00    +0.093 C 
ATOM      2  C   UNL     1      -3.722   3.447  -0.242  0.00  0.00    +0.015 C 
ATOM      3  C   UNL     1      -3.687   1.941  -0.296  0.00  0.00    +0.149 C 
ATOM      4  O   UNL     1      -4.706   1.321  -0.524  0.00  0.00    -0.294 OA
ATOM      5  C   UNL     1      -2.478   1.247  -0.087  0.00  0.00    +0.032 C 
ATOM      6  CA  UNL     1      -1.337   1.917   0.223  0.00  0.00    +0.123 C 
ATOM      7  N   UNL     1      -1.362   3.291   0.334  0.00  0.00    -0.339 N 
ATOM      8  H   UNL     1      -0.466   3.900   0.148  0.00  0.00    +0.146 HD
ENDROOT
BRANCH   2   9
ATOM      9  N   UNL     1      -3.486   3.994  -1.585  0.00  0.00    +0.386 N 
ATOM     10  H   UNL     1      -4.273   3.641  -2.268  0.00  0.00    -0.089 HD
ATOM     11  H   UNL     1      -2.505   3.659  -1.950  0.00  0.00    -0.089 HD
ATOM     12  H   UNL     1      -3.505   5.093  -1.541  0.00  0.00    -0.089 HD
ENDBRANCH   2   9
BRANCH   6  13
ATOM     13  C   UNL     1      -0.069   1.175   0.435  0.00  0.00    +0.400 C 
ATOM     14  O   UNL     1      -0.072  -0.038   0.448  0.00  0.00    -0.239 OA
ATOM     15  OXT UNL     1       1.085   1.848   0.606  0.00  0.00    -0.239 OA
ENDBRANCH   6  13
BRANCH   5  16
ATOM     16  C   UNL     1      -2.451  -0.255  -0.205  0.00  0.00    +0.165 C 
BRANCH  16  17
ATOM     17  C   UNL     1      -2.750  -0.869   1.138  0.00  0.00    +0.360 C 
ATOM     18  O   UNL     1      -2.964  -0.160   2.093  0.00  0.00    -0.246 OA
ATOM     19  O   UNL     1      -2.780  -2.204   1.274  0.00  0.00    -0.246 OA
ENDBRANCH  16  17
ENDBRANCH   5  16
TORSDOF 4
