REMARK  Name = ZINC18166543
REMARK  8 active torsions:
REMARK  status: ('A' for Active; 'I' for Inactive)
REMARK    1  A    between atoms: C_1  and  C_2
REMARK    2  A    between atoms: C_5  and  S_8
REMARK    3  A    between atoms: S_8  and  C_9
REMARK    4  A    between atoms: C_9  and  C_10
REMARK    5  A    between atoms: C_14  and  N_16
REMARK    6  A    between atoms: N_19  and  C_20
REMARK    7  A    between atoms: C_23  and  O_26
REMARK    8  A    between atoms: O_26  and  C_27
REMARK                            x       y       z     vdW  Elec       q    Type
REMARK                         _______ _______ _______ _____ _____    ______ ____
ROOT
ATOM      1  C   UNL     1      -0.826  -6.377   0.689  0.00  0.00    +0.034 A 
ATOM      2  C   UNL     1       0.180  -6.891  -0.048  0.00  0.00    +0.094 A 
ATOM      3  C   UNL     1       0.353  -8.299  -0.093  0.00  0.00    +0.275 A 
ATOM      4  N   UNL     1      -0.480  -9.091   0.592  0.00  0.00    -0.173 NA
ATOM      5  C   UNL     1      -1.464  -8.573   1.312  0.00  0.00    +0.234 A 
ATOM      6  N   UNL     1      -1.650  -7.221   1.378  0.00  0.00    -0.327 N 
ATOM      7  O   UNL     1       1.258  -8.786  -0.755  0.00  0.00    -0.266 OA
ATOM      8  H   UNL     1      -2.373  -6.859   1.914  0.00  0.00    +0.169 HD
ENDROOT
BRANCH   5   9
ATOM      9  N   UNL     1      -2.286  -9.388   1.992  0.00  0.00    -0.179 NA
ATOM     10  C   UNL     1      -2.037 -10.685   2.043  0.00  0.00    +0.203 C 
ATOM     11  N   UNL     1      -3.031 -11.559   2.382  0.00  0.00    -0.369 N 
ATOM     12  N   UNL     1      -0.785 -11.152   1.759  0.00  0.00    -0.326 N 
ATOM     13  H   UNL     1      -3.941 -11.240   2.489  0.00  0.00    +0.159 HD
ATOM     14  H   UNL     1      -0.060 -10.529   1.596  0.00  0.00    +0.169 HD
ATOM     15  H   UNL     1      -2.827 -12.498   2.514  0.00  0.00    +0.159 HD
BRANCH  12  16
ATOM     16  C   UNL     1      -0.548 -12.532   1.701  0.00  0.00    +0.042 A 
ATOM     17  C   UNL     1      -1.544 -13.389   1.253  0.00  0.00    +0.029 A 
ATOM     18  C   UNL     1      -1.310 -14.749   1.197  0.00  0.00    +0.047 A 
ATOM     19  C   UNL     1      -0.080 -15.258   1.589  0.00  0.00    +0.120 A 
ATOM     20  C   UNL     1       0.915 -14.402   2.037  0.00  0.00    +0.047 A 
ATOM     21  C   UNL     1       0.685 -13.042   2.087  0.00  0.00    +0.029 A 
BRANCH  19  22
ATOM     22  O   UNL     1       0.149 -16.598   1.534  0.00  0.00    -0.495 OA
ATOM     23  C   UNL     1       1.438 -17.052   1.952  0.00  0.00    +0.277 C 
ENDBRANCH  19  22
ENDBRANCH  12  16
ENDBRANCH   5   9
BRANCH   1  24
ATOM     24  C   UNL     1      -1.035  -4.886   0.756  0.00  0.00    +0.127 C 
BRANCH  24  25
ATOM     25  S   UNL     1      -2.473  -4.431  -0.253  0.00  0.00    -0.119 S 
BRANCH  25  30
ATOM     26  C   UNL     1      -2.852   1.562   0.366  0.00  0.00    +0.044 C 
ATOM     27  C   UNL     1      -2.757   0.065   0.211  0.00  0.00    -0.050 A 
ATOM     28  C   UNL     1      -3.674  -0.606  -0.577  0.00  0.00    +0.004 A 
ATOM     29  C   UNL     1      -3.590  -1.977  -0.721  0.00  0.00    +0.015 A 
ATOM     30  C   UNL     1      -2.583  -2.682  -0.072  0.00  0.00    +0.008 A 
ATOM     31  C   UNL     1      -1.664  -2.003   0.719  0.00  0.00    +0.015 A 
ATOM     32  C   UNL     1      -1.750  -0.632   0.854  0.00  0.00    +0.004 A 
ENDBRANCH  25  30
ENDBRANCH  24  25
ENDBRANCH   1  24
TORSDOF 6
