REMARK  Name = ZINC55154372
REMARK  10 active torsions:
REMARK  status: ('A' for Active; 'I' for Inactive)
REMARK    1  A    between atoms: C_1  and  C_2
REMARK    2  A    between atoms: C_2  and  S_3
REMARK    3  A    between atoms: S_3  and  C_4
REMARK    4  A    between atoms: C_9  and  N_10
REMARK    5  A    between atoms: N_10  and  C_11
REMARK    6  A    between atoms: C_11  and  C_13
REMARK    7  A    between atoms: C_11  and  C_14
REMARK    8  A    between atoms: N_16  and  C_17
REMARK    9  A    between atoms: C_20  and  S_23
REMARK   10  A    between atoms: S_23  and  N_26
REMARK                            x       y       z     vdW  Elec       q    Type
REMARK                         _______ _______ _______ _____ _____    ______ ____
ROOT
ATOM      1  C   UNL     1      -6.256  -2.788   0.649  0.00  0.00    +0.237 C 
ATOM      2  O   UNL     1      -6.112  -1.653   1.051  0.00  0.00    -0.273 OA
ATOM      3  N   UNL     1      -7.454  -3.396   0.759  0.00  0.00    -0.284 N 
ATOM      4  H   UNL     1      -7.588  -4.278   0.378  0.00  0.00    +0.155 HD
ENDROOT
BRANCH   3   5
ATOM      5  C   UNL     1      -8.505  -2.754   1.424  0.00  0.00    +0.034 A 
ATOM      6  C   UNL     1      -9.406  -3.494   2.178  0.00  0.00    +0.025 A 
ATOM      7  C   UNL     1     -10.443  -2.858   2.833  0.00  0.00    +0.030 A 
ATOM      8  C   UNL     1     -10.583  -1.486   2.739  0.00  0.00    +0.105 A 
ATOM      9  C   UNL     1      -9.688  -0.746   1.988  0.00  0.00    +0.030 A 
ATOM     10  C   UNL     1      -8.646  -1.375   1.336  0.00  0.00    +0.025 A 
BRANCH   8  11
ATOM     11  S   UNL     1     -11.907  -0.678   3.576  0.00  0.00    +0.056 S 
ATOM     12  O   UNL     1     -12.139   0.542   2.886  0.00  0.00    -0.153 OA
ATOM     13  O   UNL     1     -12.924  -1.653   3.763  0.00  0.00    -0.153 OA
BRANCH  11  14
ATOM     14  N   UNL     1     -11.357  -0.272   5.084  0.00  0.00    -0.204 NA
ATOM     15  H   UNL     1     -10.449  -0.492   5.345  0.00  0.00    +0.144 HD
ATOM     16  H   UNL     1     -11.943   0.186   5.707  0.00  0.00    +0.144 HD
ENDBRANCH  11  14
ENDBRANCH   8  11
ENDBRANCH   3   5
BRANCH   1  17
ATOM     17  C   UNL     1      -5.095  -3.519   0.025  0.00  0.00    +0.154 C 
ATOM     18  C   UNL     1      -5.448  -3.905  -1.413  0.00  0.00    +0.038 C 
BRANCH  17  19
ATOM     19  N   UNL     1      -3.916  -2.650   0.022  0.00  0.00    -0.332 N 
ATOM     20  H   UNL     1      -4.024  -1.687   0.035  0.00  0.00    +0.147 HD
BRANCH  19  26
ATOM     21  C   UNL     1      -1.508  -2.386  -0.003  0.00  0.00    +0.029 A 
ATOM     22  C   UNL     1      -0.240  -2.948  -0.019  0.00  0.00    +0.016 A 
ATOM     23  C   UNL     1      -0.094  -4.323  -0.038  0.00  0.00    +0.001 A 
ATOM     24  C   UNL     1      -1.209  -5.141  -0.041  0.00  0.00    +0.002 A 
ATOM     25  C   UNL     1      -2.477  -4.589  -0.025  0.00  0.00    +0.024 A 
ATOM     26  C   UNL     1      -2.633  -3.211  -0.000  0.00  0.00    +0.041 A 
BRANCH  21  27
ATOM     27  S   UNL     1      -1.698  -0.634   0.021  0.00  0.00    -0.124 S 
BRANCH  27  29
ATOM     28  C   UNL     1      -0.014   1.522   0.028  0.00  0.00    +0.015 C 
ATOM     29  C   UNL     1       0.005  -0.008   0.009  0.00  0.00    +0.071 C 
ENDBRANCH  27  29
ENDBRANCH  21  27
ENDBRANCH  19  26
ENDBRANCH  17  19
ENDBRANCH   1  17
TORSDOF 8
