REMARK  Name = ZINC08739843
REMARK  10 active torsions:
REMARK  status: ('A' for Active; 'I' for Inactive)
REMARK    1  A    between atoms: C_1  and  C_2
REMARK    2  A    between atoms: C_2  and  C_3
REMARK    3  A    between atoms: C_3  and  C_5
REMARK    4  A    between atoms: C_3  and  C_6
REMARK    5  A    between atoms: C_6  and  C_8
REMARK    6  A    between atoms: C_6  and  N_19
REMARK    7  A    between atoms: N_10  and  C_11
REMARK    8  A    between atoms: C_11  and  C_12
REMARK    9  A    between atoms: C_15  and  C_18
REMARK   10  A    between atoms: C_20  and  C_22
REMARK                            x       y       z     vdW  Elec       q    Type
REMARK                         _______ _______ _______ _____ _____    ______ ____
ROOT
ATOM      1  C   UNL     1      -0.064   0.971   2.503  0.00  0.00    +0.162 C 
ENDROOT
BRANCH   1   2
ATOM      2  C   UNL     1      -0.150  -0.531   2.433  0.00  0.00    +0.234 C 
ATOM      3  O   UNL     1       0.863  -1.198   2.423  0.00  0.00    -0.274 OA
ATOM      4  N   UNL     1      -1.354  -1.135   2.380  0.00  0.00    -0.310 N 
ATOM      5  H   UNL     1      -2.165  -0.603   2.388  0.00  0.00    +0.149 HD
BRANCH   4   6
ATOM      6  C   UNL     1      -1.438  -2.596   2.312  0.00  0.00    +0.139 C 
BRANCH   6   7
ATOM      7  C   UNL     1      -2.885  -3.014   2.263  0.00  0.00    -0.030 A 
ATOM      8  C   UNL     1      -3.572  -3.267   3.436  0.00  0.00    +0.005 A 
ATOM      9  C   UNL     1      -4.900  -3.646   3.391  0.00  0.00    +0.003 A 
ATOM     10  C   UNL     1      -5.540  -3.782   2.173  0.00  0.00    -0.050 A 
ATOM     11  C   UNL     1      -4.852  -3.535   1.000  0.00  0.00    +0.003 A 
ATOM     12  C   UNL     1      -3.524  -3.151   1.045  0.00  0.00    +0.005 A 
ATOM     13  C   UNL     1      -6.987  -4.201   2.124  0.00  0.00    +0.044 C 
ENDBRANCH   6   7
ENDBRANCH   4   6
ENDBRANCH   1   2
BRANCH   1  14
ATOM     14  N   UNL     1       1.343   1.378   2.551  0.00  0.00    -0.305 N 
ATOM     15  C   UNL     1       1.685   2.557   3.106  0.00  0.00    +0.200 C 
ATOM     16  O   UNL     1       0.829   3.282   3.566  0.00  0.00    -0.278 OA
ATOM     17  H   UNL     1       2.028   0.798   2.183  0.00  0.00    +0.149 HD
BRANCH  15  18
ATOM     18  C   UNL     1       3.132   2.975   3.155  0.00  0.00    +0.021 C 
ATOM     19  C   UNL     1       3.825   2.290   4.332  0.00  0.00    +0.028 C 
ATOM     20  C   UNL     1       5.197   2.881   4.537  0.00  0.00    -0.047 A 
ATOM     21  C   UNL     1       6.111   2.179   5.308  0.00  0.00    +0.004 A 
ATOM     22  C   UNL     1       7.375   2.688   5.526  0.00  0.00    +0.000 A 
ATOM     23  C   UNL     1       7.732   3.905   4.974  0.00  0.00    +0.000 A 
ATOM     24  C   UNL     1       6.823   4.604   4.206  0.00  0.00    +0.002 A 
ATOM     25  C   UNL     1       5.553   4.092   3.984  0.00  0.00    -0.061 A 
ATOM     26  C   UNL     1       4.597   4.889   3.135  0.00  0.00    -0.045 C 
ATOM     27  N   UNL     1       3.216   4.435   3.345  0.00  0.00    +0.389 N 
ATOM     28  H   UNL     1       2.922   4.671   4.301  0.00  0.00    -0.084 HD
ATOM     29  H   UNL     1       2.597   4.902   2.672  0.00  0.00    -0.084 HD
ENDBRANCH  15  18
ENDBRANCH   1  14
BRANCH   1  30
ATOM     30  C   UNL     1      -0.729   1.579   1.267  0.00  0.00    +0.015 C 
ATOM     31  C   UNL     1      -0.641   3.105   1.339  0.00  0.00    +0.010 C 
BRANCH  30  33
ATOM     32  C   UNL     1      -0.753   1.593  -1.232  0.00  0.00    +0.004 C 
ATOM     33  C   UNL     1      -0.013   1.086   0.008  0.00  0.00    +0.002 C 
ENDBRANCH  30  33
ENDBRANCH   1  30
TORSDOF 7
