REMARK  Name = ZINC00672795
REMARK  8 active torsions:
REMARK  status: ('A' for Active; 'I' for Inactive)
REMARK    1  A    between atoms: C_1  and  C_2
REMARK    2  A    between atoms: C_2  and  O_3
REMARK    3  A    between atoms: O_3  and  C_4
REMARK    4  A    between atoms: C_4  and  C_6
REMARK    5  A    between atoms: C_7  and  C_26
REMARK    6  A    between atoms: C_8  and  C_23
REMARK    7  A    between atoms: C_9  and  N_11
REMARK    8  A    between atoms: N_14  and  C_15
REMARK                            x       y       z     vdW  Elec       q    Type
REMARK                         _______ _______ _______ _____ _____    ______ ____
ROOT
ATOM      1  C   UNL     1      -0.017   1.365   0.006  0.00  0.00    +0.102 A 
ATOM      2  C   UNL     1       0.002  -0.005   0.009  0.00  0.00    -0.015 A 
ATOM      3  C   UNL     1       1.238  -0.631  -0.002  0.00  0.00    +0.069 A 
ATOM      4  C   UNL     1       2.379   0.178  -0.016  0.00  0.00    +0.086 A 
ATOM      5  S   UNL     1       1.717   1.780  -0.012  0.00  0.00    -0.066 S 
ATOM      6  C   UNL     1      -1.276  -0.802   0.025  0.00  0.00    +0.046 C 
ENDROOT
BRANCH   4   7
ATOM      7  N   UNL     1       3.705  -0.204  -0.028  0.00  0.00    -0.263 N 
ATOM      8  C   UNL     1       4.676   0.730  -0.040  0.00  0.00    +0.308 C 
ATOM      9  O   UNL     1       4.384   1.910  -0.040  0.00  0.00    -0.252 OA
ATOM     10  N   UNL     1       5.971   0.356  -0.052  0.00  0.00    -0.269 N 
ATOM     11  H   UNL     1       3.938  -1.146  -0.028  0.00  0.00    +0.157 HD
ATOM     12  H   UNL     1       6.206  -0.582   0.015  0.00  0.00    +0.156 HD
BRANCH  10  13
ATOM     13  C   UNL     1       6.978   1.323  -0.163  0.00  0.00    +0.036 A 
ATOM     14  C   UNL     1       8.141   1.039  -0.866  0.00  0.00    +0.025 A 
ATOM     15  C   UNL     1       9.130   1.996  -0.978  0.00  0.00    +0.023 A 
ATOM     16  C   UNL     1       8.969   3.233  -0.380  0.00  0.00    +0.059 A 
ATOM     17  C   UNL     1       7.813   3.518   0.327  0.00  0.00    +0.061 A 
ATOM     18  C   UNL     1       6.817   2.565   0.437  0.00  0.00    +0.044 A 
ATOM     19 CL   UNL     1       7.613   5.072   1.075  0.00  0.00    -0.082 Cl
ATOM     20 CL   UNL     1      10.218   4.431  -0.518  0.00  0.00    -0.082 Cl
ENDBRANCH  10  13
ENDBRANCH   4   7
BRANCH   3  21
ATOM     21  C   UNL     1       1.347  -2.096   0.000  0.00  0.00    +0.244 C 
ATOM     22  O   UNL     1       1.381  -2.705  -1.052  0.00  0.00    -0.270 OA
ATOM     23  N   UNL     1       1.409  -2.765   1.169  0.00  0.00    -0.325 N 
ATOM     24  H   UNL     1       1.382  -2.279   2.008  0.00  0.00    +0.145 HD
ATOM     25  H   UNL     1       1.481  -3.732   1.170  0.00  0.00    +0.145 HD
ENDBRANCH   3  21
BRANCH   1  26
ATOM     26  C   UNL     1      -1.171   2.262   0.011  0.00  0.00    +0.346 C 
ATOM     27  O   UNL     1      -2.298   1.804   0.018  0.00  0.00    -0.244 OA
BRANCH  26  28
ATOM     28  O   UNL     1      -0.986   3.599   0.007  0.00  0.00    -0.461 OA
BRANCH  28  30
ATOM     29  C   UNL     1      -1.753   5.891   0.007  0.00  0.00    +0.048 C 
ATOM     30  C   UNL     1      -2.159   4.416   0.012  0.00  0.00    +0.229 C 
ENDBRANCH  28  30
ENDBRANCH  26  28
ENDBRANCH   1  26
TORSDOF 6
