REMARK  Name = ZINC65143789
REMARK  8 active torsions:
REMARK  status: ('A' for Active; 'I' for Inactive)
REMARK    1  A    between atoms: C_1  and  C_2
REMARK    2  A    between atoms: C_2  and  C_3
REMARK    3  A    between atoms: C_2  and  C_4
REMARK    4  A    between atoms: C_4  and  C_5
REMARK    5  A    between atoms: C_5  and  N_6
REMARK    6  A    between atoms: N_9  and  N_10
REMARK    7  A    between atoms: C_11  and  C_13
REMARK    8  A    between atoms: C_16  and  C_18
REMARK                            x       y       z     vdW  Elec       q    Type
REMARK                         _______ _______ _______ _____ _____    ______ ____
ROOT
ATOM      1  N   UNL     1       4.108  -1.442  -4.667  0.00  0.00    -0.229 N 
ATOM      2  C   UNL     1       4.739  -1.877  -5.776  0.00  0.00    +0.267 C 
ATOM      3  O   UNL     1       5.922  -1.643  -5.934  0.00  0.00    -0.268 OA
ATOM      4  H   UNL     1       3.164  -1.629  -4.541  0.00  0.00    +0.173 HD
ENDROOT
BRANCH   1   8
ATOM      5  N   UNL     1       2.873  -0.545  -2.413  0.00  0.00    -0.298 N 
ATOM      6  C   UNL     1       4.184  -0.286  -2.587  0.00  0.00    +0.316 C 
ATOM      7  O   UNL     1       4.798   0.340  -1.745  0.00  0.00    -0.251 OA
ATOM      8  N   UNL     1       4.815  -0.721  -3.696  0.00  0.00    -0.218 N 
ATOM      9  H   UNL     1       2.384  -1.045  -3.085  0.00  0.00    +0.150 HD
ATOM     10  H   UNL     1       5.758  -0.534  -3.822  0.00  0.00    +0.174 HD
BRANCH   5  11
ATOM     11  C   UNL     1       2.187  -0.073  -1.207  0.00  0.00    +0.106 C 
BRANCH  11  12
ATOM     12  C   UNL     1       0.718  -0.497  -1.257  0.00  0.00    +0.022 C 
BRANCH  12  14
ATOM     13  C   UNL     1      -0.019   1.526   0.010  0.00  0.00    +0.007 C 
ATOM     14  C   UNL     1       0.002  -0.004   0.002  0.00  0.00    -0.016 C 
ATOM     15  C   UNL     1      -1.433  -0.534   0.013  0.00  0.00    +0.007 C 
ENDBRANCH  12  14
ENDBRANCH  11  12
ENDBRANCH   5  11
ENDBRANCH   1   8
BRANCH   2  16
ATOM     16  C   UNL     1       3.998  -2.632  -6.793  0.00  0.00    +0.076 A 
ATOM     17  C   UNL     1       4.458  -3.167  -7.988  0.00  0.00    +0.021 A 
ATOM     18  C   UNL     1       3.578  -3.840  -8.787  0.00  0.00    +0.019 A 
ATOM     19  C   UNL     1       2.260  -3.963  -8.372  0.00  0.00    +0.045 A 
ATOM     20  S   UNL     1       2.277  -3.106  -6.806  0.00  0.00    -0.082 S 
BRANCH  19  21
ATOM     21  C   UNL     1       1.137  -4.633  -9.046  0.00  0.00    +0.116 A 
ATOM     22  N   UNL     1       1.127  -5.275 -10.197  0.00  0.00    -0.239 NA
ATOM     23  C   UNL     1       0.021  -5.844 -10.698  0.00  0.00    +0.079 A 
ATOM     24  C   UNL     1      -0.121  -6.557 -11.914  0.00  0.00    +0.029 A 
ATOM     25  C   UNL     1      -1.323  -7.075 -12.280  0.00  0.00    +0.002 A 
ATOM     26  C   UNL     1      -2.453  -6.930 -11.487  0.00  0.00    +0.001 A 
ATOM     27  C   UNL     1      -2.358  -6.242 -10.292  0.00  0.00    +0.017 A 
ATOM     28  C   UNL     1      -1.149  -5.714  -9.911  0.00  0.00    +0.040 A 
ATOM     29  S   UNL     1      -0.562  -4.791  -8.511  0.00  0.00    -0.067 S 
ENDBRANCH  19  21
ENDBRANCH   2  16
TORSDOF 6
