REMARK  Name = ZINC33810399
REMARK  7 active torsions:
REMARK  status: ('A' for Active; 'I' for Inactive)
REMARK    1  A    between atoms: C_1  and  C_2
REMARK    2  A    between atoms: C_2  and  C_3
REMARK    3  A    between atoms: C_2  and  S_4
REMARK    4  A    between atoms: S_4  and  C_5
REMARK    5  A    between atoms: C_12  and  C_24
REMARK    6  A    between atoms: C_18  and  C_22
REMARK    7  A    between atoms: C_18  and  C_23
REMARK                            x       y       z     vdW  Elec       q    Type
REMARK                         _______ _______ _______ _____ _____    ______ ____
ROOT
ATOM      1  C   UNL     1      -0.016   1.358   0.009  0.00  0.00    +0.171 A 
ATOM      2  N   UNL     1       0.002  -0.004   0.002  0.00  0.00    -0.208 NA
ATOM      3  C   UNL     1       1.197  -0.675  -0.011  0.00  0.00    +0.135 A 
ATOM      4  C   UNL     1       2.358   0.034  -0.015  0.00  0.00    +0.069 A 
ATOM      5  C   UNL     1       2.296   1.444  -0.011  0.00  0.00    +0.258 A 
ATOM      6  O   UNL     1       3.324   2.105  -0.021  0.00  0.00    -0.267 OA
ATOM      7  N   UNL     1       1.101   2.055   0.003  0.00  0.00    -0.302 N 
ATOM      8  C   UNL     1       3.687  -0.663  -0.021  0.00  0.00    +0.095 C 
ATOM      9  C   UNL     1       3.548  -2.104  -0.442  0.00  0.00    +0.024 C 
ATOM     10  C   UNL     1       2.348  -2.721  -0.423  0.00  0.00    +0.017 C 
ATOM     11  N   UNL     1       1.225  -2.050  -0.022  0.00  0.00    -0.302 N 
ATOM     12  C   UNL     1       2.207  -4.162  -0.848  0.00  0.00    +0.058 C 
ATOM     13  C   UNL     1       3.499  -4.919  -0.529  0.00  0.00    -0.023 C 
ATOM     14  C   UNL     1       4.656  -4.233  -1.263  0.00  0.00    +0.086 C 
ATOM     15  C   UNL     1       4.707  -2.787  -0.851  0.00  0.00    +0.162 C 
ATOM     16  O   UNL     1       5.770  -2.198  -0.873  0.00  0.00    -0.292 OA
ATOM     17  C   UNL     1       3.755  -4.888   0.979  0.00  0.00    +0.011 C 
ATOM     18  C   UNL     1       3.374  -6.370  -1.000  0.00  0.00    +0.011 C 
ATOM     19  H   UNL     1       0.339  -2.620   0.294  0.00  0.00    +0.153 HD
ATOM     20  H   UNL     1       1.064   3.154   0.008  0.00  0.00    +0.171 HD
ENDROOT
BRANCH   8  21
ATOM     21  C   UNL     1       4.279  -0.609   1.363  0.00  0.00    -0.000 A 
ATOM     22  C   UNL     1       3.603  -1.177   2.427  0.00  0.00    +0.007 A 
ATOM     23  C   UNL     1       4.146  -1.129   3.697  0.00  0.00    +0.000 A 
ATOM     24  C   UNL     1       5.366  -0.512   3.905  0.00  0.00    +0.003 A 
ATOM     25  C   UNL     1       6.043   0.057   2.844  0.00  0.00    +0.038 A 
ATOM     26  C   UNL     1       5.502   0.005   1.570  0.00  0.00    +0.127 A 
ATOM     27  F   UNL     1       6.166   0.556   0.530  0.00  0.00    -0.205 F 
ENDBRANCH   8  21
BRANCH   1  28
ATOM     28  S   UNL     1      -1.563   2.203   0.021  0.00  0.00    -0.085 S 
BRANCH  28  30
ATOM     29  C   UNL     1      -2.183   4.861  -0.087  0.00  0.00    +0.019 C 
ATOM     30  C   UNL     1      -0.984   3.918   0.028  0.00  0.00    +0.048 C 
ATOM     31  C   UNL     1      -0.237   4.199   1.333  0.00  0.00    +0.019 C 
ENDBRANCH  28  30
ENDBRANCH   1  28
TORSDOF 3
