REMARK  Name = ZINC66144893
REMARK  13 active torsions:
REMARK  status: ('A' for Active; 'I' for Inactive)
REMARK    1  A    between atoms: C_1  and  C_2
REMARK    2  A    between atoms: C_5  and  C_8
REMARK    3  A    between atoms: C_8  and  O_9
REMARK    4  A    between atoms: O_9  and  C_10
REMARK    5  A    between atoms: C_13  and  C_16
REMARK    6  A    between atoms: C_16  and  C_17
REMARK    7  A    between atoms: C_17  and  C_19
REMARK    8  A    between atoms: C_17  and  N_20
REMARK    9  A    between atoms: C_21  and  C_23
REMARK   10  A    between atoms: C_23  and  C_25
REMARK   11  A    between atoms: C_23  and  N_28
REMARK   12  A    between atoms: C_25  and  C_26
REMARK   13  A    between atoms: C_25  and  C_27
REMARK                            x       y       z     vdW  Elec       q    Type
REMARK                         _______ _______ _______ _____ _____    ______ ____
ROOT
ATOM      1  C   UNL     1       2.020 -10.339  -1.274  0.00  0.00    +0.074 C 
ATOM      2  C   UNL     1       2.261 -11.812  -0.941  0.00  0.00    +0.028 C 
ENDROOT
BRANCH   1   3
ATOM      3  N   UNL     1       0.791 -10.210  -2.061  0.00  0.00    -0.311 N 
ATOM      4  C   UNL     1       0.826 -10.374  -3.398  0.00  0.00    +0.234 C 
ATOM      5  O   UNL     1       1.887 -10.541  -3.961  0.00  0.00    -0.274 OA
ATOM      6  H   UNL     1      -0.049 -10.008  -1.619  0.00  0.00    +0.149 HD
BRANCH   4   7
ATOM      7  C   UNL     1      -0.453 -10.348  -4.195  0.00  0.00    +0.163 C 
BRANCH   7   8
ATOM      8  N   UNL     1      -0.166  -9.920  -5.566  0.00  0.00    -0.288 N 
ATOM      9  C   UNL     1      -1.132  -9.343  -6.308  0.00  0.00    +0.298 C 
ATOM     10  O   UNL     1      -2.241  -9.178  -5.840  0.00  0.00    -0.253 OA
ATOM     11  N   UNL     1      -0.868  -8.949  -7.570  0.00  0.00    -0.313 N 
ATOM     12  H   UNL     1       0.720 -10.051  -5.940  0.00  0.00    +0.151 HD
ATOM     13  H   UNL     1       0.018  -9.081  -7.944  0.00  0.00    +0.146 HD
ATOM     14  H   UNL     1      -1.563  -8.534  -8.104  0.00  0.00    +0.146 HD
ENDBRANCH   7   8
BRANCH   7  15
ATOM     15  C   UNL     1      -1.069 -11.748  -4.216  0.00  0.00    +0.012 C 
ATOM     16  C   UNL     1      -0.039 -12.750  -4.741  0.00  0.00    +0.009 C 
ATOM     17  C   UNL     1      -1.488 -12.143  -2.798  0.00  0.00    +0.009 C 
ENDBRANCH   7  15
ENDBRANCH   4   7
ENDBRANCH   1   3
BRANCH   1  18
ATOM     18  C   UNL     1       1.882  -9.539   0.022  0.00  0.00    +0.057 C 
BRANCH  18  22
ATOM     19  C   UNL     1       1.558  -5.378  -0.899  0.00  0.00    +0.121 A 
ATOM     20  C   UNL     1       0.416  -6.161  -0.810  0.00  0.00    +0.046 A 
ATOM     21  C   UNL     1       0.523  -7.506  -0.513  0.00  0.00    +0.007 A 
ATOM     22  C   UNL     1       1.768  -8.071  -0.303  0.00  0.00    -0.045 A 
ATOM     23  C   UNL     1       2.907  -7.293  -0.390  0.00  0.00    +0.007 A 
ATOM     24  C   UNL     1       2.805  -5.949  -0.693  0.00  0.00    +0.046 A 
BRANCH  19  25
ATOM     25  O   UNL     1       1.455  -4.055  -1.192  0.00  0.00    -0.487 OA
BRANCH  25  26
ATOM     26  C   UNL     1       0.139  -3.535  -1.391  0.00  0.00    +0.264 C 
BRANCH  26  31
ATOM     27  C   UNL     1       0.454   2.109  -2.591  0.00  0.00    +0.044 C 
ATOM     28  C   UNL     1       0.372   0.637  -2.278  0.00  0.00    -0.050 A 
ATOM     29  C   UNL     1       0.412  -0.291  -3.302  0.00  0.00    +0.004 A 
ATOM     30  C   UNL     1       0.337  -1.641  -3.015  0.00  0.00    +0.007 A 
ATOM     31  C   UNL     1       0.222  -2.063  -1.704  0.00  0.00    -0.010 A 
ATOM     32  C   UNL     1       0.182  -1.136  -0.679  0.00  0.00    +0.007 A 
ATOM     33  C   UNL     1       0.262   0.214  -0.966  0.00  0.00    +0.004 A 
ENDBRANCH  26  31
ENDBRANCH  25  26
ENDBRANCH  19  25
ENDBRANCH  18  22
ENDBRANCH   1  18
TORSDOF 9
