REMARK  Name = ZINC13324722
REMARK  3 active torsions:
REMARK  status: ('A' for Active; 'I' for Inactive)
REMARK    1  A    between atoms: C_6  and  N_7
REMARK    2  A    between atoms: N_13  and  C_16
REMARK    3  A    between atoms: C_16  and  C_17
REMARK                            x       y       z     vdW  Elec       q    Type
REMARK                         _______ _______ _______ _____ _____    ______ ____
ROOT
ATOM      1  N   UNL     1       5.167  -3.541  -5.125  0.00  0.00    -0.269 N 
ATOM      2  C   UNL     1       5.782  -2.350  -4.982  0.00  0.00    +0.307 C 
ATOM      3  O   UNL     1       6.799  -2.113  -5.606  0.00  0.00    -0.252 OA
ATOM      4  N   UNL     1       5.271  -1.423  -4.149  0.00  0.00    -0.283 N 
ATOM      5  C   UNL     1       5.986  -0.164  -3.890  0.00  0.00    +0.124 C 
ATOM      6  C   UNL     1       6.094   0.032  -2.374  0.00  0.00    +0.104 C 
ATOM      7  N   UNL     1       4.755  -0.056  -1.776  0.00  0.00    -0.295 NA
ATOM      8  C   UNL     1       4.169  -1.389  -1.974  0.00  0.00    +0.104 C 
ATOM      9  C   UNL     1       3.983  -1.643  -3.474  0.00  0.00    +0.124 C 
ATOM     10  H   UNL     1       4.184  -3.711  -4.662  0.00  0.00    +0.156 HD
ENDROOT
BRANCH   1  16
ATOM     11  C   UNL     1       7.164  -4.673  -5.879  0.00  0.00    +0.026 A 
ATOM     12  C   UNL     1       7.766  -5.683  -6.603  0.00  0.00    +0.040 A 
ATOM     13  C   UNL     1       6.991  -6.579  -7.320  0.00  0.00    +0.124 A 
ATOM     14  C   UNL     1       5.611  -6.467  -7.309  0.00  0.00    +0.040 A 
ATOM     15  C   UNL     1       5.005  -5.461  -6.582  0.00  0.00    +0.026 A 
ATOM     16  C   UNL     1       5.780  -4.562  -5.862  0.00  0.00    +0.035 A 
ATOM     17  F   UNL     1       7.582  -7.564  -8.031  0.00  0.00    -0.205 F 
ENDBRANCH   1  16
BRANCH   7  18
ATOM     18  C   UNL     1       4.791   0.296  -0.350  0.00  0.00    +0.127 C 
BRANCH  18  19
ATOM     19  C   UNL     1       3.383   0.434   0.169  0.00  0.00    +0.005 A 
ATOM     20  C   UNL     1       2.579  -0.510   0.716  0.00  0.00    +0.014 A 
ATOM     21  C   UNL     1       1.308  -0.152   1.127  0.00  0.00    +0.028 A 
ATOM     22  C   UNL     1       0.904   1.133   0.970  0.00  0.00    +0.078 A 
ATOM     23  S   UNL     1       2.342   1.883   0.223  0.00  0.00    -0.080 S 
ATOM     24 CL   UNL     1      -0.618   1.859   1.382  0.00  0.00    -0.076 Cl
ENDBRANCH  18  19
ENDBRANCH   7  18
TORSDOF 3
