REMARK  Name = ZINC00624945
REMARK  5 active torsions:
REMARK  status: ('A' for Active; 'I' for Inactive)
REMARK    1  A    between atoms: C_4  and  N_7
REMARK    2  A    between atoms: C_11  and  S_12
REMARK    3  A    between atoms: S_12  and  C_13
REMARK    4  A    between atoms: C_13  and  C_14
REMARK    5  A    between atoms: N_16  and  C_17
REMARK                            x       y       z     vdW  Elec       q    Type
REMARK                         _______ _______ _______ _____ _____    ______ ____
ROOT
ATOM      1  N   UNL     1      -0.017   1.399   0.023  0.00  0.00    -0.259 N 
ATOM      2  C   UNL     1       1.079   2.219   0.026  0.00  0.00    +0.220 A 
ATOM      3  N   UNL     1       0.656   3.459   0.043  0.00  0.00    -0.112 NA
ATOM      4  N   UNL     1      -0.745   3.441   0.050  0.00  0.00    -0.120 NA
ATOM      5  C   UNL     1      -1.135   2.189   0.032  0.00  0.00    +0.198 A 
ATOM      6  N   UNL     1       2.406   1.809   0.015  0.00  0.00    -0.327 N 
ATOM      7  H   UNL     1       2.621   0.863   0.003  0.00  0.00    +0.145 HD
ATOM      8  H   UNL     1       3.117   2.469   0.019  0.00  0.00    +0.145 HD
ENDROOT
BRANCH   1  12
ATOM      9  C   UNL     1       0.040  -2.770  -0.025  0.00  0.00    +0.000 A 
ATOM     10  C   UNL     1       0.542  -2.085   1.067  0.00  0.00    +0.002 A 
ATOM     11  C   UNL     1       0.525  -0.704   1.085  0.00  0.00    +0.026 A 
ATOM     12  C   UNL     1       0.003  -0.003   0.007  0.00  0.00    +0.052 A 
ATOM     13  C   UNL     1      -0.506  -0.693  -1.085  0.00  0.00    +0.026 A 
ATOM     14  C   UNL     1      -0.480  -2.074  -1.101  0.00  0.00    +0.002 A 
ENDBRANCH   1  12
BRANCH   5  15
ATOM     15  S   UNL     1      -2.803   1.624   0.025  0.00  0.00    -0.076 S 
BRANCH  15  16
ATOM     16  C   UNL     1      -3.784   3.150   0.042  0.00  0.00    +0.173 C 
BRANCH  16  17
ATOM     17  C   UNL     1      -5.251   2.804   0.037  0.00  0.00    +0.227 C 
ATOM     18  O   UNL     1      -5.600   1.643   0.024  0.00  0.00    -0.275 OA
ATOM     19  N   UNL     1      -6.174   3.786   0.048  0.00  0.00    -0.285 N 
ATOM     20  H   UNL     1      -5.897   4.712   0.127  0.00  0.00    +0.155 HD
BRANCH  19  21
ATOM     21  C   UNL     1      -7.534   3.469  -0.054  0.00  0.00    +0.033 A 
ATOM     22  C   UNL     1      -8.396   4.316  -0.737  0.00  0.00    +0.024 A 
ATOM     23  C   UNL     1      -9.736   3.998  -0.840  0.00  0.00    +0.017 A 
ATOM     24  C   UNL     1     -10.222   2.843  -0.254  0.00  0.00    +0.018 A 
ATOM     25  C   UNL     1      -9.366   2.000   0.432  0.00  0.00    +0.017 A 
ATOM     26  C   UNL     1      -8.024   2.310   0.533  0.00  0.00    +0.024 A 
ATOM     27 BR   UNL     1     -12.058   2.414  -0.392  0.00  0.00    -0.050 Br
ENDBRANCH  19  21
ENDBRANCH  16  17
ENDBRANCH  15  16
ENDBRANCH   5  15
TORSDOF 5
