REMARK  Name = ZINC09993331
REMARK  11 active torsions:
REMARK  status: ('A' for Active; 'I' for Inactive)
REMARK    1  A    between atoms: C_1  and  C_2
REMARK    2  A    between atoms: C_3  and  C_28
REMARK    3  A    between atoms: C_4  and  C_27
REMARK    4  A    between atoms: C_7  and  C_8
REMARK    5  A    between atoms: C_8  and  O_10
REMARK    6  A    between atoms: O_10  and  C_11
REMARK    7  A    between atoms: C_11  and  C_12
REMARK    8  A    between atoms: N_14  and  C_15
REMARK    9  A    between atoms: C_18  and  S_22
REMARK   10  A    between atoms: S_22  and  N_25
REMARK   11  A    between atoms: C_28  and  C_30
REMARK                            x       y       z     vdW  Elec       q    Type
REMARK                         _______ _______ _______ _____ _____    ______ ____
ROOT
ATOM      1  C   UNL     1       2.385   5.149  -0.484  0.00  0.00    +0.255 C 
ATOM      2  O   UNL     1       1.347   5.702  -0.780  0.00  0.00    -0.272 OA
ATOM      3  N   UNL     1       2.375   3.858  -0.099  0.00  0.00    -0.280 N 
ATOM      4  H   UNL     1       3.198   3.430   0.187  0.00  0.00    +0.155 HD
ENDROOT
BRANCH   3   5
ATOM      5  C   UNL     1       1.177   3.132  -0.111  0.00  0.00    +0.071 A 
ATOM      6  C   UNL     1       0.297   3.259  -1.179  0.00  0.00    +0.065 A 
ATOM      7  C   UNL     1      -0.884   2.541  -1.187  0.00  0.00    +0.050 A 
ATOM      8  C   UNL     1      -1.193   1.703  -0.132  0.00  0.00    +0.108 A 
ATOM      9  C   UNL     1      -0.317   1.570   0.929  0.00  0.00    +0.050 A 
ATOM     10  C   UNL     1       0.866   2.285   0.945  0.00  0.00    +0.065 A 
ATOM     11 CL   UNL     1       1.962   2.122   2.281  0.00  0.00    -0.082 Cl
ATOM     12 CL   UNL     1       0.681   4.316  -2.501  0.00  0.00    -0.082 Cl
BRANCH   8  13
ATOM     13  S   UNL     1      -2.704   0.796  -0.144  0.00  0.00    +0.056 S 
ATOM     14  O   UNL     1      -3.011   0.501   1.212  0.00  0.00    -0.153 OA
ATOM     15  O   UNL     1      -3.597   1.506  -0.991  0.00  0.00    -0.153 OA
BRANCH  13  16
ATOM     16  N   UNL     1      -2.399  -0.653  -0.886  0.00  0.00    -0.204 NA
ATOM     17  H   UNL     1      -2.906  -1.442  -0.636  0.00  0.00    +0.144 HD
ATOM     18  H   UNL     1      -1.715  -0.713  -1.571  0.00  0.00    +0.144 HD
ENDBRANCH  13  16
ENDBRANCH   8  13
ENDBRANCH   3   5
BRANCH   1  19
ATOM     19  C   UNL     1       3.686   5.907  -0.548  0.00  0.00    +0.328 C 
BRANCH  19  20
ATOM     20  O   UNL     1       3.433   7.267  -0.987  0.00  0.00    -0.451 OA
BRANCH  20  21
ATOM     21  C   UNL     1       4.501   8.084  -1.097  0.00  0.00    +0.356 C 
ATOM     22  O   UNL     1       5.613   7.669  -0.834  0.00  0.00    -0.243 OA
BRANCH  21  29
ATOM     23  C   UNL     1       6.782  10.184  -1.427  0.00  0.00    +0.047 C 
ATOM     24  C   UNL     1       5.312  10.397  -1.682  0.00  0.00    -0.008 A 
ATOM     25  C   UNL     1       4.698  11.593  -2.123  0.00  0.00    +0.041 A 
ATOM     26  C   UNL     1       3.338  11.340  -2.217  0.00  0.00    +0.024 A 
ATOM     27  N   UNL     1       3.120  10.065  -1.863  0.00  0.00    -0.352 N 
ATOM     28  H   UNL     1       2.254   9.629  -1.840  0.00  0.00    +0.166 HD
ATOM     29  C   UNL     1       4.321   9.472  -1.535  0.00  0.00    +0.128 A 
ATOM     30  C   UNL     1       2.284  12.328  -2.644  0.00  0.00    +0.064 C 
BRANCH  25  31
ATOM     31  C   UNL     1       5.371  12.862  -2.419  0.00  0.00    +0.162 C 
ATOM     32  O   UNL     1       5.466  13.712  -1.560  0.00  0.00    -0.292 OA
ATOM     33  C   UNL     1       5.944  13.108  -3.791  0.00  0.00    +0.091 C 
ENDBRANCH  25  31
ENDBRANCH  21  29
ENDBRANCH  20  21
ENDBRANCH  19  20
ENDBRANCH   1  19
TORSDOF 8
