REMARK  Name = ZINC12498827
REMARK  9 active torsions:
REMARK  status: ('A' for Active; 'I' for Inactive)
REMARK    1  A    between atoms: C_1  and  C_2
REMARK    2  A    between atoms: C_3  and  C_25
REMARK    3  A    between atoms: C_5  and  N_10
REMARK    4  A    between atoms: C_6  and  C_7
REMARK    5  A    between atoms: N_10  and  C_11
REMARK    6  A    between atoms: C_11  and  N_13
REMARK    7  A    between atoms: C_14  and  C_16
REMARK    8  A    between atoms: C_16  and  O_17
REMARK    9  A    between atoms: O_17  and  C_18
REMARK                            x       y       z     vdW  Elec       q    Type
REMARK                         _______ _______ _______ _____ _____    ______ ____
ROOT
ATOM      1  C   UNL     1       3.076   7.768   0.014  0.00  0.00    +0.141 C 
ATOM      2  S   UNL     1       1.486   8.404   0.033  0.00  0.00    -0.018 S 
ENDROOT
BRANCH   1   3
ATOM      3  N   UNL     1       3.268   6.434   0.005  0.00  0.00    -0.265 N 
ATOM      4  C   UNL     1       2.209   5.601   0.011  0.00  0.00    +0.256 C 
ATOM      5  O   UNL     1       1.084   6.051   0.024  0.00  0.00    -0.272 OA
ATOM      6  H   UNL     1       4.169   6.074  -0.005  0.00  0.00    +0.157 HD
BRANCH   4   7
ATOM      7  C   UNL     1       2.425   4.109   0.001  0.00  0.00    +0.324 C 
BRANCH   7   8
ATOM      8  O   UNL     1       1.159   3.445   0.009  0.00  0.00    -0.483 OA
BRANCH   8   9
ATOM      9  C   UNL     1       1.176   2.086   0.002  0.00  0.00    +0.121 A 
ATOM     10  C   UNL     1      -0.017   1.377   0.010  0.00  0.00    +0.047 A 
ATOM     11  C   UNL     1       0.002  -0.004   0.002  0.00  0.00    +0.019 A 
ATOM     12  C   UNL     1       1.209  -0.680  -0.013  0.00  0.00    +0.018 A 
ATOM     13  C   UNL     1       2.399   0.025  -0.020  0.00  0.00    +0.019 A 
ATOM     14  C   UNL     1       2.385   1.406  -0.013  0.00  0.00    +0.047 A 
ATOM     15 BR   UNL     1       1.232  -2.571  -0.022  0.00  0.00    -0.050 Br
ENDBRANCH   8   9
ENDBRANCH   7   8
ENDBRANCH   4   7
ENDBRANCH   1   3
BRANCH   1  16
ATOM     16  N   UNL     1       4.135   8.602   0.009  0.00  0.00    -0.291 N 
ATOM     17  H   UNL     1       5.035   8.242  -0.002  0.00  0.00    +0.154 HD
BRANCH  16  22
ATOM     18  C   UNL     1       5.342  13.518   0.024  0.00  0.00    +0.045 C 
ATOM     19  C   UNL     1       4.400  12.341   0.026  0.00  0.00    -0.027 A 
ATOM     20  C   UNL     1       3.066  12.511   0.039  0.00  0.00    -0.008 A 
ATOM     21  S   UNL     1       2.440  10.844   0.029  0.00  0.00    -0.078 S 
ATOM     22  C   UNL     1       3.937   9.973   0.018  0.00  0.00    +0.084 A 
ATOM     23  C   UNL     1       4.892  10.984   0.014  0.00  0.00    +0.068 A 
ATOM     24  C   UNL     1       2.288  13.802   0.052  0.00  0.00    +0.052 C 
BRANCH  23  25
ATOM     25  C   UNL     1       6.327  10.686   0.000  0.00  0.00    +0.244 C 
ATOM     26  O   UNL     1       6.913  10.568  -1.060  0.00  0.00    -0.270 OA
ATOM     27  N   UNL     1       6.997  10.543   1.161  0.00  0.00    -0.325 N 
ATOM     28  H   UNL     1       6.529  10.637   2.005  0.00  0.00    +0.145 HD
ATOM     29  H   UNL     1       7.947  10.345   1.151  0.00  0.00    +0.145 HD
ENDBRANCH  23  25
ENDBRANCH  16  22
ENDBRANCH   1  16
TORSDOF 7
