REMARK  Name = ZINC09515012
REMARK  6 active torsions:
REMARK  status: ('A' for Active; 'I' for Inactive)
REMARK    1  A    between atoms: C_1  and  C_2
REMARK    2  A    between atoms: C_2  and  C_4
REMARK    3  A    between atoms: C_2  and  N_23
REMARK    4  A    between atoms: N_9  and  S_12
REMARK    5  A    between atoms: S_12  and  C_15
REMARK    6  A    between atoms: C_20  and  C_21
REMARK                            x       y       z     vdW  Elec       q    Type
REMARK                         _______ _______ _______ _____ _____    ______ ____
ROOT
ATOM      1  C   UNL     1       7.210   2.347   0.548  0.00  0.00    +0.236 C 
ATOM      2  O   UNL     1       7.287   1.176   0.856  0.00  0.00    -0.274 OA
ATOM      3  N   UNL     1       8.267   3.163   0.734  0.00  0.00    -0.297 N 
ATOM      4  C   UNL     1       8.155   4.603   0.464  0.00  0.00    +0.125 C 
ATOM      5  C   UNL     1       8.571   5.369   1.732  0.00  0.00    +0.128 C 
ATOM      6  N   UNL     1       9.856   4.833   2.202  0.00  0.00    -0.174 NA
ATOM      7  C   UNL     1       9.969   3.392   2.467  0.00  0.00    +0.128 C 
ATOM      8  C   UNL     1       9.552   2.628   1.204  0.00  0.00    +0.125 C 
ENDROOT
BRANCH   6   9
ATOM      9  S   UNL     1      11.154   5.836   2.430  0.00  0.00    +0.062 S 
ATOM     10  O   UNL     1      10.628   7.138   2.645  0.00  0.00    -0.153 OA
ATOM     11  O   UNL     1      12.004   5.193   3.369  0.00  0.00    -0.153 OA
BRANCH   9  12
ATOM     12  C   UNL     1      12.039   5.896   0.907  0.00  0.00    +0.123 A 
ATOM     13  C   UNL     1      12.120   7.078   0.201  0.00  0.00    +0.030 A 
ATOM     14  C   UNL     1      12.818   7.128  -0.993  0.00  0.00    +0.002 A 
ATOM     15  C   UNL     1      13.432   5.993  -1.490  0.00  0.00    +0.001 A 
ATOM     16  C   UNL     1      13.356   4.803  -0.796  0.00  0.00    +0.021 A 
ATOM     17  C   UNL     1      12.656   4.747   0.411  0.00  0.00    +0.078 A 
BRANCH  17  18
ATOM     18  C   UNL     1      12.572   3.515   1.137  0.00  0.00    +0.101 C 
ATOM     19  N   UNL     1      12.506   2.538   1.712  0.00  0.00    -0.191 NA
ENDBRANCH  17  18
ENDBRANCH   9  12
ENDBRANCH   6   9
BRANCH   1  21
ATOM     20  C   UNL     1       6.090   3.026  -1.557  0.00  0.00    +0.038 C 
ATOM     21  C   UNL     1       5.934   2.889  -0.041  0.00  0.00    +0.155 C 
BRANCH  21  22
ATOM     22  N   UNL     1       4.831   1.971   0.255  0.00  0.00    -0.316 N 
ATOM     23  C   UNL     1       3.536   2.440   0.296  0.00  0.00    +0.150 C 
ATOM     24  N   UNL     1       3.286   3.691   0.075  0.00  0.00    -0.113 NA
ATOM     25  S   UNL     1       1.626   3.857   0.214  0.00  0.00    +0.101 S 
ATOM     26  O   UNL     1       1.365   4.644   1.368  0.00  0.00    -0.146 OA
ATOM     27  O   UNL     1       1.112   4.162  -1.075  0.00  0.00    -0.146 OA
ATOM     28  C   UNL     1       1.184   2.183   0.591  0.00  0.00    +0.123 A 
ATOM     29  C   UNL     1       2.423   1.526   0.593  0.00  0.00    +0.043 A 
ATOM     30  C   UNL     1       2.422   0.150   0.865  0.00  0.00    +0.013 A 
ATOM     31  C   UNL     1       1.239  -0.509   1.118  0.00  0.00    +0.001 A 
ATOM     32  C   UNL     1       0.032   0.167   1.109  0.00  0.00    +0.002 A 
ATOM     33  C   UNL     1       0.014   1.529   0.841  0.00  0.00    +0.030 A 
ATOM     34  H   UNL     1       5.012   1.033   0.421  0.00  0.00    +0.148 HD
ENDBRANCH  21  22
ENDBRANCH   1  21
TORSDOF 5
