REMARK  Name = ZINC40680220
REMARK  8 active torsions:
REMARK  status: ('A' for Active; 'I' for Inactive)
REMARK    1  A    between atoms: C_1  and  C_2
REMARK    2  A    between atoms: C_2  and  C_3
REMARK    3  A    between atoms: C_3  and  C_4
REMARK    4  A    between atoms: C_4  and  C_5
REMARK    5  A    between atoms: C_8  and  N_11
REMARK    6  A    between atoms: C_13  and  N_30
REMARK    7  A    between atoms: C_14  and  O_18
REMARK    8  A    between atoms: O_18  and  C_19
REMARK                            x       y       z     vdW  Elec       q    Type
REMARK                         _______ _______ _______ _____ _____    ______ ____
ROOT
ATOM      1  N   UNL     1      -6.734  -4.021   0.044  0.00  0.00    -0.298 N 
ATOM      2  C   UNL     1      -7.433  -4.161  -1.150  0.00  0.00    +0.151 A 
ATOM      3  C   UNL     1      -8.778  -4.542  -1.145  0.00  0.00    +0.128 A 
ATOM      4  C   UNL     1      -9.431  -4.667  -2.370  0.00  0.00    +0.246 A 
ATOM      5  N   UNL     1      -8.755  -4.421  -3.489  0.00  0.00    -0.199 NA
ATOM      6  C   UNL     1      -7.487  -4.064  -3.451  0.00  0.00    +0.227 A 
ATOM      7  N   UNL     1      -6.833  -3.929  -2.314  0.00  0.00    -0.218 NA
ATOM      8  H   UNL     1      -7.151  -4.275   0.882  0.00  0.00    +0.154 HD
ENDROOT
BRANCH   1  12
ATOM      9  C   UNL     1      -2.855  -2.508   0.022  0.00  0.00    -0.047 A 
ATOM     10  C   UNL     1      -3.735  -2.165  -0.989  0.00  0.00    +0.005 A 
ATOM     11  C   UNL     1      -5.022  -2.665  -0.984  0.00  0.00    +0.023 A 
ATOM     12  C   UNL     1      -5.433  -3.513   0.036  0.00  0.00    +0.032 A 
ATOM     13  C   UNL     1      -4.546  -3.855   1.050  0.00  0.00    +0.023 A 
ATOM     14  C   UNL     1      -3.259  -3.356   1.037  0.00  0.00    +0.005 A 
BRANCH   9  15
ATOM     15  C   UNL     1      -1.450  -1.960   0.013  0.00  0.00    +0.035 C 
BRANCH  15  16
ATOM     16  C   UNL     1      -0.537  -2.911  -0.764  0.00  0.00    +0.004 C 
BRANCH  16  18
ATOM     17  C   UNL     1       1.801  -3.305  -1.550  0.00  0.00    +0.004 C 
ATOM     18  C   UNL     1       0.888  -2.355  -0.772  0.00  0.00    -0.003 C 
ENDBRANCH  16  18
ENDBRANCH  15  16
ENDBRANCH   9  15
ENDBRANCH   1  12
BRANCH   3  19
ATOM     19  N   UNL     1      -9.452  -4.791   0.060  0.00  0.00    -0.351 N 
ATOM     20  H   UNL     1      -8.985  -4.700   0.905  0.00  0.00    +0.143 HD
ATOM     21  H   UNL     1     -10.385  -5.055   0.048  0.00  0.00    +0.143 HD
ENDBRANCH   3  19
BRANCH   4  22
ATOM     22  O   UNL     1     -10.736  -5.034  -2.420  0.00  0.00    -0.434 OA
BRANCH  22  23
ATOM     23  C   UNL     1     -11.293  -5.242  -3.641  0.00  0.00    +0.156 A 
ATOM     24  C   UNL     1     -12.070  -4.267  -4.224  0.00  0.00    +0.049 A 
ATOM     25  C   UNL     1     -12.648  -4.466  -5.474  0.00  0.00    +0.019 A 
ATOM     26  C   UNL     1     -12.460  -5.632  -6.155  0.00  0.00    +0.027 A 
ATOM     27  C   UNL     1     -11.673  -6.651  -5.593  0.00  0.00    +0.018 A 
ATOM     28  C   UNL     1     -11.075  -6.457  -4.324  0.00  0.00    +0.114 A 
ATOM     29  N   UNL     1     -10.322  -7.422  -3.789  0.00  0.00    -0.251 NA
ATOM     30  C   UNL     1     -10.116  -8.554  -4.418  0.00  0.00    +0.111 A 
ATOM     31  C   UNL     1     -10.669  -8.806  -5.671  0.00  0.00    +0.020 A 
ATOM     32  C   UNL     1     -11.459  -7.867  -6.269  0.00  0.00    +0.013 A 
ATOM     33 BR   UNL     1     -13.258  -5.877  -7.852  0.00  0.00    -0.050 Br
ENDBRANCH  22  23
ENDBRANCH   4  22
TORSDOF 7
