REMARK  Name = ZINC65178670
REMARK  10 active torsions:
REMARK  status: ('A' for Active; 'I' for Inactive)
REMARK    1  A    between atoms: C_1  and  C_2
REMARK    2  A    between atoms: C_5  and  O_9
REMARK    3  A    between atoms: O_9  and  C_10
REMARK    4  A    between atoms: C_10  and  C_11
REMARK    5  A    between atoms: C_10  and  C_12
REMARK    6  A    between atoms: N_14  and  N_15
REMARK    7  A    between atoms: N_18  and  C_19
REMARK    8  A    between atoms: C_19  and  C_20
REMARK    9  A    between atoms: C_20  and  C_21
REMARK   10  A    between atoms: C_20  and  C_22
REMARK                            x       y       z     vdW  Elec       q    Type
REMARK                         _______ _______ _______ _____ _____    ______ ____
ROOT
ATOM      1  C   UNL     1       0.576  -6.140  -1.221  0.00  0.00    +0.270 C 
ATOM      2  O   UNL     1       0.987  -6.563  -0.162  0.00  0.00    -0.270 OA
ATOM      3  N   UNL     1       0.681  -6.894  -2.334  0.00  0.00    -0.230 N 
ATOM      4  H   UNL     1       0.352  -6.556  -3.181  0.00  0.00    +0.173 HD
ENDROOT
BRANCH   3   5
ATOM      5  N   UNL     1       1.265  -8.165  -2.266  0.00  0.00    -0.218 N 
ATOM      6  C   UNL     1       1.369  -8.919  -3.378  0.00  0.00    +0.316 C 
ATOM      7  O   UNL     1       1.876 -10.023  -3.320  0.00  0.00    -0.251 OA
ATOM      8  N   UNL     1       0.912  -8.449  -4.556  0.00  0.00    -0.298 N 
ATOM      9  H   UNL     1       1.593  -8.504  -1.418  0.00  0.00    +0.174 HD
ATOM     10  H   UNL     1       0.508  -7.569  -4.603  0.00  0.00    +0.150 HD
BRANCH   8  11
ATOM     11  C   UNL     1       1.026  -9.268  -5.766  0.00  0.00    +0.108 C 
BRANCH  11  12
ATOM     12  C   UNL     1       0.436  -8.507  -6.954  0.00  0.00    -0.000 C 
ATOM     13  C   UNL     1       0.667  -9.308  -8.238  0.00  0.00    +0.009 C 
ATOM     14  C   UNL     1      -1.065  -8.310  -6.739  0.00  0.00    +0.009 C 
ENDBRANCH  11  12
ENDBRANCH   8  11
ENDBRANCH   3   5
BRANCH   1  15
ATOM     15  C   UNL     1      -0.052  -4.772  -1.294  0.00  0.00    +0.257 C 
ATOM     16  C   UNL     1      -1.529  -4.909  -1.672  0.00  0.00    +0.062 C 
BRANCH  15  17
ATOM     17  O   UNL     1       0.057  -4.130  -0.022  0.00  0.00    -0.479 OA
BRANCH  17  22
ATOM     18  C   UNL     1      -0.018   1.503   0.011  0.00  0.00    +0.044 C 
ATOM     19  C   UNL     1       0.002  -0.004   0.002  0.00  0.00    -0.049 A 
ATOM     20  C   UNL     1      -0.212  -0.691  -1.179  0.00  0.00    +0.007 A 
ATOM     21  C   UNL     1      -0.194  -2.072  -1.190  0.00  0.00    +0.047 A 
ATOM     22  C   UNL     1       0.039  -2.771  -0.014  0.00  0.00    +0.136 A 
ATOM     23  C   UNL     1       0.255  -2.080   1.170  0.00  0.00    +0.060 A 
ATOM     24  C   UNL     1       0.241  -0.698   1.174  0.00  0.00    +0.022 A 
ATOM     25 BR   UNL     1       0.573  -3.028   2.775  0.00  0.00    -0.047 Br
ENDBRANCH  17  22
ENDBRANCH  15  17
ENDBRANCH   1  15
TORSDOF 6
