REMARK  Name = ZINC54114293
REMARK  7 active torsions:
REMARK  status: ('A' for Active; 'I' for Inactive)
REMARK    1  A    between atoms: C_6  and  C_12
REMARK    2  A    between atoms: C_7  and  O_11
REMARK    3  A    between atoms: C_12  and  C_14
REMARK    4  A    between atoms: C_12  and  N_24
REMARK    5  A    between atoms: C_17  and  O_20
REMARK    6  A    between atoms: O_20  and  C_21
REMARK    7  A    between atoms: C_26  and  O_31
REMARK                            x       y       z     vdW  Elec       q    Type
REMARK                         _______ _______ _______ _____ _____    ______ ____
ROOT
ATOM      1  C   UNL     1       6.008  -0.880  -0.059  0.00  0.00    +0.136 C 
ENDROOT
BRANCH   1   7
ATOM      2  C   UNL     1       0.300   2.088  -0.165  0.00  0.00    +0.020 A 
ATOM      3  C   UNL     1       1.537   2.636   0.022  0.00  0.00    +0.011 A 
ATOM      4  C   UNL     1       2.652   1.777   0.005  0.00  0.00    +0.004 A 
ATOM      5  C   UNL     1       3.955   2.268   0.190  0.00  0.00    +0.010 A 
ATOM      6  C   UNL     1       5.010   1.407   0.167  0.00  0.00    +0.010 A 
ATOM      7  C   UNL     1       4.817   0.043  -0.039  0.00  0.00    +0.021 A 
ATOM      8  C   UNL     1       3.566  -0.470  -0.223  0.00  0.00    +0.148 A 
ATOM      9  C   UNL     1       2.448   0.391  -0.205  0.00  0.00    +0.113 A 
ATOM     10  N   UNL     1       1.211  -0.080  -0.381  0.00  0.00    -0.251 NA
ATOM     11  C   UNL     1       0.170   0.716  -0.365  0.00  0.00    +0.111 A 
BRANCH   8  12
ATOM     12  O   UNL     1       3.397  -1.803  -0.422  0.00  0.00    -0.504 OA
ATOM     13  H   UNL     1       3.269  -2.310   0.391  0.00  0.00    +0.292 HD
ENDBRANCH   8  12
ENDBRANCH   1   7
BRANCH   1  14
ATOM     14  N   UNL     1       7.201  -0.129  -0.459  0.00  0.00    -0.315 N 
ATOM     15  C   UNL     1       7.477   0.071  -1.809  0.00  0.00    +0.161 A 
ATOM     16  C   UNL     1       8.552   0.880  -2.184  0.00  0.00    +0.157 A 
ATOM     17  C   UNL     1       8.813   1.069  -3.532  0.00  0.00    +0.050 A 
ATOM     18  C   UNL     1       7.990   0.443  -4.460  0.00  0.00    +0.023 A 
ATOM     19  C   UNL     1       6.946  -0.342  -4.017  0.00  0.00    +0.113 A 
ATOM     20  N   UNL     1       6.722  -0.510  -2.727  0.00  0.00    -0.237 NA
ATOM     21  H   UNL     1       7.799   0.228   0.216  0.00  0.00    +0.148 HD
BRANCH  16  22
ATOM     22  O   UNL     1       9.331   1.473  -1.240  0.00  0.00    -0.503 OA
ATOM     23  H   UNL     1      10.088   0.940  -0.962  0.00  0.00    +0.292 HD
ENDBRANCH  16  22
ENDBRANCH   1  14
BRANCH   1  24
ATOM     24  C   UNL     1       6.218  -1.460   1.316  0.00  0.00    -0.023 A 
ATOM     25  C   UNL     1       6.721  -0.667   2.330  0.00  0.00    +0.009 A 
ATOM     26  C   UNL     1       6.915  -1.196   3.592  0.00  0.00    +0.046 A 
ATOM     27  C   UNL     1       6.603  -2.525   3.840  0.00  0.00    +0.127 A 
ATOM     28  C   UNL     1       6.097  -3.319   2.821  0.00  0.00    +0.046 A 
ATOM     29  C   UNL     1       5.901  -2.783   1.563  0.00  0.00    +0.009 A 
BRANCH  27  30
ATOM     30  O   UNL     1       6.793  -3.048   5.080  0.00  0.00    -0.434 OA
BRANCH  30  31
ATOM     31  C   UNL     1       6.450  -4.423   5.263  0.00  0.00    +0.541 C 
ATOM     32  F   UNL     1       5.092  -4.607   4.981  0.00  0.00    -0.166 F 
ATOM     33  F   UNL     1       7.216  -5.214   4.400  0.00  0.00    -0.166 F 
ENDBRANCH  30  31
ENDBRANCH  27  30
ENDBRANCH   1  24
TORSDOF 7
