REMARK  Name = ZINC09804781
REMARK  7 active torsions:
REMARK  status: ('A' for Active; 'I' for Inactive)
REMARK    1  A    between atoms: C_1  and  C_2
REMARK    2  A    between atoms: C_2  and  O_3
REMARK    3  A    between atoms: O_3  and  C_4
REMARK    4  A    between atoms: C_4  and  C_6
REMARK    5  A    between atoms: C_10  and  N_11
REMARK    6  A    between atoms: C_12  and  C_14
REMARK    7  A    between atoms: C_15  and  N_27
REMARK                            x       y       z     vdW  Elec       q    Type
REMARK                         _______ _______ _______ _____ _____    ______ ____
ROOT
ATOM      1  N   UNL     1      -1.289   1.181   4.957  0.00  0.00    -0.275 N 
ATOM      2  C   UNL     1      -2.066   1.843   5.837  0.00  0.00    +0.257 C 
ATOM      3  O   UNL     1      -2.762   2.768   5.460  0.00  0.00    -0.269 OA
ATOM      4  H   UNL     1      -0.735   0.444   5.257  0.00  0.00    +0.156 HD
ENDROOT
BRANCH   2   5
ATOM      5  C   UNL     1      -2.072   1.462   7.202  0.00  0.00    +0.097 A 
ATOM      6  C   UNL     1      -2.789   2.017   8.240  0.00  0.00    +0.053 A 
ATOM      7  C   UNL     1      -2.631   1.448   9.569  0.00  0.00    +0.029 A 
ATOM      8  C   UNL     1      -3.251   1.835  10.780  0.00  0.00    +0.017 A 
ATOM      9  C   UNL     1      -2.953   1.157  11.947  0.00  0.00    -0.025 A 
ATOM     10  C   UNL     1      -2.058   0.104  11.925  0.00  0.00    +0.046 A 
ATOM     11  N   UNL     1      -1.480  -0.252  10.787  0.00  0.00    -0.244 NA
ATOM     12  C   UNL     1      -1.729   0.363   9.655  0.00  0.00    +0.111 A 
ATOM     13  S   UNL     1      -1.150   0.157   7.989  0.00  0.00    -0.062 S 
ATOM     14  C   UNL     1      -1.704  -0.683  13.161  0.00  0.00    +0.056 C 
ATOM     15  C   UNL     1      -2.088   0.092  14.419  0.00  0.00    +0.006 C 
ATOM     16  C   UNL     1      -3.551   0.533  14.287  0.00  0.00    +0.005 C 
ATOM     17  C   UNL     1      -3.633   1.615  13.212  0.00  0.00    +0.037 C 
BRANCH   6  18
ATOM     18  N   UNL     1      -3.642   3.090   8.022  0.00  0.00    -0.356 N 
ATOM     19  H   UNL     1      -3.740   3.458   7.130  0.00  0.00    +0.142 HD
ATOM     20  H   UNL     1      -4.140   3.472   8.761  0.00  0.00    +0.142 HD
ENDBRANCH   6  18
ENDBRANCH   2   5
BRANCH   1  25
ATOM     21  C   UNL     1      -0.558   0.998   2.576  0.00  0.00    +0.091 A 
ATOM     22  C   UNL     1      -0.732   1.580   1.257  0.00  0.00    -0.021 A 
ATOM     23  C   UNL     1      -1.601   2.614   1.194  0.00  0.00    -0.004 A 
ATOM     24  S   UNL     1      -2.178   2.821   2.855  0.00  0.00    -0.077 S 
ATOM     25  C   UNL     1      -1.283   1.552   3.623  0.00  0.00    +0.087 A 
ATOM     26  C   UNL     1      -1.979   3.404  -0.021  0.00  0.00    +0.043 C 
ATOM     27  C   UNL     1      -0.956   3.111  -1.127  0.00  0.00    +0.005 C 
ATOM     28  C   UNL     1      -0.758   1.595  -1.227  0.00  0.00    +0.005 C 
ATOM     29  C   UNL     1      -0.013   1.086   0.008  0.00  0.00    +0.037 C 
BRANCH  21  30
ATOM     30  C   UNL     1       0.350  -0.129   2.793  0.00  0.00    +0.342 C 
ATOM     31  O   UNL     1      -0.061  -1.270   2.694  0.00  0.00    -0.245 OA
BRANCH  30  32
ATOM     32  O   UNL     1       1.643   0.096   3.105  0.00  0.00    -0.461 OA
BRANCH  32  34
ATOM     33  C   UNL     1       3.907  -0.617   3.649  0.00  0.00    +0.048 C 
ATOM     34  C   UNL     1       2.486  -1.069   3.307  0.00  0.00    +0.229 C 
ENDBRANCH  32  34
ENDBRANCH  30  32
ENDBRANCH  21  30
ENDBRANCH   1  25
TORSDOF 6
