REMARK  Name = ZINC63162223
REMARK  5 active torsions:
REMARK  status: ('A' for Active; 'I' for Inactive)
REMARK    1  A    between atoms: C_4  and  C_7
REMARK    2  A    between atoms: C_7  and  C_8
REMARK    3  A    between atoms: C_7  and  O_29
REMARK    4  A    between atoms: N_16  and  C_17
REMARK    5  A    between atoms: C_19  and  C_25
REMARK                            x       y       z     vdW  Elec       q    Type
REMARK                         _______ _______ _______ _____ _____    ______ ____
ROOT
ATOM      1  C   UNL     1       4.876  -1.348   0.580  0.00  0.00    +0.025 C 
ATOM      2  C   UNL     1       5.370   0.028   1.032  0.00  0.00    +0.025 C 
ATOM      3  C   UNL     1       5.350   0.097   2.562  0.00  0.00    +0.109 C 
ATOM      4  N   UNL     1       6.128  -1.029   3.096  0.00  0.00    -0.285 N 
ATOM      5  C   UNL     1       5.794  -2.390   2.656  0.00  0.00    +0.109 C 
ATOM      6  C   UNL     1       5.810  -2.431   1.125  0.00  0.00    +0.025 C 
ATOM      7  C   UNL     1       7.129  -0.817   3.973  0.00  0.00    +0.307 C 
ATOM      8  O   UNL     1       7.461   0.319   4.254  0.00  0.00    -0.252 OA
ATOM      9  N   UNL     1       7.763  -1.863   4.539  0.00  0.00    -0.265 N 
ATOM     10  H   UNL     1       7.499  -2.769   4.314  0.00  0.00    +0.157 HD
ENDROOT
BRANCH   9  11
ATOM     11  C   UNL     1       8.803  -1.643   5.452  0.00  0.00    +0.100 A 
ATOM     12  C   UNL     1       9.928  -2.420   5.422  0.00  0.00    +0.042 A 
ATOM     13  C   UNL     1      10.954  -2.178   6.346  0.00  0.00    +0.073 A 
ATOM     14  C   UNL     1      10.825  -1.185   7.256  0.00  0.00    +0.098 A 
ATOM     15  N   UNL     1       9.707  -0.411   7.288  0.00  0.00    -0.327 N 
ATOM     16  H   UNL     1       9.633   0.297   7.948  0.00  0.00    +0.168 HD
ATOM     17  C   UNL     1       8.705  -0.611   6.412  0.00  0.00    +0.270 A 
ATOM     18  O   UNL     1       7.710   0.095   6.449  0.00  0.00    -0.266 OA
BRANCH  13  19
ATOM     19  C   UNL     1      12.200  -3.025   6.328  0.00  0.00    +0.419 C 
ATOM     20  F   UNL     1      13.070  -2.596   7.336  0.00  0.00    -0.166 F 
ATOM     21  F   UNL     1      11.857  -4.363   6.546  0.00  0.00    -0.166 F 
ATOM     22  F   UNL     1      12.829  -2.901   5.085  0.00  0.00    -0.166 F 
ENDBRANCH  13  19
ENDBRANCH   9  11
BRANCH   1  23
ATOM     23  C   UNL     1       4.862  -1.408  -0.949  0.00  0.00    +0.148 C 
BRANCH  23  27
ATOM     24  C   UNL     1       2.256   1.614  -2.472  0.00  0.00    +0.000 A 
ATOM     25  C   UNL     1       3.623   1.823  -2.457  0.00  0.00    +0.000 A 
ATOM     26  C   UNL     1       4.466   0.845  -1.964  0.00  0.00    +0.006 A 
ATOM     27  C   UNL     1       3.943  -0.342  -1.485  0.00  0.00    -0.019 A 
ATOM     28  C   UNL     1       2.576  -0.550  -1.500  0.00  0.00    +0.006 A 
ATOM     29  C   UNL     1       1.733   0.427  -1.994  0.00  0.00    +0.000 A 
ENDBRANCH  23  27
BRANCH  23  30
ATOM     30  O   UNL     1       4.399  -2.692  -1.371  0.00  0.00    -0.387 OA
ATOM     31  H   UNL     1       3.506  -2.907  -1.069  0.00  0.00    +0.210 HD
ENDBRANCH  23  30
ENDBRANCH   1  23
TORSDOF 5
