REMARK  Name = ZINC06045547
REMARK  8 active torsions:
REMARK  status: ('A' for Active; 'I' for Inactive)
REMARK    1  A    between atoms: C_1  and  C_2
REMARK    2  A    between atoms: C_2  and  C_3
REMARK    3  A    between atoms: C_3  and  C_4
REMARK    4  A    between atoms: C_11  and  N_16
REMARK    5  A    between atoms: C_12  and  C_13
REMARK    6  A    between atoms: C_17  and  C_19
REMARK    7  A    between atoms: C_24  and  O_25
REMARK    8  A    between atoms: O_25  and  C_26
REMARK                            x       y       z     vdW  Elec       q    Type
REMARK                         _______ _______ _______ _____ _____    ______ ____
ROOT
ATOM      1  C   UNL     1       5.444   4.640  -0.404  0.00  0.00    -0.006 C 
ATOM      2  C   UNL     1       4.548   5.546   0.446  0.00  0.00    +0.008 C 
ATOM      3  C   UNL     1       3.091   5.402   0.003  0.00  0.00    +0.037 C 
ATOM      4  C   UNL     1       2.725   3.922  -0.002  0.00  0.00    -0.023 A 
ATOM      5  C   UNL     1       3.682   2.969  -0.016  0.00  0.00    -0.004 A 
ATOM      6  S   UNL     1       2.794   1.437  -0.009  0.00  0.00    -0.077 S 
ATOM      7  C   UNL     1       1.174   2.053   0.002  0.00  0.00    +0.085 A 
ATOM      8  C   UNL     1       1.359   3.428   0.007  0.00  0.00    +0.068 A 
ATOM      9  C   UNL     1       5.165   3.177  -0.030  0.00  0.00    +0.046 C 
ENDROOT
BRANCH   8  10
ATOM     10  C   UNL     1       0.217   4.348   0.023  0.00  0.00    +0.244 C 
ATOM     11  O   UNL     1      -0.247   4.724   1.083  0.00  0.00    -0.270 OA
ATOM     12  N   UNL     1      -0.318   4.778  -1.137  0.00  0.00    -0.325 N 
ATOM     13  H   UNL     1       0.052   4.478  -1.982  0.00  0.00    +0.145 HD
ATOM     14  H   UNL     1      -1.073   5.387  -1.127  0.00  0.00    +0.145 HD
ENDBRANCH   8  10
BRANCH   7  15
ATOM     15  N   UNL     1      -0.016   1.344   0.009  0.00  0.00    -0.275 N 
ATOM     16  C   UNL     1       0.002  -0.004   0.002  0.00  0.00    +0.252 C 
ATOM     17  O   UNL     1       1.063  -0.598  -0.011  0.00  0.00    -0.270 OA
ATOM     18  H   UNL     1      -0.863   1.817   0.016  0.00  0.00    +0.156 HD
BRANCH  16  19
ATOM     19  C   UNL     1      -1.265  -0.759   0.010  0.00  0.00    +0.079 A 
ATOM     20  C   UNL     1      -2.487  -0.081   0.025  0.00  0.00    +0.017 A 
ATOM     21  C   UNL     1      -3.667  -0.792   0.033  0.00  0.00    +0.001 A 
ATOM     22  C   UNL     1      -3.648  -2.177   0.025  0.00  0.00    +0.004 A 
ATOM     23  C   UNL     1      -2.448  -2.860   0.010  0.00  0.00    +0.046 A 
ATOM     24  C   UNL     1      -1.251  -2.160  -0.003  0.00  0.00    +0.132 A 
BRANCH  24  25
ATOM     25  O   UNL     1      -0.071  -2.830  -0.024  0.00  0.00    -0.494 OA
ATOM     26  C   UNL     1      -0.135  -4.257  -0.037  0.00  0.00    +0.277 C 
ENDBRANCH  24  25
ENDBRANCH  16  19
ENDBRANCH   7  15
BRANCH   1  27
ATOM     27  C   UNL     1       6.913   4.968  -0.129  0.00  0.00    +0.003 C 
BRANCH  27  29
ATOM     28  C   UNL     1       9.271   4.466  -0.783  0.00  0.00    +0.004 C 
ATOM     29  C   UNL     1       7.803   4.138  -1.057  0.00  0.00    -0.003 C 
ENDBRANCH  27  29
ENDBRANCH   1  27
TORSDOF 6
