REMARK  Name = ZINC03291228
REMARK  11 active torsions:
REMARK  status: ('A' for Active; 'I' for Inactive)
REMARK    1  A    between atoms: C_1  and  C_2
REMARK    2  A    between atoms: C_4  and  S_10
REMARK    3  A    between atoms: C_5  and  C_9
REMARK    4  A    between atoms: S_10  and  C_11
REMARK    5  A    between atoms: C_11  and  C_12
REMARK    6  A    between atoms: N_14  and  N_15
REMARK    7  A    between atoms: N_15  and  C_16
REMARK    8  A    between atoms: C_16  and  N_18
REMARK    9  A    between atoms: N_18  and  C_19
REMARK   10  A    between atoms: C_22  and  C_25
REMARK   11  A    between atoms: C_25  and  C_27
REMARK                            x       y       z     vdW  Elec       q    Type
REMARK                         _______ _______ _______ _____ _____    ______ ____
ROOT
ATOM      1  C   UNL     1       3.613  -0.875   0.224  0.00  0.00    +0.239 C 
ATOM      2  O   UNL     1       4.605  -0.278  -0.137  0.00  0.00    -0.273 OA
ATOM      3  N   UNL     1       2.406  -0.278   0.158  0.00  0.00    -0.234 N 
ATOM      4  H   UNL     1       1.613  -0.755   0.446  0.00  0.00    +0.173 HD
ENDROOT
BRANCH   3   5
ATOM      5  N   UNL     1       2.298   1.032  -0.328  0.00  0.00    -0.246 N 
ATOM      6  H   UNL     1       3.092   1.509  -0.616  0.00  0.00    +0.172 HD
BRANCH   5   7
ATOM      7  C   UNL     1       1.092   1.629  -0.394  0.00  0.00    +0.151 C 
ATOM      8  S   UNL     1       0.960   3.229  -0.987  0.00  0.00    -0.017 S 
BRANCH   7   9
ATOM      9  N   UNL     1      -0.011   0.966   0.007  0.00  0.00    -0.296 N 
ATOM     10  H   UNL     1       0.055   0.039   0.285  0.00  0.00    +0.154 HD
BRANCH   9  11
ATOM     11  C   UNL     1      -1.245   1.610   0.018  0.00  0.00    +0.033 A 
ATOM     12  C   UNL     1      -2.086   1.481   1.120  0.00  0.00    +0.024 A 
ATOM     13  C   UNL     1      -3.296   2.116   1.137  0.00  0.00    +0.013 A 
ATOM     14  C   UNL     1      -3.694   2.888   0.038  0.00  0.00    +0.017 A 
ATOM     15  C   UNL     1      -2.848   3.010  -1.071  0.00  0.00    +0.013 A 
ATOM     16  C   UNL     1      -1.638   2.376  -1.077  0.00  0.00    +0.024 A 
BRANCH  14  17
ATOM     17  C   UNL     1      -4.995   3.568   0.050  0.00  0.00    +0.160 C 
ATOM     18  O   UNL     1      -5.339   4.237  -0.902  0.00  0.00    -0.292 OA
ATOM     19  C   UNL     1      -5.904   3.436   1.244  0.00  0.00    +0.091 C 
ENDBRANCH  14  17
ENDBRANCH   9  11
ENDBRANCH   7   9
ENDBRANCH   5   7
ENDBRANCH   3   5
BRANCH   1  20
ATOM     20  C   UNL     1       3.729  -2.284   0.746  0.00  0.00    +0.171 C 
BRANCH  20  21
ATOM     21  S   UNL     1       5.467  -2.801   0.710  0.00  0.00    -0.116 S 
BRANCH  21  25
ATOM     22  C   UNL     1       2.903  -6.937   2.632  0.00  0.00    +0.045 C 
ATOM     23  C   UNL     1       4.210  -6.311   2.218  0.00  0.00    -0.035 A 
ATOM     24  C   UNL     1       4.232  -5.019   1.729  0.00  0.00    +0.019 A 
ATOM     25  C   UNL     1       5.436  -4.445   1.342  0.00  0.00    +0.012 A 
ATOM     26  C   UNL     1       6.617  -5.168   1.459  0.00  0.00    -0.036 A 
ATOM     27  C   UNL     1       6.589  -6.457   1.955  0.00  0.00    +0.020 A 
ATOM     28  C   UNL     1       5.387  -7.028   2.334  0.00  0.00    +0.021 A 
ATOM     29 BR   UNL     1       5.354  -8.793   3.013  0.00  0.00    -0.050 Br
ATOM     30  C   UNL     1       7.926  -4.547   1.046  0.00  0.00    +0.045 C 
ENDBRANCH  21  25
ENDBRANCH  20  21
ENDBRANCH   1  20
TORSDOF 8
