REMARK  Name = ZINC67272745
REMARK  5 active torsions:
REMARK  status: ('A' for Active; 'I' for Inactive)
REMARK    1  A    between atoms: C_6  and  C_7
REMARK    2  A    between atoms: C_7  and  C_8
REMARK    3  A    between atoms: C_8  and  C_9
REMARK    4  A    between atoms: C_9  and  N_10
REMARK    5  A    between atoms: C_11  and  C_13
REMARK                            x       y       z     vdW  Elec       q    Type
REMARK                         _______ _______ _______ _____ _____    ______ ____
ROOT
ATOM      1  N   UNL     1      -3.493  -2.053  -2.798  0.00  0.00    -0.315 N 
ATOM      2  C   UNL     1      -4.634  -2.730  -3.037  0.00  0.00    +0.216 C 
ATOM      3  O   UNL     1      -5.302  -3.138  -2.111  0.00  0.00    -0.276 OA
ATOM      4  H   UNL     1      -2.959  -1.727  -3.539  0.00  0.00    +0.149 HD
ENDROOT
BRANCH   2   5
ATOM      5  C   UNL     1      -5.080  -2.979  -4.455  0.00  0.00    +0.075 C 
ATOM      6  C   UNL     1      -5.287  -1.641  -5.167  0.00  0.00    +0.015 C 
ATOM      7  C   UNL     1      -5.728  -1.895  -6.611  0.00  0.00    +0.036 C 
ATOM      8  C   UNL     1      -7.024  -2.699  -6.615  0.00  0.00    +0.112 C 
ATOM      9  C   UNL     1      -6.840  -4.025  -5.886  0.00  0.00    +0.036 C 
ATOM     10  C   UNL     1      -6.395  -3.762  -4.446  0.00  0.00    +0.015 C 
ATOM     11  C   UNL     1      -8.142  -1.901  -5.985  0.00  0.00    +0.244 C 
ATOM     12  O   UNL     1      -8.196  -1.485  -4.848  0.00  0.00    -0.273 OA
ATOM     13  N   UNL     1      -9.067  -1.748  -6.956  0.00  0.00    -0.238 N 
ATOM     14  C   UNL     1      -8.686  -2.334  -8.097  0.00  0.00    +0.307 C 
ATOM     15  O   UNL     1      -9.352  -2.332  -9.113  0.00  0.00    -0.252 OA
ATOM     16  N   UNL     1      -7.481  -2.928  -7.992  0.00  0.00    -0.285 N 
ATOM     17  H   UNL     1      -9.904  -1.272  -6.840  0.00  0.00    +0.159 HD
ATOM     18  H   UNL     1      -7.009  -3.411  -8.688  0.00  0.00    +0.151 HD
ENDBRANCH   2   5
BRANCH   1  19
ATOM     19  C   UNL     1      -3.060  -1.811  -1.420  0.00  0.00    +0.104 C 
BRANCH  19  20
ATOM     20  C   UNL     1      -1.745  -1.028  -1.429  0.00  0.00    +0.023 C 
BRANCH  20  21
ATOM     21  C   UNL     1      -1.293  -0.775   0.011  0.00  0.00    +0.036 C 
BRANCH  21  27
ATOM     22  C   UNL     1      -0.017   1.378   0.010  0.00  0.00    +0.005 A 
ATOM     23  C   UNL     1       1.171   2.086   0.002  0.00  0.00    +0.020 A 
ATOM     24  C   UNL     1       2.378   1.410  -0.013  0.00  0.00    +0.041 A 
ATOM     25  C   UNL     1       2.396   0.027  -0.021  0.00  0.00    +0.020 A 
ATOM     26  C   UNL     1       1.208  -0.679  -0.013  0.00  0.00    +0.005 A 
ATOM     27  C   UNL     1       0.002  -0.004   0.002  0.00  0.00    -0.047 A 
ATOM     28 CL   UNL     1       3.870   2.298  -0.023  0.00  0.00    -0.084 Cl
ENDBRANCH  21  27
ENDBRANCH  20  21
ENDBRANCH  19  20
ENDBRANCH   1  19
TORSDOF 5
