REMARK  Name = ZINC10510687
REMARK  12 active torsions:
REMARK  status: ('A' for Active; 'I' for Inactive)
REMARK    1  A    between atoms: C_1  and  C_2
REMARK    2  A    between atoms: C_2  and  C_3
REMARK    3  A    between atoms: N_5  and  C_6
REMARK    4  A    between atoms: C_9  and  C_12
REMARK    5  A    between atoms: N_14  and  N_15
REMARK    6  A    between atoms: N_15  and  C_16
REMARK    7  A    between atoms: C_16  and  N_18
REMARK    8  A    between atoms: C_19  and  C_21
REMARK    9  A    between atoms: C_26  and  O_27
REMARK   10  A    between atoms: O_27  and  C_28
REMARK   11  A    between atoms: C_28  and  C_29
REMARK   12  A    between atoms: C_29  and  C_30
REMARK                            x       y       z     vdW  Elec       q    Type
REMARK                         _______ _______ _______ _____ _____    ______ ____
ROOT
ATOM      1  C   UNL     1       3.517   1.877   0.007  0.00  0.00    +0.153 C 
ATOM      2  S   UNL     1       5.008   1.035  -0.003  0.00  0.00    -0.017 S 
ENDROOT
BRANCH   1   3
ATOM      3  N   UNL     1       3.503   3.224   0.004  0.00  0.00    -0.263 N 
ATOM      4  C   UNL     1       4.664   3.910  -0.007  0.00  0.00    +0.253 C 
ATOM      5  O   UNL     1       5.722   3.312  -0.014  0.00  0.00    -0.270 OA
ATOM      6  H   UNL     1       2.658   3.701   0.010  0.00  0.00    +0.157 HD
BRANCH   4   7
ATOM      7  C   UNL     1       4.649   5.384  -0.011  0.00  0.00    +0.079 A 
ATOM      8  C   UNL     1       3.434   6.075  -0.008  0.00  0.00    +0.017 A 
ATOM      9  C   UNL     1       3.427   7.453  -0.006  0.00  0.00    +0.001 A 
ATOM     10  C   UNL     1       4.620   8.158  -0.017  0.00  0.00    +0.004 A 
ATOM     11  C   UNL     1       5.827   7.488  -0.026  0.00  0.00    +0.046 A 
ATOM     12  C   UNL     1       5.853   6.101  -0.022  0.00  0.00    +0.133 A 
BRANCH  12  13
ATOM     13  O   UNL     1       7.039   5.442  -0.030  0.00  0.00    -0.491 OA
BRANCH  13  14
ATOM     14  C   UNL     1       8.225   6.239  -0.042  0.00  0.00    +0.233 C 
BRANCH  14  15
ATOM     15  C   UNL     1       9.453   5.327  -0.049  0.00  0.00    +0.076 C 
BRANCH  15  16
ATOM     16  C   UNL     1      10.703   6.168  -0.061  0.00  0.00    -0.044 A 
ATOM     17  C   UNL     1      11.270   6.545  -1.264  0.00  0.00    +0.004 A 
ATOM     18  C   UNL     1      12.415   7.321  -1.275  0.00  0.00    +0.000 A 
ATOM     19  C   UNL     1      12.998   7.710  -0.084  0.00  0.00    +0.000 A 
ATOM     20  C   UNL     1      12.434   7.328   1.119  0.00  0.00    +0.000 A 
ATOM     21  C   UNL     1      11.286   6.557   1.131  0.00  0.00    +0.004 A 
ENDBRANCH  15  16
ENDBRANCH  14  15
ENDBRANCH  13  14
ENDBRANCH  12  13
ENDBRANCH   4   7
ENDBRANCH   1   3
BRANCH   1  22
ATOM     22  N   UNL     1       2.356   1.191   0.018  0.00  0.00    -0.245 N 
ATOM     23  H   UNL     1       2.366   0.221   0.021  0.00  0.00    +0.172 HD
BRANCH  22  26
ATOM     24  C   UNL     1      -0.024   1.194   0.038  0.00  0.00    +0.260 C 
ATOM     25  O   UNL     1      -0.012  -0.022   0.041  0.00  0.00    -0.269 OA
ATOM     26  N   UNL     1       1.136   1.879   0.027  0.00  0.00    -0.231 N 
ATOM     27  H   UNL     1       1.126   2.849   0.024  0.00  0.00    +0.173 HD
BRANCH  24  31
ATOM     28  C   UNL     1      -3.723   3.281   0.045  0.00  0.00    +0.033 A 
ATOM     29  C   UNL     1      -3.711   1.889   0.048  0.00  0.00    +0.024 A 
ATOM     30  C   UNL     1      -2.514   1.210   0.046  0.00  0.00    +0.015 A 
ATOM     31  C   UNL     1      -1.310   1.919   0.040  0.00  0.00    +0.038 A 
ATOM     32  C   UNL     1      -1.325   3.317   0.043  0.00  0.00    +0.015 A 
ATOM     33  C   UNL     1      -2.526   3.990   0.038  0.00  0.00    +0.024 A 
BRANCH  28  36
ATOM     34  C   UNL     1      -5.996   3.464  -0.620  0.00  0.00    +0.217 C 
ATOM     35  O   UNL     1      -5.917   2.377  -1.153  0.00  0.00    -0.275 OA
ATOM     36  N   UNL     1      -4.938   3.966   0.047  0.00  0.00    -0.286 N 
ATOM     37  H   UNL     1      -5.021   4.803   0.529  0.00  0.00    +0.155 HD
BRANCH  34  39
ATOM     38  C   UNL     1      -8.310   3.464  -1.511  0.00  0.00    +0.013 C 
ATOM     39  C   UNL     1      -7.277   4.253  -0.705  0.00  0.00    +0.093 C 
ENDBRANCH  34  39
ENDBRANCH  28  36
ENDBRANCH  24  31
ENDBRANCH  22  26
ENDBRANCH   1  22
TORSDOF 11
