REMARK  Name = ZINC02442664
REMARK  9 active torsions:
REMARK  status: ('A' for Active; 'I' for Inactive)
REMARK    1  A    between atoms: C_1  and  C_2
REMARK    2  A    between atoms: N_8  and  C_9
REMARK    3  A    between atoms: C_9  and  C_10
REMARK    4  A    between atoms: C_10  and  C_11
REMARK    5  A    between atoms: C_14  and  O_18
REMARK    6  A    between atoms: C_15  and  O_17
REMARK    7  A    between atoms: C_19  and  C_27
REMARK    8  A    between atoms: C_21  and  C_25
REMARK    9  A    between atoms: C_22  and  N_24
REMARK                            x       y       z     vdW  Elec       q    Type
REMARK                         _______ _______ _______ _____ _____    ______ ____
ROOT
ATOM      1  C   UNL     1       5.417   3.008   0.031  0.00  0.00    +0.064 C 
ATOM      2  C   UNL     1       3.992   2.516   0.013  0.00  0.00    +0.022 A 
ATOM      3  C   UNL     1       3.091   3.114  -0.795  0.00  0.00    +0.068 A 
ATOM      4  C   UNL     1       1.757   2.658  -0.816  0.00  0.00    +0.141 A 
ATOM      5  C   UNL     1       1.399   1.604  -0.003  0.00  0.00    +0.072 A 
ATOM      6  C   UNL     1       2.368   1.014   0.820  0.00  0.00    +0.259 A 
ATOM      7  O   UNL     1       2.066   0.079   1.545  0.00  0.00    -0.267 OA
ATOM      8  N   UNL     1       3.632   1.477   0.811  0.00  0.00    -0.312 N 
ATOM      9  C   UNL     1      -0.013   1.086   0.008  0.00  0.00    +0.103 C 
ATOM     10  C   UNL     1      -0.755   1.581  -1.202  0.00  0.00    +0.098 C 
ATOM     11  C   UNL     1      -0.288   2.619  -1.936  0.00  0.00    +0.199 C 
ATOM     12  O   UNL     1       0.854   3.255  -1.623  0.00  0.00    -0.441 OA
ENDROOT
BRANCH   9  13
ATOM     13  C   UNL     1      -0.713   1.569   1.252  0.00  0.00    -0.033 A 
ATOM     14  C   UNL     1      -0.850   2.925   1.485  0.00  0.00    +0.004 A 
ATOM     15  C   UNL     1      -1.496   3.369   2.623  0.00  0.00    +0.002 A 
ATOM     16  C   UNL     1      -1.996   2.458   3.535  0.00  0.00    +0.020 A 
ATOM     17  C   UNL     1      -1.854   1.101   3.305  0.00  0.00    +0.041 A 
ATOM     18  C   UNL     1      -1.212   0.657   2.163  0.00  0.00    +0.024 A 
ATOM     19 CL   UNL     1      -2.480  -0.044   4.449  0.00  0.00    -0.084 Cl
ENDBRANCH   9  13
BRANCH  11  20
ATOM     20  N   UNL     1      -1.003   3.034  -3.032  0.00  0.00    -0.328 N 
ATOM     21  H   UNL     1      -0.682   3.777  -3.567  0.00  0.00    +0.145 HD
ATOM     22  H   UNL     1      -1.829   2.586  -3.271  0.00  0.00    +0.145 HD
ENDBRANCH  11  20
BRANCH  10  23
ATOM     23  C   UNL     1      -1.978   0.943  -1.586  0.00  0.00    +0.101 C 
ATOM     24  N   UNL     1      -2.948   0.436  -1.891  0.00  0.00    -0.191 NA
ENDBRANCH  10  23
BRANCH   8  25
ATOM     25  C   UNL     1       4.635   0.850   1.675  0.00  0.00    +0.130 C 
BRANCH  25  26
ATOM     26  C   UNL     1       4.653   1.557   3.032  0.00  0.00    +0.057 C 
BRANCH  26  27
ATOM     27  C   UNL     1       5.684   0.912   3.921  0.00  0.00    -0.042 A 
ATOM     28  C   UNL     1       5.327  -0.143   4.741  0.00  0.00    +0.007 A 
ATOM     29  C   UNL     1       6.271  -0.742   5.554  0.00  0.00    +0.049 A 
ATOM     30  C   UNL     1       7.577  -0.277   5.557  0.00  0.00    +0.158 A 
ATOM     31  C   UNL     1       7.935   0.788   4.737  0.00  0.00    +0.158 A 
ATOM     32  C   UNL     1       6.985   1.379   3.920  0.00  0.00    +0.052 A 
BRANCH  31  33
ATOM     33  O   UNL     1       9.216   1.246   4.736  0.00  0.00    -0.503 OA
ATOM     34  H   UNL     1       9.383   1.946   5.383  0.00  0.00    +0.292 HD
ENDBRANCH  31  33
BRANCH  30  35
ATOM     35  O   UNL     1       8.505  -0.861   6.361  0.00  0.00    -0.503 OA
ATOM     36  H   UNL     1       8.570  -0.464   7.240  0.00  0.00    +0.292 HD
ENDBRANCH  30  35
ENDBRANCH  26  27
ENDBRANCH  25  26
ENDBRANCH   8  25
TORSDOF 8
