REMARK  Name = ZINC46575641
REMARK  11 active torsions:
REMARK  status: ('A' for Active; 'I' for Inactive)
REMARK    1  A    between atoms: C_1  and  C_2
REMARK    2  A    between atoms: C_4  and  C_28
REMARK    3  A    between atoms: C_5  and  C_9
REMARK    4  A    between atoms: C_7  and  C_8
REMARK    5  A    between atoms: C_10  and  C_11
REMARK    6  A    between atoms: N_13  and  N_14
REMARK    7  A    between atoms: N_14  and  C_15
REMARK    8  A    between atoms: C_15  and  N_17
REMARK    9  A    between atoms: N_17  and  C_18
REMARK   10  A    between atoms: C_22  and  N_24
REMARK   11  A    between atoms: C_25  and  C_27
REMARK                            x       y       z     vdW  Elec       q    Type
REMARK                         _______ _______ _______ _____ _____    ______ ____
ROOT
ATOM      1  N   UNL     1      -0.115  -8.424   2.313  0.00  0.00    -0.245 N 
ATOM      2  H   UNL     1      -0.312  -8.871   1.475  0.00  0.00    +0.172 HD
ENDROOT
BRANCH   1   5
ATOM      3  C   UNL     1       0.138  -6.347   1.178  0.00  0.00    +0.253 C 
ATOM      4  O   UNL     1      -0.108  -6.907   0.126  0.00  0.00    -0.269 OA
ATOM      5  N   UNL     1       0.153  -7.049   2.329  0.00  0.00    -0.232 N 
ATOM      6  H   UNL     1       0.349  -6.603   3.167  0.00  0.00    +0.173 HD
BRANCH   3   8
ATOM      7  C   UNL     1       0.403  -4.208   0.043  0.00  0.00    +0.013 C 
ATOM      8  C   UNL     1       0.418  -4.910   1.194  0.00  0.00    +0.069 C 
BRANCH   7  13
ATOM      9  C   UNL     1       1.501   1.435   0.106  0.00  0.00    +0.044 C 
ATOM     10  C   UNL     1       1.214  -0.044   0.090  0.00  0.00    -0.047 A 
ATOM     11  C   UNL     1       0.935  -0.678  -1.109  0.00  0.00    +0.007 A 
ATOM     12  C   UNL     1       0.670  -2.031  -1.132  0.00  0.00    -0.043 A 
ATOM     13  C   UNL     1       0.685  -2.763   0.059  0.00  0.00    -0.022 A 
ATOM     14  C   UNL     1       0.968  -2.115   1.266  0.00  0.00    +0.011 A 
ATOM     15  C   UNL     1       1.235  -0.762   1.272  0.00  0.00    -0.047 A 
ATOM     16  C   UNL     1       1.547  -0.064   2.571  0.00  0.00    +0.044 C 
ATOM     17  C   UNL     1       0.366  -2.719  -2.438  0.00  0.00    +0.044 C 
ENDBRANCH   7  13
ENDBRANCH   3   8
ENDBRANCH   1   5
BRANCH   1  18
ATOM     18  C   UNL     1      -0.101  -9.127   3.464  0.00  0.00    +0.151 C 
ATOM     19  S   UNL     1      -0.428 -10.807   3.445  0.00  0.00    -0.017 S 
BRANCH  18  20
ATOM     20  N   UNL     1       0.172  -8.506   4.628  0.00  0.00    -0.296 N 
ATOM     21  H   UNL     1       0.438  -7.573   4.630  0.00  0.00    +0.154 HD
BRANCH  20  22
ATOM     22  C   UNL     1       0.072  -9.207   5.835  0.00  0.00    +0.034 A 
ATOM     23  C   UNL     1       1.029  -9.027   6.826  0.00  0.00    +0.023 A 
ATOM     24  C   UNL     1       0.931  -9.719   8.017  0.00  0.00    +0.004 A 
ATOM     25  C   UNL     1      -0.118 -10.593   8.227  0.00  0.00    +0.023 A 
ATOM     26  C   UNL     1      -1.079 -10.777   7.241  0.00  0.00    +0.035 A 
ATOM     27  C   UNL     1      -0.986 -10.080   6.045  0.00  0.00    +0.046 A 
BRANCH  26  28
ATOM     28  N   UNL     1      -2.141 -11.662   7.455  0.00  0.00    -0.286 N 
ATOM     29  C   UNL     1      -2.667 -11.799   8.688  0.00  0.00    +0.214 C 
ATOM     30  O   UNL     1      -2.169 -11.216   9.628  0.00  0.00    -0.276 OA
ATOM     31  C   UNL     1      -3.874 -12.676   8.900  0.00  0.00    +0.109 C 
ATOM     32  H   UNL     1      -2.499 -12.178   6.715  0.00  0.00    +0.155 HD
ENDBRANCH  26  28
ENDBRANCH  20  22
ENDBRANCH  18  20
ENDBRANCH   1  18
TORSDOF 7
