REMARK  Name = ZINC59249089
REMARK  9 active torsions:
REMARK  status: ('A' for Active; 'I' for Inactive)
REMARK    1  A    between atoms: C_1  and  C_2
REMARK    2  A    between atoms: C_6  and  C_25
REMARK    3  A    between atoms: C_8  and  O_11
REMARK    4  A    between atoms: O_11  and  C_12
REMARK    5  A    between atoms: C_12  and  C_14
REMARK    6  A    between atoms: N_22  and  C_23
REMARK    7  A    between atoms: N_22  and  C_24
REMARK    8  A    between atoms: C_25  and  C_26
REMARK    9  A    between atoms: C_25  and  C_27
REMARK                            x       y       z     vdW  Elec       q    Type
REMARK                         _______ _______ _______ _____ _____    ______ ____
ROOT
ATOM      1  C   UNL     1      -1.256  -1.469   2.364  0.00  0.00    +0.311 C 
ATOM      2  O   UNL     1      -0.771  -0.822   3.261  0.00  0.00    -0.251 OA
ENDROOT
BRANCH   1   3
ATOM      3  C   UNL     1      -2.447  -2.354   2.631  0.00  0.00    +0.101 C 
ATOM      4  C   UNL     1      -3.621  -1.906   1.758  0.00  0.00    +0.034 C 
ATOM      5  C   UNL     1      -4.818  -2.829   2.007  0.00  0.00    +0.110 C 
ATOM      6  N   UNL     1      -5.110  -2.847   3.447  0.00  0.00    -0.285 N 
ATOM      7  C   UNL     1      -4.027  -3.176   4.383  0.00  0.00    +0.110 C 
ATOM      8  C   UNL     1      -2.838  -2.250   4.107  0.00  0.00    +0.034 C 
ATOM      9  C   UNL     1      -6.348  -2.566   3.900  0.00  0.00    +0.304 C 
ATOM     10  O   UNL     1      -7.128  -1.952   3.198  0.00  0.00    -0.252 OA
ATOM     11  N   UNL     1      -6.721  -2.967   5.132  0.00  0.00    -0.292 N 
ATOM     12  C   UNL     1      -8.011  -2.541   5.681  0.00  0.00    +0.133 C 
ATOM     13  C   UNL     1      -5.837  -3.828   5.921  0.00  0.00    +0.133 C 
ENDBRANCH   1   3
BRANCH   1  14
ATOM     14  O   UNL     1      -0.736  -1.400   1.129  0.00  0.00    -0.461 OA
BRANCH  14  20
ATOM     15  C   UNL     1      -1.375   2.195  -1.106  0.00  0.00    +0.007 C 
ATOM     16  C   UNL     1      -0.893   0.792  -0.730  0.00  0.00    -0.011 C 
ATOM     17  C   UNL     1      -0.006   0.240  -1.848  0.00  0.00    +0.004 C 
ATOM     18  C   UNL     1       0.476  -1.162  -1.471  0.00  0.00    +0.007 C 
ATOM     19  C   UNL     1       1.279  -1.093  -0.171  0.00  0.00    +0.032 C 
ATOM     20  C   UNL     1       0.392  -0.541   0.947  0.00  0.00    +0.180 C 
ATOM     21  C   UNL     1      -0.089   0.861   0.571  0.00  0.00    +0.048 C 
BRANCH  19  22
ATOM     22  C   UNL     1       1.761  -2.496   0.206  0.00  0.00    -0.011 C 
ATOM     23  C   UNL     1       2.647  -3.048  -0.913  0.00  0.00    +0.007 C 
ATOM     24  C   UNL     1       2.564  -2.427   1.506  0.00  0.00    +0.007 C 
ENDBRANCH  19  22
ENDBRANCH  14  20
ENDBRANCH   1  14
TORSDOF 4
