REMARK  Name = ZINC25071174
REMARK  9 active torsions:
REMARK  status: ('A' for Active; 'I' for Inactive)
REMARK    1  A    between atoms: C_1  and  C_2
REMARK    2  A    between atoms: C_2  and  O_3
REMARK    3  A    between atoms: O_3  and  C_4
REMARK    4  A    between atoms: C_6  and  C_11
REMARK    5  A    between atoms: C_9  and  O_10
REMARK    6  A    between atoms: C_13  and  C_20
REMARK    7  A    between atoms: C_14  and  C_19
REMARK    8  A    between atoms: N_22  and  C_23
REMARK    9  A    between atoms: C_26  and  N_29
REMARK                            x       y       z     vdW  Elec       q    Type
REMARK                         _______ _______ _______ _____ _____    ______ ____
ROOT
ATOM      1  C   UNL     1      -0.706  -5.494   1.048  0.00  0.00    +0.139 C 
ATOM      2  C   UNL     1      -1.405  -5.938  -0.221  0.00  0.00    +0.056 C 
ATOM      3  C   UNL     1      -1.123  -7.169  -0.696  0.00  0.00    +0.017 C 
ATOM      4  N   UNL     1      -0.237  -7.986  -0.054  0.00  0.00    -0.300 N 
ATOM      5  C   UNL     1       0.408  -7.646   1.069  0.00  0.00    +0.135 C 
ATOM      6  S   UNL     1       1.494  -8.766   1.772  0.00  0.00    -0.019 S 
ATOM      7  N   UNL     1       0.230  -6.449   1.663  0.00  0.00    -0.315 N 
ATOM      8  C   UNL     1      -1.797  -7.650  -1.955  0.00  0.00    +0.061 C 
ATOM      9  H   UNL     1      -0.020  -8.987  -0.457  0.00  0.00    +0.154 HD
ATOM     10  H   UNL     1       0.765  -6.179   2.585  0.00  0.00    +0.149 HD
ENDROOT
BRANCH   1  13
ATOM     11  C   UNL     1       0.311  -1.856   0.964  0.00  0.00    +0.162 A 
ATOM     12  C   UNL     1      -0.384  -3.020   1.249  0.00  0.00    +0.055 A 
ATOM     13  C   UNL     1       0.054  -4.229   0.741  0.00  0.00    -0.019 A 
ATOM     14  C   UNL     1       1.192  -4.282  -0.043  0.00  0.00    +0.009 A 
ATOM     15  C   UNL     1       1.893  -3.125  -0.326  0.00  0.00    +0.049 A 
ATOM     16  C   UNL     1       1.456  -1.909   0.175  0.00  0.00    +0.158 A 
BRANCH  16  17
ATOM     17  O   UNL     1       2.146  -0.770  -0.103  0.00  0.00    -0.503 OA
ATOM     18  H   UNL     1       3.051  -0.813  -0.727  0.00  0.00    +0.292 HD
ENDBRANCH  16  17
BRANCH  11  19
ATOM     19  O   UNL     1      -0.122  -0.665   1.458  0.00  0.00    -0.489 OA
BRANCH  19  21
ATOM     20  C   UNL     1      -1.560   0.717   2.822  0.00  0.00    +0.048 C 
ATOM     21  C   UNL     1      -1.267  -0.695   2.311  0.00  0.00    +0.226 C 
ENDBRANCH  19  21
ENDBRANCH  11  19
ENDBRANCH   1  13
BRANCH   2  22
ATOM     22  C   UNL     1      -2.324  -5.089  -0.886  0.00  0.00    +0.248 C 
ATOM     23  O   UNL     1      -3.421  -4.879  -0.399  0.00  0.00    -0.270 OA
ATOM     24  N   UNL     1      -1.985  -4.515  -2.057  0.00  0.00    -0.282 N 
ATOM     25  H   UNL     1      -1.043  -4.791  -2.553  0.00  0.00    +0.155 HD
BRANCH  24  26
ATOM     26  C   UNL     1      -2.832  -3.567  -2.642  0.00  0.00    +0.034 A 
ATOM     27  C   UNL     1      -3.599  -2.731  -1.841  0.00  0.00    +0.025 A 
ATOM     28  C   UNL     1      -4.429  -1.793  -2.422  0.00  0.00    +0.034 A 
ATOM     29  C   UNL     1      -4.506  -1.693  -3.799  0.00  0.00    +0.126 A 
ATOM     30  C   UNL     1      -3.747  -2.528  -4.599  0.00  0.00    +0.034 A 
ATOM     31  C   UNL     1      -2.911  -3.464  -4.025  0.00  0.00    +0.025 A 
BRANCH  29  32
ATOM     32  N   UNL     1      -5.402  -0.690  -4.418  0.00  0.00    +0.056 N 
ATOM     33  O   UNL     1      -5.470  -0.601  -5.631  0.00  0.00    -0.126 OA
ATOM     34  O   UNL     1      -6.070   0.046  -3.715  0.00  0.00    -0.126 OA
ENDBRANCH  29  32
ENDBRANCH  24  26
ENDBRANCH   2  22
TORSDOF 7
