REMARK  Name = ZINC21686785
REMARK  14 active torsions:
REMARK  status: ('A' for Active; 'I' for Inactive)
REMARK    1  A    between atoms: C_1  and  C_2
REMARK    2  A    between atoms: C_2  and  O_3
REMARK    3  A    between atoms: O_3  and  C_4
REMARK    4  A    between atoms: C_6  and  C_16
REMARK    5  A    between atoms: C_8  and  O_13
REMARK    6  A    between atoms: C_9  and  O_10
REMARK    7  A    between atoms: O_10  and  C_11
REMARK    8  A    between atoms: C_11  and  C_12
REMARK    9  A    between atoms: O_13  and  C_14
REMARK   10  A    between atoms: C_14  and  C_15
REMARK   11  A    between atoms: N_18  and  C_19
REMARK   12  A    between atoms: C_21  and  C_35
REMARK   13  A    between atoms: C_27  and  C_34
REMARK   14  A    between atoms: C_29  and  C_33
REMARK                            x       y       z     vdW  Elec       q    Type
REMARK                         _______ _______ _______ _____ _____    ______ ____
ROOT
ATOM      1  C   UNL     1      -1.125   7.541   1.857  0.00  0.00    +0.250 C 
ATOM      2  O   UNL     1      -2.088   8.133   1.411  0.00  0.00    -0.270 OA
ATOM      3  N   UNL     1      -0.161   8.219   2.512  0.00  0.00    -0.266 N 
ATOM      4  H   UNL     1       0.711   7.683   2.915  0.00  0.00    +0.157 HD
ENDROOT
BRANCH   3   5
ATOM      5  C   UNL     1      -0.269   9.597   2.678  0.00  0.00    +0.131 A 
ATOM      6  C   UNL     1      -1.284  10.385   2.229  0.00  0.00    +0.068 A 
ATOM      7  C   UNL     1      -1.005  11.702   2.610  0.00  0.00    +0.062 A 
ATOM      8  N   UNL     1       0.133  11.716   3.254  0.00  0.00    -0.168 NA
ATOM      9  N   UNL     1       0.624  10.406   3.315  0.00  0.00    -0.194 N 
ATOM     10  C   UNL     1       1.811  10.002   3.917  0.00  0.00    +0.196 A 
ATOM     11  N   UNL     1       2.706  10.730   4.541  0.00  0.00    -0.221 NA
ATOM     12  C   UNL     1       3.822  10.201   5.084  0.00  0.00    +0.083 A 
ATOM     13  C   UNL     1       4.858  10.869   5.778  0.00  0.00    -0.024 A 
ATOM     14  C   UNL     1       5.932  10.175   6.270  0.00  0.00    +0.009 A 
ATOM     15  C   UNL     1       6.044   8.801   6.108  0.00  0.00    -0.049 A 
ATOM     16  C   UNL     1       5.051   8.116   5.434  0.00  0.00    +0.020 A 
ATOM     17  C   UNL     1       3.971   8.802   4.937  0.00  0.00    +0.042 A 
ATOM     18  S   UNL     1       2.501   8.358   4.044  0.00  0.00    -0.048 S 
ATOM     19  C   UNL     1       7.237   8.064   6.660  0.00  0.00    +0.044 C 
ATOM     20  C   UNL     1       4.779  12.360   5.979  0.00  0.00    +0.046 C 
ATOM     21  C   UNL     1      -1.868  12.903   2.321  0.00  0.00    +0.067 C 
ENDBRANCH   3   5
BRANCH   1  24
ATOM     22  C   UNL     1       0.200   4.030   2.030  0.00  0.00    +0.166 A 
ATOM     23  C   UNL     1       0.097   5.399   2.192  0.00  0.00    +0.062 A 
ATOM     24  C   UNL     1      -1.010   6.080   1.681  0.00  0.00    +0.044 A 
ATOM     25  C   UNL     1      -2.008   5.377   1.002  0.00  0.00    +0.062 A 
ATOM     26  C   UNL     1      -1.898   4.008   0.838  0.00  0.00    +0.166 A 
ATOM     27  C   UNL     1      -0.793   3.332   1.349  0.00  0.00    +0.204 A 
BRANCH  22  28
ATOM     28  O   UNL     1       1.275   3.365   2.532  0.00  0.00    -0.488 OA
BRANCH  28  30
ATOM     29  C   UNL     1       3.381   3.229   3.709  0.00  0.00    +0.048 C 
ATOM     30  C   UNL     1       2.256   4.143   3.220  0.00  0.00    +0.226 C 
ENDBRANCH  28  30
ENDBRANCH  22  28
BRANCH  27  31
ATOM     31  O   UNL     1      -0.688   1.987   1.186  0.00  0.00    -0.485 OA
BRANCH  31  32
ATOM     32  C   UNL     1      -0.019   1.526   0.010  0.00  0.00    +0.226 C 
ATOM     33  C   UNL     1       0.002  -0.004   0.002  0.00  0.00    +0.048 C 
ENDBRANCH  31  32
ENDBRANCH  27  31
BRANCH  26  34
ATOM     34  O   UNL     1      -2.869   3.323   0.178  0.00  0.00    -0.488 OA
BRANCH  34  35
ATOM     35  C   UNL     1      -3.974   4.081  -0.319  0.00  0.00    +0.226 C 
ATOM     36  C   UNL     1      -4.956   3.145  -1.027  0.00  0.00    +0.048 C 
ENDBRANCH  34  35
ENDBRANCH  26  34
ENDBRANCH   1  24
TORSDOF 8
