REMARK  Name = ZINC45440174
REMARK  8 active torsions:
REMARK  status: ('A' for Active; 'I' for Inactive)
REMARK    1  A    between atoms: C_1  and  C_2
REMARK    2  A    between atoms: C_4  and  C_29
REMARK    3  A    between atoms: C_6  and  O_8
REMARK    4  A    between atoms: O_8  and  C_9
REMARK    5  A    between atoms: C_9  and  C_10
REMARK    6  A    between atoms: N_12  and  N_13
REMARK    7  A    between atoms: N_16  and  C_17
REMARK    8  A    between atoms: C_22  and  C_25
REMARK                            x       y       z     vdW  Elec       q    Type
REMARK                         _______ _______ _______ _____ _____    ______ ____
ROOT
ATOM      1  N   UNL     1       0.080  -3.286   7.105  0.00  0.00    -0.218 N 
ATOM      2  C   UNL     1       0.079  -2.780   8.354  0.00  0.00    +0.316 C 
ATOM      3  O   UNL     1       0.094  -3.527   9.313  0.00  0.00    -0.251 OA
ATOM      4  N   UNL     1       0.062  -1.445   8.540  0.00  0.00    -0.295 N 
ATOM      5  H   UNL     1       0.093  -4.247   6.971  0.00  0.00    +0.174 HD
ATOM      6  H   UNL     1       0.050  -0.849   7.775  0.00  0.00    +0.151 HD
ENDROOT
BRANCH   4   7
ATOM      7  C   UNL     1       0.061  -0.894   9.898  0.00  0.00    +0.075 C 
ATOM      8  C   UNL     1      -1.375  -0.839  10.424  0.00  0.00    +0.022 C 
ATOM      9  C   UNL     1      -1.376  -0.264  11.842  0.00  0.00    +0.002 C 
ATOM     10  C   UNL     1      -0.786   1.148  11.821  0.00  0.00    +0.012 C 
ATOM     11  C   UNL     1       0.650   1.092  11.294  0.00  0.00    +0.095 C 
ATOM     12  C   UNL     1       0.651   0.517   9.876  0.00  0.00    +0.034 C 
BRANCH  11  13
ATOM     13  C   UNL     1       1.240   2.503  11.273  0.00  0.00    +0.393 C 
ATOM     14  F   UNL     1       1.239   3.029  12.569  0.00  0.00    -0.170 F 
ATOM     15  F   UNL     1       2.553   2.453  10.791  0.00  0.00    -0.170 F 
ATOM     16  F   UNL     1       0.469   3.319  10.438  0.00  0.00    -0.170 F 
ENDBRANCH  11  13
ENDBRANCH   4   7
BRANCH   1  19
ATOM     17  C   UNL     1       0.064  -2.932   4.751  0.00  0.00    +0.267 C 
ATOM     18  O   UNL     1       0.080  -4.133   4.584  0.00  0.00    -0.271 OA
ATOM     19  N   UNL     1       0.063  -2.425   6.000  0.00  0.00    -0.230 N 
ATOM     20  H   UNL     1       0.051  -1.464   6.134  0.00  0.00    +0.173 HD
BRANCH  17  21
ATOM     21  C   UNL     1       0.046  -2.005   3.563  0.00  0.00    +0.326 C 
BRANCH  21  22
ATOM     22  O   UNL     1       0.051  -2.775   2.359  0.00  0.00    -0.483 OA
BRANCH  22  28
ATOM     23  C   UNL     1      -0.018   1.503   0.010  0.00  0.00    +0.044 C 
ATOM     24  C   UNL     1       0.002  -0.004   0.002  0.00  0.00    -0.047 A 
ATOM     25  C   UNL     1       0.006  -0.688  -1.200  0.00  0.00    +0.007 A 
ATOM     26  C   UNL     1       0.025  -2.071  -1.210  0.00  0.00    -0.047 A 
ATOM     27  C   UNL     1       0.040  -2.772  -0.020  0.00  0.00    +0.049 A 
ATOM     28  C   UNL     1       0.036  -2.088   1.187  0.00  0.00    +0.122 A 
ATOM     29  C   UNL     1       0.023  -0.701   1.195  0.00  0.00    +0.049 A 
ATOM     30  C   UNL     1       0.029  -2.813  -2.522  0.00  0.00    +0.044 C 
ENDBRANCH  22  28
ENDBRANCH  21  22
ENDBRANCH  17  21
ENDBRANCH   1  19
TORSDOF 6
