REMARK  Name = ZINC20913785
REMARK  11 active torsions:
REMARK  status: ('A' for Active; 'I' for Inactive)
REMARK    1  A    between atoms: C_1  and  C_2
REMARK    2  A    between atoms: C_5  and  N_9
REMARK    3  A    between atoms: C_10  and  C_12
REMARK    4  A    between atoms: C_12  and  S_13
REMARK    5  A    between atoms: S_13  and  C_14
REMARK    6  A    between atoms: N_18  and  N_19
REMARK    7  A    between atoms: N_20  and  N_21
REMARK    8  A    between atoms: C_22  and  C_23
REMARK    9  A    between atoms: C_26  and  C_29
REMARK   10  A    between atoms: C_29  and  O_31
REMARK   11  A    between atoms: O_31  and  C_32
REMARK                            x       y       z     vdW  Elec       q    Type
REMARK                         _______ _______ _______ _____ _____    ______ ____
ROOT
ATOM      1  C   UNL     1      -6.902   9.456   0.100  0.00  0.00    +0.210 A 
ATOM      2  N   UNL     1      -5.592   9.390   0.103  0.00  0.00    -0.119 NA
ATOM      3  N   UNL     1      -5.213   8.162   0.105  0.00  0.00    -0.109 NA
ATOM      4  C   UNL     1      -6.256   7.370   0.096  0.00  0.00    +0.254 A 
ATOM      5  N   UNL     1      -7.371   8.169   0.095  0.00  0.00    -0.211 N 
ATOM      6  N   UNL     1      -6.237   5.982   0.093  0.00  0.00    -0.204 N 
ATOM      7  H   UNL     1      -7.182   5.419   0.090  0.00  0.00    +0.177 HD
ENDROOT
BRANCH   5   8
ATOM      8  N   UNL     1      -8.676   7.766   0.090  0.00  0.00    -0.294 N 
ATOM      9  H   UNL     1      -8.920   6.693   0.087  0.00  0.00    +0.163 HD
ATOM     10  H   UNL     1      -9.482   8.514   0.090  0.00  0.00    +0.163 HD
ENDBRANCH   5   8
BRANCH   6  11
ATOM     11  N   UNL     1      -5.014   5.299   0.094  0.00  0.00    -0.188 NA
ATOM     12  C   UNL     1      -4.997   3.999   0.091  0.00  0.00    +0.138 C 
BRANCH  12  13
ATOM     13  C   UNL     1      -3.712   3.280   0.092  0.00  0.00    -0.005 A 
ATOM     14  C   UNL     1      -3.693   1.881   0.089  0.00  0.00    +0.010 A 
ATOM     15  C   UNL     1      -2.501   1.215   0.090  0.00  0.00    +0.015 A 
ATOM     16  C   UNL     1      -1.300   1.931   0.094  0.00  0.00    +0.059 A 
ATOM     17  C   UNL     1      -1.319   3.330   0.103  0.00  0.00    +0.015 A 
ATOM     18  C   UNL     1      -2.510   3.997   0.096  0.00  0.00    +0.010 A 
BRANCH  16  19
ATOM     19  C   UNL     1      -0.013   1.211   0.095  0.00  0.00    +0.339 C 
ATOM     20  O   UNL     1       0.004  -0.004   0.092  0.00  0.00    -0.245 OA
BRANCH  19  21
ATOM     21  O   UNL     1       1.145   1.901   0.093  0.00  0.00    -0.464 OA
ATOM     22  C   UNL     1       2.373   1.127   0.088  0.00  0.00    +0.280 C 
ENDBRANCH  19  21
ENDBRANCH  16  19
ENDBRANCH  12  13
ENDBRANCH   6  11
BRANCH   1  23
ATOM     23  S   UNL     1      -7.875  10.924   0.101  0.00  0.00    -0.075 S 
BRANCH  23  24
ATOM     24  C   UNL     1      -6.563  12.171   0.108  0.00  0.00    +0.173 C 
BRANCH  24  26
ATOM     25  N   UNL     1      -6.387  14.639   0.114  0.00  0.00    -0.285 N 
ATOM     26  C   UNL     1      -7.178  13.547   0.109  0.00  0.00    +0.227 C 
ATOM     27  O   UNL     1      -8.384  13.672   0.106  0.00  0.00    -0.275 OA
ATOM     28  H   UNL     1      -5.295  14.527   0.194  0.00  0.00    +0.155 HD
BRANCH  25  33
ATOM     29  C   UNL     1      -8.684  19.812  -0.277  0.00  0.00    +0.045 C 
ATOM     30  C   UNL     1      -8.074  18.438  -0.172  0.00  0.00    -0.032 A 
ATOM     31  C   UNL     1      -6.854  18.177  -0.768  0.00  0.00    +0.006 A 
ATOM     32  C   UNL     1      -6.290  16.921  -0.670  0.00  0.00    +0.023 A 
ATOM     33  C   UNL     1      -6.954  15.914   0.018  0.00  0.00    +0.035 A 
ATOM     34  C   UNL     1      -8.179  16.177   0.616  0.00  0.00    +0.043 A 
ATOM     35  C   UNL     1      -8.737  17.439   0.519  0.00  0.00    +0.046 A 
ATOM     36 CL   UNL     1     -10.269  17.769   1.265  0.00  0.00    -0.083 Cl
ENDBRANCH  25  33
ENDBRANCH  24  26
ENDBRANCH  23  24
ENDBRANCH   1  23
TORSDOF 9
