REMARK  Name = ZINC39937095
REMARK  7 active torsions:
REMARK  status: ('A' for Active; 'I' for Inactive)
REMARK    1  A    between atoms: C_1  and  C_2
REMARK    2  A    between atoms: C_2  and  S_3
REMARK    3  A    between atoms: S_3  and  C_4
REMARK    4  A    between atoms: C_6  and  O_20
REMARK    5  A    between atoms: C_8  and  O_19
REMARK    6  A    between atoms: C_10  and  O_18
REMARK    7  A    between atoms: C_12  and  C_15
REMARK                            x       y       z     vdW  Elec       q    Type
REMARK                         _______ _______ _______ _____ _____    ______ ____
ROOT
ATOM      1  C   UNL     1       0.791  -2.397  -1.350  0.00  0.00    +0.208 C 
ATOM      2  C   UNL     1       1.689  -3.022  -2.420  0.00  0.00    +0.184 C 
ATOM      3  C   UNL     1       1.586  -4.548  -2.334  0.00  0.00    +0.178 C 
ATOM      4  C   UNL     1       0.119  -4.960  -2.493  0.00  0.00    +0.185 C 
ATOM      5  C   UNL     1      -0.719  -4.259  -1.420  0.00  0.00    +0.263 C 
ATOM      6  O   UNL     1      -0.554  -2.844  -1.536  0.00  0.00    -0.346 OA
ENDROOT
BRANCH   5   7
ATOM      7  C   UNL     1      -2.172  -4.612  -1.606  0.00  0.00    +0.387 C 
ATOM      8  O   UNL     1      -2.543  -5.764  -1.455  0.00  0.00    -0.243 OA
ATOM      9  O   UNL     1      -2.976  -3.747  -1.908  0.00  0.00    -0.243 OA
ENDBRANCH   5   7
BRANCH   4  10
ATOM     10  O   UNL     1      -0.347  -4.577  -3.789  0.00  0.00    -0.386 OA
ATOM     11  H   UNL     1      -1.270  -4.808  -3.959  0.00  0.00    +0.210 HD
ENDBRANCH   4  10
BRANCH   3  12
ATOM     12  O   UNL     1       2.073  -4.989  -1.065  0.00  0.00    -0.386 OA
ATOM     13  H   UNL     1       2.037  -5.948  -0.941  0.00  0.00    +0.210 HD
ENDBRANCH   3  12
BRANCH   2  14
ATOM     14  O   UNL     1       3.043  -2.621  -2.201  0.00  0.00    -0.386 OA
ATOM     15  H   UNL     1       3.180  -1.664  -2.238  0.00  0.00    +0.210 HD
ENDBRANCH   2  14
BRANCH   1  16
ATOM     16  S   UNL     1       0.851  -0.589  -1.490  0.00  0.00    -0.127 S 
BRANCH  16  18
ATOM     17  C   UNL     1      -0.019   1.526   0.010  0.00  0.00    +0.015 C 
ATOM     18  C   UNL     1       0.002  -0.004   0.002  0.00  0.00    +0.068 C 
ENDBRANCH  16  18
ENDBRANCH   1  16
TORSDOF 6
