REMARK  Name = ZINC35729718
REMARK  11 active torsions:
REMARK  status: ('A' for Active; 'I' for Inactive)
REMARK    1  A    between atoms: C_1  and  C_2
REMARK    2  A    between atoms: C_2  and  O_3
REMARK    3  A    between atoms: O_3  and  C_4
REMARK    4  A    between atoms: C_4  and  C_6
REMARK    5  A    between atoms: C_7  and  C_33
REMARK    6  A    between atoms: N_8  and  C_32
REMARK    7  A    between atoms: C_12  and  C_14
REMARK    8  A    between atoms: C_17  and  N_20
REMARK    9  A    between atoms: N_23  and  C_24
REMARK   10  A    between atoms: C_27  and  S_30
REMARK   11  A    between atoms: S_30  and  C_31
REMARK                            x       y       z     vdW  Elec       q    Type
REMARK                         _______ _______ _______ _____ _____    ______ ____
ROOT
ATOM      1  C   UNL     1      -3.386  -0.610  -0.786  0.00  0.00    -0.022 A 
ATOM      2  C   UNL     1      -3.381  -1.256  -2.008  0.00  0.00    +0.007 A 
ATOM      3  C   UNL     1      -3.008  -0.574  -3.150  0.00  0.00    +0.024 A 
ATOM      4  C   UNL     1      -2.638   0.762  -3.069  0.00  0.00    +0.035 A 
ATOM      5  C   UNL     1      -2.643   1.408  -1.840  0.00  0.00    +0.024 A 
ATOM      6  C   UNL     1      -3.023   0.722  -0.703  0.00  0.00    +0.007 A 
ENDROOT
BRANCH   1  13
ATOM      7  C   UNL     1      -2.605  -2.177   0.921  0.00  0.00    +0.078 C 
ATOM      8  C   UNL     1      -2.769  -3.513   1.032  0.00  0.00    +0.021 C 
ATOM      9  N   UNL     1      -3.962  -4.104   0.733  0.00  0.00    -0.289 N 
ATOM     10  C   UNL     1      -5.041  -3.430   0.316  0.00  0.00    +0.137 C 
ATOM     11  S   UNL     1      -6.478  -4.296  -0.025  0.00  0.00    -0.018 S 
ATOM     12  N   UNL     1      -5.033  -2.092   0.156  0.00  0.00    -0.315 N 
ATOM     13  C   UNL     1      -3.793  -1.357   0.458  0.00  0.00    +0.141 C 
ATOM     14  C   UNL     1      -4.068  -5.558   0.876  0.00  0.00    +0.137 C 
ATOM     15  C   UNL     1      -1.615  -4.365   1.494  0.00  0.00    +0.061 C 
ATOM     16  H   UNL     1      -5.826  -1.623  -0.148  0.00  0.00    +0.149 HD
BRANCH   7  17
ATOM     17  C   UNL     1      -1.369  -1.563   1.231  0.00  0.00    +0.339 C 
ATOM     18  O   UNL     1      -0.457  -2.228   1.685  0.00  0.00    -0.245 OA
BRANCH  17  19
ATOM     19  O   UNL     1      -1.202  -0.240   1.022  0.00  0.00    -0.462 OA
BRANCH  19  21
ATOM     20  C   UNL     1       0.073   1.813   1.055  0.00  0.00    +0.048 C 
ATOM     21  C   UNL     1       0.072   0.313   1.358  0.00  0.00    +0.229 C 
ENDBRANCH  19  21
ENDBRANCH  17  19
ENDBRANCH   7  17
ENDBRANCH   1  13
BRANCH   4  22
ATOM     22  N   UNL     1      -2.259   1.456  -4.224  0.00  0.00    -0.269 N 
ATOM     23  C   UNL     1      -2.830   1.156  -5.408  0.00  0.00    +0.308 C 
ATOM     24  O   UNL     1      -3.743   0.354  -5.457  0.00  0.00    -0.252 OA
ATOM     25  N   UNL     1      -2.390   1.746  -6.537  0.00  0.00    -0.269 N 
ATOM     26  H   UNL     1      -1.586   2.152  -4.173  0.00  0.00    +0.156 HD
ATOM     27  H   UNL     1      -1.611   2.323  -6.510  0.00  0.00    +0.156 HD
BRANCH  25  28
ATOM     28  C   UNL     1      -3.057   1.524  -7.750  0.00  0.00    +0.035 A 
ATOM     29  C   UNL     1      -4.432   1.333  -7.760  0.00  0.00    +0.024 A 
ATOM     30  C   UNL     1      -5.090   1.115  -8.954  0.00  0.00    +0.016 A 
ATOM     31  C   UNL     1      -4.375   1.086 -10.146  0.00  0.00    +0.008 A 
ATOM     32  C   UNL     1      -2.999   1.277 -10.134  0.00  0.00    +0.016 A 
ATOM     33  C   UNL     1      -2.343   1.501  -8.940  0.00  0.00    +0.024 A 
BRANCH  31  34
ATOM     34  S   UNL     1      -5.214   0.807 -11.670  0.00  0.00    -0.129 S 
ATOM     35  C   UNL     1      -3.893   0.857 -12.912  0.00  0.00    +0.090 C 
ENDBRANCH  31  34
ENDBRANCH  25  28
ENDBRANCH   4  22
TORSDOF 7
