REMARK  Name = ZINC44925151
REMARK  4 active torsions:
REMARK  status: ('A' for Active; 'I' for Inactive)
REMARK    1  A    between atoms: C_1  and  C_2
REMARK    2  A    between atoms: C_2  and  C_4
REMARK    3  A    between atoms: C_2  and  N_9
REMARK    4  A    between atoms: C_11  and  N_17
REMARK                            x       y       z     vdW  Elec       q    Type
REMARK                         _______ _______ _______ _____ _____    ______ ____
ROOT
ATOM      1  N   UNL     1       0.688  -0.476  -1.203  0.00  0.00    -0.318 N 
ATOM      2  C   UNL     1      -0.017  -0.613  -2.397  0.00  0.00    +0.140 A 
ATOM      3  C   UNL     1       0.641  -1.069  -3.543  0.00  0.00    +0.066 A 
ATOM      4  C   UNL     1      -0.076  -1.199  -4.724  0.00  0.00    +0.043 A 
ATOM      5  C   UNL     1      -1.425  -0.868  -4.719  0.00  0.00    +0.038 A 
ATOM      6  C   UNL     1      -2.008  -0.423  -3.549  0.00  0.00    +0.128 A 
ATOM      7  N   UNL     1      -1.304  -0.314  -2.437  0.00  0.00    -0.238 NA
ATOM      8 BR   UNL     1      -2.452  -1.024  -6.299  0.00  0.00    -0.049 Br
ATOM      9  H   UNL     1       1.632  -0.695  -1.170  0.00  0.00    +0.148 HD
ENDROOT
BRANCH   3  10
ATOM     10  N   UNL     1       2.003  -1.390  -3.499  0.00  0.00    -0.355 N 
ATOM     11  H   UNL     1       2.498  -1.297  -2.669  0.00  0.00    +0.142 HD
ATOM     12  H   UNL     1       2.453  -1.707  -4.298  0.00  0.00    +0.142 HD
ENDBRANCH   3  10
BRANCH   1  14
ATOM     13  C   UNL     1      -0.019   1.526   0.010  0.00  0.00    +0.036 C 
ATOM     14  C   UNL     1       0.002  -0.004   0.002  0.00  0.00    +0.140 C 
BRANCH  14  15
ATOM     15  C   UNL     1       0.731  -0.503   1.223  0.00  0.00    +0.196 A 
ATOM     16  N   UNL     1       0.185  -1.040   2.305  0.00  0.00    -0.109 NA
ATOM     17  N   UNL     1       1.141  -1.335   3.118  0.00  0.00    -0.021 NA
ATOM     18  N   UNL     1       2.264  -1.003   2.583  0.00  0.00    -0.021 NA
ATOM     19  N   UNL     1       2.041  -0.496   1.419  0.00  0.00    -0.109 NA
ENDBRANCH  14  15
ENDBRANCH   1  14
TORSDOF 3
