REMARK  Name = ZINC06296533
REMARK  9 active torsions:
REMARK  status: ('A' for Active; 'I' for Inactive)
REMARK    1  A    between atoms: C_1  and  O_2
REMARK    2  A    between atoms: O_2  and  C_3
REMARK    3  A    between atoms: C_3  and  C_4
REMARK    4  A    between atoms: C_3  and  O_33
REMARK    5  A    between atoms: C_4  and  N_5
REMARK    6  A    between atoms: C_6  and  C_8
REMARK    7  A    between atoms: C_15  and  S_20
REMARK    8  A    between atoms: S_20  and  N_23
REMARK    9  A    between atoms: O_33  and  C_34
REMARK                            x       y       z     vdW  Elec       q    Type
REMARK                         _______ _______ _______ _____ _____    ______ ____
ROOT
ATOM      1  C   UNL     1       0.799  -4.554  -1.647  0.00  0.00    +0.100 A 
ATOM      2  C   UNL     1       0.677  -5.906  -1.889  0.00  0.00    +0.100 A 
ATOM      3  N   UNL     1       0.540  -6.401  -3.126  0.00  0.00    -0.360 N 
ATOM      4  H   UNL     1       0.459  -7.361  -3.236  0.00  0.00    +0.165 HD
ATOM      5  C   UNL     1       0.511  -5.603  -4.250  0.00  0.00    +0.050 A 
ATOM      6  C   UNL     1       0.366  -6.168  -5.514  0.00  0.00    +0.028 A 
ATOM      7  C   UNL     1       0.337  -5.360  -6.630  0.00  0.00    +0.030 A 
ATOM      8  C   UNL     1       0.452  -3.982  -6.510  0.00  0.00    +0.106 A 
ATOM      9  C   UNL     1       0.597  -3.402  -5.269  0.00  0.00    +0.042 A 
ATOM     10  C   UNL     1       0.626  -4.208  -4.131  0.00  0.00    +0.048 A 
ATOM     11  C   UNL     1       0.773  -3.623  -2.785  0.00  0.00    +0.202 A 
ATOM     12  O   UNL     1       0.873  -2.419  -2.624  0.00  0.00    -0.286 OA
ENDROOT
BRANCH   1  14
ATOM     13  N   UNL     1       0.927  -2.724  -0.034  0.00  0.00    -0.306 N 
ATOM     14  C   UNL     1       0.947  -4.050  -0.272  0.00  0.00    +0.249 C 
ATOM     15  O   UNL     1       1.087  -4.831   0.650  0.00  0.00    -0.270 OA
ATOM     16  H   UNL     1       0.891  -2.099  -0.775  0.00  0.00    +0.149 HD
BRANCH  13  17
ATOM     17  C   UNL     1       0.961  -2.226   1.343  0.00  0.00    +0.165 C 
BRANCH  17  18
ATOM     18  C   UNL     1       0.929  -0.696   1.333  0.00  0.00    +0.266 C 
BRANCH  18  20
ATOM     19  C   UNL     1      -0.687   1.058   1.093  0.00  0.00    +0.197 C 
ATOM     20  O   UNL     1      -0.268  -0.249   0.694  0.00  0.00    -0.353 OA
ENDBRANCH  18  20
BRANCH  18  21
ATOM     21  O   UNL     1       2.064  -0.201   0.620  0.00  0.00    -0.353 OA
ATOM     22  C   UNL     1       2.309   1.193   0.815  0.00  0.00    +0.197 C 
ENDBRANCH  18  21
ENDBRANCH  17  18
ENDBRANCH  13  17
ENDBRANCH   1  14
BRANCH   8  23
ATOM     23  S   UNL     1       0.413  -2.970  -7.952  0.00  0.00    +0.061 S 
ATOM     24  O   UNL     1       1.086  -1.764  -7.620  0.00  0.00    -0.153 OA
ATOM     25  O   UNL     1       0.817  -3.794  -9.037  0.00  0.00    -0.153 OA
BRANCH  23  26
ATOM     26  N   UNL     1      -1.170  -2.569  -8.226  0.00  0.00    -0.176 NA
ATOM     27  C   UNL     1      -2.024  -3.421  -9.065  0.00  0.00    +0.114 C 
ATOM     28  C   UNL     1      -2.647  -2.561 -10.168  0.00  0.00    +0.082 C 
ATOM     29  C   UNL     1      -3.370  -1.370  -9.535  0.00  0.00    +0.173 C 
ATOM     30  C   UNL     1      -2.374  -0.512  -8.752  0.00  0.00    +0.082 C 
ATOM     31  C   UNL     1      -1.749  -1.357  -7.631  0.00  0.00    +0.114 C 
ATOM     32  O   UNL     1      -3.983  -0.580 -10.561  0.00  0.00    -0.346 OA
ATOM     33  C   UNL     1      -5.400  -0.557 -10.294  0.00  0.00    +0.191 C 
ATOM     34  C   UNL     1      -5.479  -0.904  -8.786  0.00  0.00    +0.191 C 
ATOM     35  O   UNL     1      -4.391  -1.849  -8.645  0.00  0.00    -0.346 OA
ENDBRANCH  23  26
ENDBRANCH   8  23
TORSDOF 7
