REMARK  Name = ZINC67272825
REMARK  5 active torsions:
REMARK  status: ('A' for Active; 'I' for Inactive)
REMARK    1  A    between atoms: C_1  and  C_2
REMARK    2  A    between atoms: C_9  and  C_11
REMARK    3  A    between atoms: C_11  and  C_12
REMARK    4  A    between atoms: C_12  and  N_13
REMARK    5  A    between atoms: C_14  and  C_16
REMARK                            x       y       z     vdW  Elec       q    Type
REMARK                         _______ _______ _______ _____ _____    ______ ____
ROOT
ATOM      1  N   UNL     1       2.901  -6.321   1.605  0.00  0.00    -0.315 N 
ATOM      2  C   UNL     1       4.007  -7.083   1.712  0.00  0.00    +0.216 C 
ATOM      3  O   UNL     1       5.100  -6.561   1.772  0.00  0.00    -0.276 OA
ATOM      4  H   UNL     1       2.027  -6.739   1.557  0.00  0.00    +0.149 HD
ENDROOT
BRANCH   2   5
ATOM      5  C   UNL     1       3.886  -8.585   1.756  0.00  0.00    +0.075 C 
ATOM      6  C   UNL     1       3.038  -8.992   2.963  0.00  0.00    +0.015 C 
ATOM      7  C   UNL     1       2.906 -10.517   3.000  0.00  0.00    +0.036 C 
ATOM      8  C   UNL     1       4.291 -11.148   3.095  0.00  0.00    +0.112 C 
ATOM      9  C   UNL     1       5.157 -10.730   1.911  0.00  0.00    +0.036 C 
ATOM     10  C   UNL     1       5.280  -9.205   1.879  0.00  0.00    +0.015 C 
ATOM     11  C   UNL     1       4.957 -10.767   4.397  0.00  0.00    +0.244 C 
ATOM     12  O   UNL     1       5.246  -9.652   4.775  0.00  0.00    -0.273 OA
ATOM     13  N   UNL     1       5.163 -11.930   5.050  0.00  0.00    -0.238 N 
ATOM     14  C   UNL     1       4.721 -12.977   4.343  0.00  0.00    +0.307 C 
ATOM     15  O   UNL     1       4.796 -14.129   4.723  0.00  0.00    -0.252 OA
ATOM     16  N   UNL     1       4.185 -12.611   3.163  0.00  0.00    -0.285 N 
ATOM     17  H   UNL     1       5.579 -11.998   5.923  0.00  0.00    +0.159 HD
ATOM     18  H   UNL     1       3.804 -13.198   2.491  0.00  0.00    +0.151 HD
ENDBRANCH   2   5
BRANCH   1  19
ATOM     19  C   UNL     1       3.018  -4.861   1.562  0.00  0.00    +0.113 C 
BRANCH  19  20
ATOM     20  C   UNL     1       1.625  -4.241   1.440  0.00  0.00    +0.114 C 
BRANCH  20  28
ATOM     21  C   UNL     1      -0.019   1.526   0.010  0.00  0.00    +0.009 C 
ATOM     22  C   UNL     1       0.002  -0.004   0.002  0.00  0.00    +0.003 C 
ATOM     23  C   UNL     1      -1.433  -0.534   0.015  0.00  0.00    +0.006 C 
ATOM     24  C   UNL     1      -1.414  -2.064  -0.027  0.00  0.00    +0.019 C 
ATOM     25  C   UNL     1      -0.692  -2.596   1.215  0.00  0.00    +0.108 C 
ATOM     26  N   UNL     1       0.639  -1.977   1.288  0.00  0.00    -0.301 N 
ATOM     27  C   UNL     1       0.742  -0.512   1.244  0.00  0.00    +0.111 C 
ATOM     28  C   UNL     1       1.746  -2.740   1.395  0.00  0.00    +0.217 C 
ATOM     29  O   UNL     1       2.838  -2.217   1.455  0.00  0.00    -0.276 OA
ENDBRANCH  20  28
ENDBRANCH  19  20
ENDBRANCH   1  19
TORSDOF 4
