REMARK  Name = ZINC65344734
REMARK  2 active torsions:
REMARK  status: ('A' for Active; 'I' for Inactive)
REMARK    1  A    between atoms: C_2  and  C_11
REMARK    2  A    between atoms: C_6  and  C_7
REMARK                            x       y       z     vdW  Elec       q    Type
REMARK                         _______ _______ _______ _____ _____    ______ ____
ROOT
ATOM      1  C   UNL     1      -0.017   1.391   0.010  0.00  0.00    +0.024 A 
ATOM      2  C   UNL     1       1.181   2.098   0.002  0.00  0.00    -0.008 A 
ATOM      3  C   UNL     1       2.395   1.410  -0.013  0.00  0.00    +0.047 A 
ATOM      4  C   UNL     1       2.410   0.027  -0.021  0.00  0.00    +0.125 A 
ATOM      5  C   UNL     1       1.224  -0.683  -0.013  0.00  0.00    +0.053 A 
ATOM      6  C   UNL     1       0.002  -0.004   0.002  0.00  0.00    +0.066 A 
ATOM      7  F   UNL     1       3.589  -0.633  -0.036  0.00  0.00    -0.205 F 
ENDROOT
BRANCH   2   8
ATOM      8  C   UNL     1       1.169   3.581   0.010  0.00  0.00    +0.063 A 
ATOM      9  C   UNL     1       0.683   4.270   1.081  0.00  0.00    +0.101 A 
ATOM     10  N   UNL     1       0.685   5.635   1.059  0.00  0.00    -0.314 N 
ATOM     11  C   UNL     1       1.155   6.317   0.002  0.00  0.00    +0.327 A 
ATOM     12  N   UNL     1       1.646   5.692  -1.083  0.00  0.00    -0.275 N 
ATOM     13  C   UNL     1       1.684   4.344  -1.134  0.00  0.00    +0.262 A 
ATOM     14  O   UNL     1       2.132   3.772  -2.111  0.00  0.00    -0.267 OA
ATOM     15  O   UNL     1       1.136   7.532   0.026  0.00  0.00    -0.247 OA
ATOM     16  H   UNL     1       0.339   6.123   1.822  0.00  0.00    +0.170 HD
ATOM     17  H   UNL     1       1.979   6.213  -1.831  0.00  0.00    +0.173 HD
ENDBRANCH   2   8
BRANCH   6  18
ATOM     18  C   UNL     1      -1.265  -0.761   0.011  0.00  0.00    +0.387 C 
ATOM     19  O   UNL     1      -2.333  -0.166   0.024  0.00  0.00    -0.241 OA
ATOM     20  O   UNL     1      -1.246  -1.984   0.004  0.00  0.00    -0.241 OA
ENDBRANCH   6  18
TORSDOF 2
