REMARK  Name = ZINC11668487
REMARK  6 active torsions:
REMARK  status: ('A' for Active; 'I' for Inactive)
REMARK    1  A    between atoms: C_3  and  N_8
REMARK    2  A    between atoms: C_9  and  C_11
REMARK    3  A    between atoms: C_11  and  S_12
REMARK    4  A    between atoms: S_12  and  C_13
REMARK    5  A    between atoms: C_16  and  C_19
REMARK    6  A    between atoms: N_17  and  N_18
REMARK                            x       y       z     vdW  Elec       q    Type
REMARK                         _______ _______ _______ _____ _____    ______ ____
ROOT
ATOM      1  S   UNL     1      -3.955   1.548  -0.334  0.00  0.00    -0.075 S 
ENDROOT
BRANCH   1   2
ATOM      2  C   UNL     1      -5.171   0.283  -0.174  0.00  0.00    +0.209 A 
ATOM      3  N   UNL     1      -4.946  -0.988   0.074  0.00  0.00    -0.120 NA
ATOM      4  N   UNL     1      -6.056  -1.632   0.127  0.00  0.00    -0.123 NA
ATOM      5  C   UNL     1      -7.062  -0.811  -0.084  0.00  0.00    +0.217 A 
ATOM      6  N   UNL     1      -6.525   0.442  -0.278  0.00  0.00    -0.221 N 
BRANCH   5   7
ATOM      7  C   UNL     1      -8.490  -1.164  -0.104  0.00  0.00    +0.173 A 
ATOM      8  C   UNL     1      -9.035  -2.323   0.362  0.00  0.00    +0.053 A 
ATOM      9  C   UNL     1     -10.423  -2.234   0.146  0.00  0.00    +0.042 A 
ATOM     10  C   UNL     1     -10.657  -1.044  -0.442  0.00  0.00    +0.196 A 
ATOM     11  O   UNL     1      -9.487  -0.400  -0.592  0.00  0.00    -0.460 OA
ENDBRANCH   5   7
BRANCH   6  12
ATOM     12  N   UNL     1      -7.203   1.602  -0.526  0.00  0.00    -0.294 N 
ATOM     13  H   UNL     1      -7.331   1.741  -1.517  0.00  0.00    +0.163 HD
ATOM     14  H   UNL     1      -8.088   1.614  -0.041  0.00  0.00    +0.163 HD
ENDBRANCH   6  12
ENDBRANCH   1   2
BRANCH   1  15
ATOM     15  C   UNL     1      -2.453   0.575  -0.066  0.00  0.00    +0.173 C 
BRANCH  15  17
ATOM     16  N   UNL     1      -0.011   0.966   0.007  0.00  0.00    -0.285 N 
ATOM     17  C   UNL     1      -1.248   1.475  -0.160  0.00  0.00    +0.227 C 
ATOM     18  O   UNL     1      -1.391   2.658  -0.386  0.00  0.00    -0.275 OA
ATOM     19  H   UNL     1       0.109   0.009   0.111  0.00  0.00    +0.155 HD
BRANCH  16  22
ATOM     20  C   UNL     1       3.411   2.226  -0.463  0.00  0.00    +0.003 A 
ATOM     21  C   UNL     1       2.318   1.382  -0.478  0.00  0.00    +0.023 A 
ATOM     22  C   UNL     1       1.099   1.817   0.026  0.00  0.00    +0.034 A 
ATOM     23  C   UNL     1       0.987   3.096   0.555  0.00  0.00    +0.037 A 
ATOM     24  C   UNL     1       2.085   3.934   0.572  0.00  0.00    +0.015 A 
ATOM     25  C   UNL     1       3.296   3.499   0.064  0.00  0.00    +0.014 A 
ATOM     26  I   UNL     1       1.917   5.864   1.369  0.00  0.00    -0.044 I 
ENDBRANCH  16  22
ENDBRANCH  15  17
ENDBRANCH   1  15
TORSDOF 6
