REMARK  Name = ZINC18210099
REMARK  4 active torsions:
REMARK  status: ('A' for Active; 'I' for Inactive)
REMARK    1  A    between atoms: C_1  and  C_2
REMARK    2  A    between atoms: C_5  and  C_8
REMARK    3  A    between atoms: N_16  and  C_19
REMARK    4  A    between atoms: N_26  and  C_27
REMARK                            x       y       z     vdW  Elec       q    Type
REMARK                         _______ _______ _______ _____ _____    ______ ____
ROOT
ATOM      1  C   UNL     1      -0.223  -4.207  -0.267  0.00  0.00    +0.157 C 
ATOM      2  C   UNL     1      -1.507  -4.837   0.323  0.00  0.00    +0.145 C 
ATOM      3  C   UNL     1      -1.110  -5.152   1.791  0.00  0.00    +0.249 C 
ATOM      4  C   UNL     1      -1.116  -6.663   1.838  0.00  0.00    +0.259 C 
ATOM      5  O   UNL     1      -0.850  -7.335   2.811  0.00  0.00    -0.272 OA
ATOM      6  N   UNL     1      -1.461  -7.144   0.638  0.00  0.00    -0.208 N 
ATOM      7  C   UNL     1      -1.716  -6.199  -0.301  0.00  0.00    +0.235 C 
ATOM      8  O   UNL     1      -2.054  -6.399  -1.448  0.00  0.00    -0.274 OA
ATOM      9  O   UNL     1       0.233  -4.661   1.945  0.00  0.00    -0.257 OA
ATOM     10  N   UNL     1       0.839  -4.704   0.640  0.00  0.00    -0.244 N 
ENDROOT
BRANCH   1  15
ATOM     11  C   UNL     1      -0.517   1.562  -0.111  0.00  0.00    +0.044 C 
ATOM     12  C   UNL     1      -0.441   0.057  -0.152  0.00  0.00    -0.050 A 
ATOM     13  C   UNL     1      -0.659  -0.614  -1.340  0.00  0.00    +0.004 A 
ATOM     14  C   UNL     1      -0.589  -1.994  -1.378  0.00  0.00    +0.006 A 
ATOM     15  C   UNL     1      -0.299  -2.703  -0.227  0.00  0.00    -0.022 A 
ATOM     16  C   UNL     1      -0.079  -2.031   0.962  0.00  0.00    +0.006 A 
ATOM     17  C   UNL     1      -0.146  -0.651   0.998  0.00  0.00    +0.004 A 
ENDBRANCH   1  15
BRANCH   6  18
ATOM     18  C   UNL     1      -1.558  -8.516   0.370  0.00  0.00    +0.044 A 
ATOM     19  C   UNL     1      -0.658  -9.121  -0.498  0.00  0.00    +0.024 A 
ATOM     20  C   UNL     1      -0.756 -10.474  -0.760  0.00  0.00    +0.002 A 
ATOM     21  C   UNL     1      -1.750 -11.225  -0.160  0.00  0.00    +0.000 A 
ATOM     22  C   UNL     1      -2.648 -10.626   0.705  0.00  0.00    +0.002 A 
ATOM     23  C   UNL     1      -2.551  -9.275   0.975  0.00  0.00    +0.024 A 
ENDBRANCH   6  18
BRANCH  10  24
ATOM     24  C   UNL     1       2.131  -5.112   0.301  0.00  0.00    +0.065 A 
ATOM     25  C   UNL     1       2.549  -5.073  -1.024  0.00  0.00    +0.028 A 
ATOM     26  C   UNL     1       3.827  -5.477  -1.355  0.00  0.00    +0.002 A 
ATOM     27  C   UNL     1       4.691  -5.921  -0.371  0.00  0.00    +0.000 A 
ATOM     28  C   UNL     1       4.279  -5.961   0.948  0.00  0.00    +0.002 A 
ATOM     29  C   UNL     1       3.004  -5.554   1.288  0.00  0.00    +0.028 A 
ENDBRANCH  10  24
TORSDOF 3
