REMARK  Name = ZINC16183323
REMARK  6 active torsions:
REMARK  status: ('A' for Active; 'I' for Inactive)
REMARK    1  A    between atoms: C_4  and  C_7
REMARK    2  A    between atoms: C_7  and  C_9
REMARK    3  A    between atoms: C_11  and  C_23
REMARK    4  A    between atoms: C_17  and  C_18
REMARK    5  A    between atoms: C_17  and  O_22
REMARK    6  A    between atoms: C_26  and  C_28
REMARK                            x       y       z     vdW  Elec       q    Type
REMARK                         _______ _______ _______ _____ _____    ______ ____
ROOT
ATOM      1  C   UNL     1       4.525  -2.517   1.367  0.00  0.00    +0.147 C 
ATOM      2  C   UNL     1       4.544  -1.939  -0.052  0.00  0.00    +0.156 C 
ATOM      3  N   UNL     1       3.754  -2.800  -0.933  0.00  0.00    -0.289 N 
ATOM      4  C   UNL     1       2.721  -3.517  -0.463  0.00  0.00    +0.302 C 
ATOM      5  O   UNL     1       2.090  -4.209  -1.239  0.00  0.00    -0.253 OA
ATOM      6  N   UNL     1       2.357  -3.501   0.828  0.00  0.00    -0.264 N 
ATOM      7  C   UNL     1       3.067  -2.679   1.809  0.00  0.00    +0.243 C 
ATOM      8  H   UNL     1       3.983  -2.854  -1.875  0.00  0.00    +0.151 HD
ATOM      9  H   UNL     1       1.607  -4.045   1.116  0.00  0.00    +0.153 HD
ENDROOT
BRANCH   2  10
ATOM     10  C   UNL     1       3.951  -0.553  -0.039  0.00  0.00    +0.127 A 
ATOM     11  C   UNL     1       4.649   0.600  -0.039  0.00  0.00    +0.047 A 
ATOM     12  C   UNL     1       3.710   1.650  -0.025  0.00  0.00    +0.050 A 
ATOM     13  C   UNL     1       2.478   1.075  -0.016  0.00  0.00    +0.135 A 
ATOM     14  O   UNL     1       2.640  -0.262  -0.019  0.00  0.00    -0.458 OA
BRANCH  13  15
ATOM     15  C   UNL     1       1.186   1.792   0.000  0.00  0.00    +0.017 A 
ATOM     16  C   UNL     1      -0.013   1.076   0.008  0.00  0.00    +0.013 A 
ATOM     17  C   UNL     1      -1.216   1.751   0.017  0.00  0.00    +0.021 A 
ATOM     18  C   UNL     1      -1.236   3.135   0.030  0.00  0.00    +0.041 A 
ATOM     19  C   UNL     1      -0.050   3.851   0.022  0.00  0.00    +0.021 A 
ATOM     20  C   UNL     1       1.159   3.187   0.008  0.00  0.00    +0.013 A 
ATOM     21 CL   UNL     1      -2.754   3.977   0.048  0.00  0.00    -0.084 Cl
ENDBRANCH  13  15
ENDBRANCH   2  10
BRANCH   7  22
ATOM     22  C   UNL     1       3.020  -3.362   3.177  0.00  0.00    +0.436 C 
ATOM     23  F   UNL     1       3.705  -2.580   4.113  0.00  0.00    -0.166 F 
ATOM     24  F   UNL     1       1.688  -3.510   3.579  0.00  0.00    -0.166 F 
ATOM     25  F   UNL     1       3.623  -4.622   3.091  0.00  0.00    -0.166 F 
ENDBRANCH   7  22
BRANCH   1  26
ATOM     26  C   UNL     1       5.209  -3.860   1.375  0.00  0.00    +0.173 C 
ATOM     27  O   UNL     1       4.566  -4.869   1.176  0.00  0.00    -0.292 OA
BRANCH  26  31
ATOM     28  C   UNL     1       9.381  -4.112   2.097  0.00  0.00    +0.000 A 
ATOM     29  C   UNL     1       8.651  -5.265   1.869  0.00  0.00    +0.001 A 
ATOM     30  C   UNL     1       7.295  -5.192   1.634  0.00  0.00    +0.011 A 
ATOM     31  C   UNL     1       6.657  -3.947   1.626  0.00  0.00    +0.018 A 
ATOM     32  C   UNL     1       7.402  -2.786   1.851  0.00  0.00    +0.011 A 
ATOM     33  C   UNL     1       8.757  -2.877   2.091  0.00  0.00    +0.001 A 
ENDBRANCH  26  31
ENDBRANCH   1  26
BRANCH   7  34
ATOM     34  O   UNL     1       2.448  -1.394   1.893  0.00  0.00    -0.364 OA
ATOM     35  H   UNL     1       1.521  -1.422   2.168  0.00  0.00    +0.212 HD
ENDBRANCH   7  34
TORSDOF 6
