REMARK  Name = ZINC37263636
REMARK  4 active torsions:
REMARK  status: ('A' for Active; 'I' for Inactive)
REMARK    1  A    between atoms: C_2  and  C_19
REMARK    2  A    between atoms: C_4  and  O_18
REMARK    3  A    between atoms: C_6  and  O_17
REMARK    4  A    between atoms: C_19  and  O_20
REMARK                            x       y       z     vdW  Elec       q    Type
REMARK                         _______ _______ _______ _____ _____    ______ ____
ROOT
ATOM      1  C   UNL     1      -0.017   1.421   0.010  0.00  0.00    +0.172 C 
ATOM      2  C   UNL     1       1.453   1.915  -0.002  0.00  0.00    +0.071 C 
ATOM      3  C   UNL     1       2.193   1.405  -1.230  0.00  0.00    +0.153 C 
ATOM      4  C   UNL     1       2.979   0.126  -0.905  0.00  0.00    +0.172 C 
ATOM      5  C   UNL     1       2.048  -1.021  -0.580  0.00  0.00    +0.182 C 
ATOM      6  C   UNL     1       1.153  -0.568   0.614  0.00  0.00    +0.335 C 
ATOM      7  O   UNL     1       0.002  -0.004   0.002  0.00  0.00    -0.339 OA
ATOM      8  O   UNL     1       0.892  -1.825   1.251  0.00  0.00    -0.441 OA
ATOM      9  C   UNL     1       1.985  -2.598   1.065  0.00  0.00    +0.240 C 
ATOM     10  N   UNL     1       2.743  -2.186  -0.016  0.00  0.00    -0.339 N 
ATOM     11  S   UNL     1       2.366  -3.906   2.014  0.00  0.00    +0.009 SA
ATOM     12  H   UNL     1       3.571  -2.577  -0.338  0.00  0.00    +0.164 HD
ENDROOT
BRANCH   4  13
ATOM     13  O   UNL     1       3.782  -0.229  -2.033  0.00  0.00    -0.387 OA
ATOM     14  H   UNL     1       4.424   0.448  -2.287  0.00  0.00    +0.210 HD
ENDBRANCH   4  13
BRANCH   3  15
ATOM     15  O   UNL     1       1.248   1.124  -2.265  0.00  0.00    -0.389 OA
ATOM     16  H   UNL     1       1.647   0.793  -3.082  0.00  0.00    +0.210 HD
ENDBRANCH   3  15
BRANCH   2  17
ATOM     17  C   UNL     1       1.468   3.445  -0.008  0.00  0.00    +0.164 C 
BRANCH  17  18
ATOM     18  O   UNL     1       0.911   3.932   1.215  0.00  0.00    -0.395 OA
ATOM     19  H   UNL     1       0.889   4.896   1.280  0.00  0.00    +0.209 HD
ENDBRANCH  17  18
ENDBRANCH   2  17
TORSDOF 4
