REMARK  Name = ZINC31634192
REMARK  6 active torsions:
REMARK  status: ('A' for Active; 'I' for Inactive)
REMARK    1  A    between atoms: C_1  and  C_2
REMARK    2  A    between atoms: C_2  and  C_3
REMARK    3  A    between atoms: C_3  and  C_20
REMARK    4  A    between atoms: N_6  and  C_10
REMARK    5  A    between atoms: C_10  and  C_11
REMARK    6  A    between atoms: C_14  and  C_17
REMARK                            x       y       z     vdW  Elec       q    Type
REMARK                         _______ _______ _______ _____ _____    ______ ____
ROOT
ATOM      1  C   UNL     1       0.742  -0.511   1.242  0.00  0.00    +0.138 C 
ATOM      2  C   UNL     1       0.055  -0.034   2.505  0.00  0.00    +0.251 C 
ATOM      3  O   UNL     1      -1.076  -0.284   2.863  0.00  0.00    -0.272 OA
ATOM      4  N   UNL     1       0.962   0.727   3.149  0.00  0.00    -0.220 N 
ATOM      5  C   UNL     1       2.116   0.796   2.474  0.00  0.00    +0.310 C 
ATOM      6  O   UNL     1       3.085   1.423   2.854  0.00  0.00    -0.252 OA
ATOM      7  N   UNL     1       2.083   0.093   1.328  0.00  0.00    -0.281 N 
ATOM      8  H   UNL     1       2.802   0.001   0.683  0.00  0.00    +0.152 HD
ENDROOT
BRANCH   1   9
ATOM      9  C   UNL     1       0.838  -2.015   1.222  0.00  0.00    -0.015 A 
ATOM     10  C   UNL     1      -0.146  -2.762   0.601  0.00  0.00    +0.007 A 
ATOM     11  C   UNL     1      -0.059  -4.141   0.583  0.00  0.00    +0.020 A 
ATOM     12  C   UNL     1       1.014  -4.774   1.186  0.00  0.00    +0.041 A 
ATOM     13  C   UNL     1       1.998  -4.026   1.807  0.00  0.00    +0.020 A 
ATOM     14  C   UNL     1       1.912  -2.647   1.820  0.00  0.00    +0.007 A 
ATOM     15 CL   UNL     1       1.124  -6.506   1.164  0.00  0.00    -0.084 Cl
ENDBRANCH   1   9
BRANCH   1  17
ATOM     16  C   UNL     1      -0.019   1.526   0.010  0.00  0.00    +0.007 C 
ATOM     17  C   UNL     1       0.002  -0.004   0.002  0.00  0.00    +0.037 C 
ENDBRANCH   1  17
BRANCH   4  18
ATOM     18  C   UNL     1       0.716   1.397   4.428  0.00  0.00    +0.153 C 
BRANCH  18  19
ATOM     19  C   UNL     1       1.104   0.478   5.559  0.00  0.00    -0.030 A 
ATOM     20  C   UNL     1       0.169  -0.392   6.091  0.00  0.00    +0.006 A 
ATOM     21  C   UNL     1       0.517  -1.235   7.125  0.00  0.00    +0.013 A 
ATOM     22  C   UNL     1       1.816  -1.210   7.635  0.00  0.00    +0.037 A 
ATOM     23  C   UNL     1       2.755  -0.329   7.094  0.00  0.00    +0.013 A 
ATOM     24  C   UNL     1       2.395   0.505   6.056  0.00  0.00    +0.006 A 
BRANCH  22  25
ATOM     25  C   UNL     1       2.196  -2.110   8.744  0.00  0.00    +0.242 C 
ATOM     26  O   UNL     1       1.377  -2.875   9.214  0.00  0.00    -0.270 OA
ATOM     27  N   UNL     1       3.451  -2.083   9.235  0.00  0.00    -0.325 N 
ATOM     28  H   UNL     1       4.106  -1.472   8.860  0.00  0.00    +0.145 HD
ATOM     29  H   UNL     1       3.701  -2.674   9.962  0.00  0.00    +0.145 HD
ENDBRANCH  22  25
ENDBRANCH  18  19
ENDBRANCH   4  18
TORSDOF 5
