REMARK  Name = ZINC39612938
REMARK  4 active torsions:
REMARK  status: ('A' for Active; 'I' for Inactive)
REMARK    1  A    between atoms: C_7  and  C_8
REMARK    2  A    between atoms: C_14  and  S_16
REMARK    3  A    between atoms: S_16  and  C_17
REMARK    4  A    between atoms: C_17  and  N_19
REMARK                            x       y       z     vdW  Elec       q    Type
REMARK                         _______ _______ _______ _____ _____    ______ ____
ROOT
ATOM      1  C   UNL     1      -1.267  -0.763   0.011  0.00  0.00    +0.274 C 
ATOM      2  O   UNL     1      -2.329  -0.172   0.024  0.00  0.00    -0.268 OA
ATOM      3  N   UNL     1      -1.246  -2.111   0.003  0.00  0.00    -0.225 N 
ATOM      4  C   UNL     1      -0.121  -2.924  -0.006  0.00  0.00    +0.212 C 
ATOM      5  N   UNL     1      -0.428  -4.169  -0.011  0.00  0.00    -0.177 NA
ATOM      6  N   UNL     1      -1.816  -4.358  -0.006  0.00  0.00    -0.237 N 
ATOM      7  C   UNL     1      -2.412  -3.011   0.010  0.00  0.00    +0.249 C 
ATOM      8  H   UNL     1      -2.289  -5.205  -0.008  0.00  0.00    +0.171 HD
ENDROOT
BRANCH   1  15
ATOM      9  C   UNL     1      -0.017   1.395   0.010  0.00  0.00    +0.040 A 
ATOM     10  C   UNL     1       1.197   2.061   0.002  0.00  0.00    +0.076 A 
ATOM     11  C   UNL     1       2.362   1.298  -0.013  0.00  0.00    +0.288 A 
ATOM     12  O   UNL     1       3.572   1.909  -0.021  0.00  0.00    -0.264 OA
ATOM     13  N   UNL     1       2.287  -0.026  -0.020  0.00  0.00    -0.106 NA
ATOM     14  N   UNL     1       1.164  -0.647  -0.013  0.00  0.00    -0.141 NA
ATOM     15  C   UNL     1       0.002  -0.004   0.002  0.00  0.00    +0.148 A 
ENDBRANCH   1  15
BRANCH   7  16
ATOM     16  S   UNL     1      -3.427  -2.749  -1.471  0.00  0.00    -0.059 S 
BRANCH  16  17
ATOM     17  C   UNL     1      -2.335  -3.110  -2.805  0.00  0.00    +0.107 C 
ATOM     18  S   UNL     1      -0.720  -3.581  -2.487  0.00  0.00    -0.028 S 
BRANCH  17  19
ATOM     19  N   UNL     1      -2.771  -3.015  -4.077  0.00  0.00    -0.347 N 
ATOM     20  H   UNL     1      -3.686  -2.748  -4.258  0.00  0.00    +0.143 HD
ATOM     21  H   UNL     1      -2.169  -3.213  -4.812  0.00  0.00    +0.143 HD
ENDBRANCH  17  19
ENDBRANCH  16  17
ENDBRANCH   7  16
TORSDOF 4
