REMARK  Name = ZINC60388229
REMARK  13 active torsions:
REMARK  status: ('A' for Active; 'I' for Inactive)
REMARK    1  A    between atoms: C_1  and  C_2
REMARK    2  A    between atoms: C_2  and  N_3
REMARK    3  A    between atoms: N_3  and  C_4
REMARK    4  A    between atoms: N_3  and  C_28
REMARK    5  A    between atoms: C_7  and  N_10
REMARK    6  A    between atoms: C_11  and  C_13
REMARK    7  A    between atoms: C_13  and  C_15
REMARK    8  A    between atoms: C_13  and  N_18
REMARK    9  A    between atoms: C_15  and  C_16
REMARK   10  A    between atoms: C_15  and  C_17
REMARK   11  A    between atoms: N_21  and  C_22
REMARK   12  A    between atoms: C_28  and  C_29
REMARK   13  A    between atoms: C_28  and  C_30
REMARK                            x       y       z     vdW  Elec       q    Type
REMARK                         _______ _______ _______ _____ _____    ______ ____
ROOT
ATOM      1  N   UNL     1       6.657   0.675  -1.054  0.00  0.00    -0.284 N 
ATOM      2  C   UNL     1       7.064   1.648  -1.894  0.00  0.00    +0.238 C 
ATOM      3  O   UNL     1       6.246   2.292  -2.517  0.00  0.00    -0.273 OA
ATOM      4  H   UNL     1       7.307   0.197  -0.516  0.00  0.00    +0.155 HD
ENDROOT
BRANCH   1   8
ATOM      5  C   UNL     1       2.611  -0.275  -0.768  0.00  0.00    +0.014 A 
ATOM      6  C   UNL     1       3.562  -1.276  -0.694  0.00  0.00    +0.023 A 
ATOM      7  C   UNL     1       4.904  -0.965  -0.789  0.00  0.00    +0.025 A 
ATOM      8  C   UNL     1       5.298   0.356  -0.959  0.00  0.00    +0.034 A 
ATOM      9  C   UNL     1       4.341   1.359  -1.033  0.00  0.00    +0.025 A 
ATOM     10  C   UNL     1       3.000   1.040  -0.942  0.00  0.00    +0.023 A 
BRANCH   5  11
ATOM     11  N   UNL     1       1.254  -0.594  -0.672  0.00  0.00    -0.392 NA
ATOM     12  H   UNL     1       0.704   0.248  -0.749  0.00  0.00    +0.127 HD
BRANCH  11  13
ATOM     13  C   UNL     1       0.890  -1.518  -1.755  0.00  0.00    +0.049 C 
ATOM     14  C   UNL     1      -0.596  -1.867  -1.649  0.00  0.00    +0.026 C 
ATOM     15  C   UNL     1       1.163  -0.853  -3.105  0.00  0.00    +0.026 C 
ENDBRANCH  11  13
BRANCH  11  17
ATOM     16  C   UNL     1       1.252  -0.228   1.750  0.00  0.00    +0.022 C 
ATOM     17  C   UNL     1       0.991  -1.232   0.625  0.00  0.00    +0.082 C 
ENDBRANCH  11  17
ENDBRANCH   5  11
ENDBRANCH   1   8
BRANCH   2  18
ATOM     18  C   UNL     1       8.534   1.936  -2.059  0.00  0.00    +0.163 C 
BRANCH  18  19
ATOM     19  N   UNL     1       8.737   2.780  -3.239  0.00  0.00    -0.288 N 
ATOM     20  C   UNL     1       9.920   2.764  -3.884  0.00  0.00    +0.304 C 
ATOM     21  O   UNL     1      10.819   2.049  -3.487  0.00  0.00    -0.252 OA
ATOM     22  N   UNL     1      10.107   3.541  -4.969  0.00  0.00    -0.269 N 
ATOM     23  H   UNL     1       8.019   3.351  -3.556  0.00  0.00    +0.151 HD
ATOM     24  H   UNL     1       9.415   4.163  -5.245  0.00  0.00    +0.156 HD
BRANCH  22  25
ATOM     25  C   UNL     1      11.298   3.450  -5.698  0.00  0.00    +0.035 A 
ATOM     26  C   UNL     1      11.820   4.576  -6.321  0.00  0.00    +0.023 A 
ATOM     27  C   UNL     1      12.996   4.484  -7.039  0.00  0.00    +0.002 A 
ATOM     28  C   UNL     1      13.653   3.271  -7.139  0.00  0.00    +0.000 A 
ATOM     29  C   UNL     1      13.135   2.148  -6.521  0.00  0.00    +0.002 A 
ATOM     30  C   UNL     1      11.963   2.235  -5.796  0.00  0.00    +0.023 A 
ENDBRANCH  22  25
ENDBRANCH  18  19
BRANCH  18  31
ATOM     31  C   UNL     1       9.054   2.661  -0.817  0.00  0.00    +0.012 C 
ATOM     32  C   UNL     1       8.198   3.902  -0.556  0.00  0.00    +0.009 C 
ATOM     33  C   UNL     1       8.977   1.725   0.391  0.00  0.00    +0.009 C 
ENDBRANCH  18  31
ENDBRANCH   2  18
TORSDOF 8
