REMARK  Name = ZINC67285237
REMARK  4 active torsions:
REMARK  status: ('A' for Active; 'I' for Inactive)
REMARK    1  A    between atoms: C_1  and  C_2
REMARK    2  A    between atoms: C_6  and  N_9
REMARK    3  A    between atoms: C_7  and  C_8
REMARK    4  A    between atoms: C_18  and  C_24
REMARK                            x       y       z     vdW  Elec       q    Type
REMARK                         _______ _______ _______ _____ _____    ______ ____
ROOT
ATOM      1  N   UNL     1      -0.437  -2.896   2.338  0.00  0.00    -0.327 N 
ATOM      2  C   UNL     1      -1.575  -3.742   2.723  0.00  0.00    +0.124 C 
ATOM      3  C   UNL     1      -1.060  -5.160   3.000  0.00  0.00    +0.125 C 
ATOM      4  N   UNL     1       0.094  -5.071   3.905  0.00  0.00    -0.311 N 
ATOM      5  C   UNL     1       1.233  -4.225   3.520  0.00  0.00    +0.125 C 
ATOM      6  C   UNL     1       0.720  -2.812   3.240  0.00  0.00    +0.124 C 
ATOM      7  C   UNL     1       0.110  -5.773   5.099  0.00  0.00    +0.147 A 
ATOM      8  C   UNL     1      -1.102  -6.068   5.769  0.00  0.00    +0.107 A 
ATOM      9  C   UNL     1      -2.432  -5.803   5.497  0.00  0.00    +0.062 A 
ATOM     10  C   UNL     1      -3.192  -6.351   6.536  0.00  0.00    +0.100 A 
ATOM     11  N   UNL     1      -2.371  -6.925   7.403  0.00  0.00    -0.166 NA
ATOM     12  N   UNL     1      -1.058  -6.766   6.951  0.00  0.00    -0.234 N 
ATOM     13  C   UNL     1       0.161  -7.153   7.446  0.00  0.00    +0.133 A 
ATOM     14  C   UNL     1       1.288  -6.849   6.774  0.00  0.00    +0.132 A 
ATOM     15  N   UNL     1       1.253  -6.176   5.620  0.00  0.00    -0.237 NA
ENDROOT
BRANCH   1  21
ATOM     16  C   UNL     1      -1.530   1.200  -0.148  0.00  0.00    +0.044 C 
ATOM     17  C   UNL     1      -0.977  -0.201  -0.101  0.00  0.00    -0.046 A 
ATOM     18  C   UNL     1      -0.483  -0.787  -1.252  0.00  0.00    +0.004 A 
ATOM     19  C   UNL     1       0.026  -2.072  -1.213  0.00  0.00    +0.002 A 
ATOM     20  C   UNL     1       0.043  -2.775  -0.024  0.00  0.00    +0.023 A 
ATOM     21  C   UNL     1      -0.452  -2.188   1.134  0.00  0.00    +0.033 A 
ATOM     22  C   UNL     1      -0.958  -0.895   1.092  0.00  0.00    -0.027 A 
ATOM     23  C   UNL     1      -1.491  -0.253   2.347  0.00  0.00    +0.046 C 
ENDBRANCH   1  21
BRANCH  10  24
ATOM     24  C   UNL     1      -4.666  -6.298   6.647  0.00  0.00    +0.039 A 
ATOM     25  C   UNL     1      -5.475  -6.803   7.629  0.00  0.00    +0.018 A 
ATOM     26  C   UNL     1      -6.838  -6.630   7.518  0.00  0.00    +0.008 A 
ATOM     27  C   UNL     1      -7.335  -5.967   6.444  0.00  0.00    +0.046 A 
ATOM     28  S   UNL     1      -5.852  -5.553   5.541  0.00  0.00    -0.095 S 
ENDBRANCH  10  24
TORSDOF 2
