REMARK  Name = ZINC40760702
REMARK  6 active torsions:
REMARK  status: ('A' for Active; 'I' for Inactive)
REMARK    1  A    between atoms: C_1  and  C_2
REMARK    2  A    between atoms: C_2  and  C_4
REMARK    3  A    between atoms: C_2  and  N_10
REMARK    4  A    between atoms: C_12  and  N_28
REMARK    5  A    between atoms: C_13  and  S_17
REMARK    6  A    between atoms: S_17  and  C_18
REMARK                            x       y       z     vdW  Elec       q    Type
REMARK                         _______ _______ _______ _____ _____    ______ ____
ROOT
ATOM      1  N   UNL     1       0.593  -0.849   1.111  0.00  0.00    -0.321 N 
ATOM      2  C   UNL     1      -0.069  -0.961   2.328  0.00  0.00    +0.144 A 
ATOM      3  C   UNL     1       0.634  -1.287   3.489  0.00  0.00    +0.097 A 
ATOM      4  C   UNL     1      -0.080  -1.386   4.685  0.00  0.00    +0.127 A 
ATOM      5  N   UNL     1      -1.393  -1.167   4.673  0.00  0.00    -0.227 NA
ATOM      6  C   UNL     1      -2.018  -0.861   3.554  0.00  0.00    +0.224 A 
ATOM      7  N   UNL     1      -1.381  -0.753   2.405  0.00  0.00    -0.219 NA
ATOM      8  H   UNL     1       1.549  -1.002   1.063  0.00  0.00    +0.148 HD
ENDROOT
BRANCH   3   9
ATOM      9  N   UNL     1       2.019  -1.510   3.455  0.00  0.00    -0.353 N 
ATOM     10  H   UNL     1       2.502  -1.438   2.617  0.00  0.00    +0.142 HD
ATOM     11  H   UNL     1       2.494  -1.736   4.271  0.00  0.00    +0.142 HD
ENDBRANCH   3   9
BRANCH   1  13
ATOM     12  C   UNL     1      -0.285   1.022  -0.198  0.00  0.00    +0.033 C 
ATOM     13  C   UNL     1      -0.155  -0.499  -0.100  0.00  0.00    +0.099 C 
BRANCH  13  14
ATOM     14  C   UNL     1       0.578  -1.020  -1.310  0.00  0.00    -0.028 A 
ATOM     15  C   UNL     1       1.957  -0.945  -1.368  0.00  0.00    +0.005 A 
ATOM     16  C   UNL     1       2.629  -1.422  -2.478  0.00  0.00    +0.000 A 
ATOM     17  C   UNL     1       1.921  -1.974  -3.530  0.00  0.00    +0.000 A 
ATOM     18  C   UNL     1       0.542  -2.050  -3.471  0.00  0.00    +0.000 A 
ATOM     19  C   UNL     1      -0.129  -1.577  -2.359  0.00  0.00    +0.005 A 
ENDBRANCH  13  14
ENDBRANCH   1  13
BRANCH   4  20
ATOM     20  S   UNL     1       0.745  -1.796   6.188  0.00  0.00    -0.066 S 
BRANCH  20  21
ATOM     21  C   UNL     1      -0.511  -1.653   7.416  0.00  0.00    +0.040 A 
ATOM     22  C   UNL     1      -1.087  -2.784   7.955  0.00  0.00    +0.017 A 
ATOM     23  C   UNL     1      -2.079  -2.685   8.925  0.00  0.00    +0.002 A 
ATOM     24  C   UNL     1      -2.509  -1.470   9.368  0.00  0.00    +0.010 A 
ATOM     25  C   UNL     1      -1.947  -0.295   8.843  0.00  0.00    +0.001 A 
ATOM     26  C   UNL     1      -0.932  -0.379   7.859  0.00  0.00    +0.085 A 
ATOM     27  N   UNL     1      -0.392   0.736   7.362  0.00  0.00    -0.254 NA
ATOM     28  C   UNL     1      -0.778   1.921   7.769  0.00  0.00    +0.111 A 
ATOM     29  C   UNL     1      -1.767   2.076   8.738  0.00  0.00    +0.020 A 
ATOM     30  C   UNL     1      -2.369   0.976   9.280  0.00  0.00    +0.011 A 
ENDBRANCH  20  21
ENDBRANCH   4  20
TORSDOF 5
