REMARK  Name = ZINC47588520
REMARK  4 active torsions:
REMARK  status: ('A' for Active; 'I' for Inactive)
REMARK    1  A    between atoms: C_7  and  N_12
REMARK    2  A    between atoms: N_15  and  C_16
REMARK    3  A    between atoms: C_19  and  C_23
REMARK    4  A    between atoms: N_25  and  C_26
REMARK                            x       y       z     vdW  Elec       q    Type
REMARK                         _______ _______ _______ _____ _____    ______ ____
ROOT
ATOM      1  N   UNL     1       0.166  -2.685   0.897  0.00  0.00    -0.292 N 
ATOM      2  C   UNL     1      -1.117  -2.783   0.498  0.00  0.00    +0.304 C 
ATOM      3  O   UNL     1      -1.428  -2.467  -0.634  0.00  0.00    -0.252 OA
ATOM      4  N   UNL     1      -2.057  -3.232   1.353  0.00  0.00    -0.269 N 
ATOM      5  H   UNL     1       0.413  -2.937   1.801  0.00  0.00    +0.151 HD
ATOM      6  H   UNL     1      -1.800  -3.547   2.234  0.00  0.00    +0.156 HD
ENDROOT
BRANCH   1  13
ATOM      7  C   UNL     1      -0.002   1.378   0.037  0.00  0.00    +0.001 A 
ATOM      8  C   UNL     1       1.189   2.081   0.032  0.00  0.00    +0.004 A 
ATOM      9  C   UNL     1       2.390   1.402   0.011  0.00  0.00    +0.046 A 
ATOM     10  C   UNL     1       2.407   0.011  -0.006  0.00  0.00    +0.125 A 
ATOM     11  C   UNL     1       1.214  -0.690  -0.004  0.00  0.00    +0.015 A 
ATOM     12  C   UNL     1       0.011  -0.003   0.020  0.00  0.00    +0.009 A 
ATOM     13  C   UNL     1       1.187  -2.197  -0.033  0.00  0.00    +0.111 C 
ATOM     14  C   UNL     1       2.555  -2.745   0.381  0.00  0.00    +0.068 C 
ATOM     15  C   UNL     1       3.635  -1.996  -0.411  0.00  0.00    +0.231 C 
ATOM     16  O   UNL     1       3.609  -0.623  -0.021  0.00  0.00    -0.492 OA
ENDBRANCH   1  13
BRANCH   4  17
ATOM     17  C   UNL     1      -3.398  -3.243   0.973  0.00  0.00    +0.036 A 
ATOM     18  C   UNL     1      -3.743  -3.522  -0.347  0.00  0.00    +0.024 A 
ATOM     19  C   UNL     1      -5.065  -3.534  -0.727  0.00  0.00    +0.016 A 
ATOM     20  C   UNL     1      -6.064  -3.266   0.214  0.00  0.00    +0.055 A 
ATOM     21  C   UNL     1      -5.715  -2.987   1.539  0.00  0.00    +0.055 A 
ATOM     22  C   UNL     1      -4.388  -2.982   1.913  0.00  0.00    +0.044 A 
ATOM     23 CL   UNL     1      -6.951  -2.653   2.712  0.00  0.00    -0.083 Cl
BRANCH  20  24
ATOM     24  C   UNL     1      -7.483  -3.278  -0.190  0.00  0.00    +0.246 C 
ATOM     25  O   UNL     1      -8.351  -3.045   0.629  0.00  0.00    -0.270 OA
ATOM     26  N   UNL     1      -7.817  -3.548  -1.468  0.00  0.00    -0.308 N 
ATOM     27  H   UNL     1      -7.125  -3.734  -2.122  0.00  0.00    +0.149 HD
BRANCH  26  28
ATOM     28  C   UNL     1      -9.226  -3.559  -1.869  0.00  0.00    +0.073 C 
ATOM     29  C   UNL     1      -9.693  -4.699  -2.777  0.00  0.00    +0.024 C 
ATOM     30  C   UNL     1      -9.544  -3.284  -3.340  0.00  0.00    +0.024 C 
ENDBRANCH  26  28
ENDBRANCH  20  24
ENDBRANCH   4  17
TORSDOF 4
