REMARK  Name = ZINC37246224
REMARK  9 active torsions:
REMARK  status: ('A' for Active; 'I' for Inactive)
REMARK    1  A    between atoms: C_1  and  O_2
REMARK    2  A    between atoms: O_2  and  C_3
REMARK    3  A    between atoms: C_5  and  C_10
REMARK    4  A    between atoms: C_8  and  O_9
REMARK    5  A    between atoms: N_11  and  N_12
REMARK    6  A    between atoms: C_13  and  C_15
REMARK    7  A    between atoms: C_18  and  N_21
REMARK    8  A    between atoms: N_24  and  C_25
REMARK    9  A    between atoms: C_29  and  C_31
REMARK                            x       y       z     vdW  Elec       q    Type
REMARK                         _______ _______ _______ _____ _____    ______ ____
ROOT
ATOM      1  C   UNL     1      -7.347  -3.887  -0.184  0.00  0.00    +0.038 A 
ATOM      2  C   UNL     1      -6.159  -4.622  -0.114  0.00  0.00    +0.015 A 
ATOM      3  C   UNL     1      -6.201  -5.997  -0.132  0.00  0.00    +0.024 A 
ATOM      4  C   UNL     1      -7.423  -6.657  -0.220  0.00  0.00    +0.035 A 
ATOM      5  C   UNL     1      -8.607  -5.929  -0.290  0.00  0.00    +0.024 A 
ATOM      6  C   UNL     1      -8.573  -4.553  -0.266  0.00  0.00    +0.015 A 
ENDROOT
BRANCH   4   7
ATOM      7  N   UNL     1      -7.461  -8.051  -0.239  0.00  0.00    -0.269 N 
ATOM      8  C   UNL     1      -6.532  -8.760   0.432  0.00  0.00    +0.308 C 
ATOM      9  O   UNL     1      -5.720  -8.187   1.133  0.00  0.00    -0.252 OA
ATOM     10  N   UNL     1      -6.501 -10.103   0.324  0.00  0.00    -0.269 N 
ATOM     11  H   UNL     1      -8.157  -8.510  -0.734  0.00  0.00    +0.156 HD
ATOM     12  H   UNL     1      -7.103 -10.554  -0.288  0.00  0.00    +0.156 HD
BRANCH  10  13
ATOM     13  C   UNL     1      -5.601 -10.846   1.096  0.00  0.00    +0.035 A 
ATOM     14  C   UNL     1      -5.043 -12.011   0.585  0.00  0.00    +0.023 A 
ATOM     15  C   UNL     1      -4.155 -12.742   1.349  0.00  0.00    +0.002 A 
ATOM     16  C   UNL     1      -3.822 -12.316   2.622  0.00  0.00    +0.012 A 
ATOM     17  C   UNL     1      -4.376 -11.158   3.134  0.00  0.00    +0.057 A 
ATOM     18  C   UNL     1      -5.261 -10.419   2.372  0.00  0.00    +0.035 A 
BRANCH  17  19
ATOM     19  C   UNL     1      -4.011 -10.697   4.521  0.00  0.00    +0.417 C 
ATOM     20  F   UNL     1      -3.103 -11.598   5.087  0.00  0.00    -0.166 F 
ATOM     21  F   UNL     1      -3.427  -9.428   4.453  0.00  0.00    -0.166 F 
ATOM     22  F   UNL     1      -5.164 -10.639   5.312  0.00  0.00    -0.166 F 
ENDBRANCH  17  19
ENDBRANCH  10  13
ENDBRANCH   4   7
BRANCH   1  24
ATOM     23  N   UNL     1      -6.123  -1.772  -0.085  0.00  0.00    -0.203 N 
ATOM     24  C   UNL     1      -7.306  -2.413  -0.164  0.00  0.00    +0.263 C 
ATOM     25  O   UNL     1      -8.340  -1.775  -0.220  0.00  0.00    -0.268 OA
ATOM     26  H   UNL     1      -5.298  -2.281  -0.040  0.00  0.00    +0.178 HD
BRANCH  23  28
ATOM     27  C   UNL     1      -4.944   0.247  -0.124  0.00  0.00    +0.138 C 
ATOM     28  N   UNL     1      -6.084  -0.372  -0.066  0.00  0.00    -0.187 NA
BRANCH  27  31
ATOM     29  C   UNL     1      -1.408  -0.522  -1.126  0.00  0.00    +0.162 A 
ATOM     30  C   UNL     1      -2.495   0.096  -0.537  0.00  0.00    +0.058 A 
ATOM     31  C   UNL     1      -3.781  -0.408  -0.750  0.00  0.00    -0.002 A 
ATOM     32  C   UNL     1      -3.962  -1.534  -1.558  0.00  0.00    +0.013 A 
ATOM     33  C   UNL     1      -2.872  -2.145  -2.142  0.00  0.00    +0.050 A 
ATOM     34  C   UNL     1      -1.597  -1.641  -1.934  0.00  0.00    +0.158 A 
BRANCH  29  36
ATOM     35  C   UNL     1      -0.036   1.115  -0.080  0.00  0.00    +0.277 C 
ATOM     36  O   UNL     1      -0.155  -0.035  -0.920  0.00  0.00    -0.491 OA
ENDBRANCH  29  36
BRANCH  34  37
ATOM     37  O   UNL     1      -0.527  -2.244  -2.517  0.00  0.00    -0.503 OA
ATOM     38  H   UNL     1      -0.128  -2.943  -1.981  0.00  0.00    +0.292 HD
ENDBRANCH  34  37
ENDBRANCH  27  31
ENDBRANCH  23  28
ENDBRANCH   1  24
TORSDOF 8
