REMARK  Name = ZINC59349870
REMARK  12 active torsions:
REMARK  status: ('A' for Active; 'I' for Inactive)
REMARK    1  A    between atoms: C_1  and  C_2
REMARK    2  A    between atoms: C_2  and  C_4
REMARK    3  A    between atoms: C_2  and  O_32
REMARK    4  A    between atoms: C_4  and  C_5
REMARK    5  A    between atoms: C_5  and  C_6
REMARK    6  A    between atoms: C_11  and  C_15
REMARK    7  A    between atoms: C_15  and  C_16
REMARK    8  A    between atoms: C_23  and  C_26
REMARK    9  A    between atoms: C_26  and  C_27
REMARK   10  A    between atoms: C_27  and  C_28
REMARK   11  A    between atoms: C_28  and  C_30
REMARK   12  A    between atoms: C_28  and  O_31
REMARK                            x       y       z     vdW  Elec       q    Type
REMARK                         _______ _______ _______ _____ _____    ______ ____
ROOT
ATOM      1  C   UNL     1       3.406  -5.288   7.365  0.00  0.00    +0.070 C 
ENDROOT
BRANCH   1   7
ATOM      2  C   UNL     1       1.601  -2.533   2.392  0.00  0.00    +0.108 A 
ATOM      3  N   UNL     1       2.770  -2.117   2.784  0.00  0.00    -0.232 NA
ATOM      4  C   UNL     1       3.131  -2.774   3.916  0.00  0.00    +0.089 A 
ATOM      5  C   UNL     1       4.257  -2.722   4.742  0.00  0.00    +0.030 A 
ATOM      6  C   UNL     1       4.333  -3.530   5.841  0.00  0.00    +0.006 A 
ATOM      7  C   UNL     1       3.301  -4.405   6.149  0.00  0.00    -0.041 A 
ATOM      8  C   UNL     1       2.181  -4.473   5.348  0.00  0.00    +0.031 A 
ATOM      9  C   UNL     1       2.086  -3.660   4.227  0.00  0.00    +0.066 A 
ATOM     10  N   UNL     1       1.130  -3.480   3.248  0.00  0.00    -0.342 N 
ATOM     11  H   UNL     1       0.281  -3.944   3.181  0.00  0.00    +0.167 HD
BRANCH   2  12
ATOM     12  C   UNL     1       0.872  -2.034   1.171  0.00  0.00    +0.077 C 
BRANCH  12  13
ATOM     13  C   UNL     1       0.742  -0.511   1.242  0.00  0.00    +0.039 C 
BRANCH  13  15
ATOM     14  C   UNL     1      -0.019   1.526   0.010  0.00  0.00    +0.037 C 
ATOM     15  C   UNL     1       0.002  -0.004   0.002  0.00  0.00    +0.112 C 
BRANCH  15  16
ATOM     16  O   UNL     1      -1.339  -0.499   0.012  0.00  0.00    -0.392 OA
ATOM     17  H   UNL     1      -1.853  -0.225   0.784  0.00  0.00    +0.210 HD
ENDBRANCH  15  16
ENDBRANCH  13  15
ENDBRANCH  12  13
ENDBRANCH   2  12
ENDBRANCH   1   7
BRANCH   1  18
ATOM     18  C   UNL     1       2.819  -4.574   8.556  0.00  0.00    -0.041 A 
ATOM     19  C   UNL     1       3.632  -3.772   9.345  0.00  0.00    +0.006 A 
ATOM     20  C   UNL     1       3.113  -3.111  10.437  0.00  0.00    +0.028 A 
ATOM     21  C   UNL     1       1.767  -3.250  10.749  0.00  0.00    +0.066 A 
ATOM     22  C   UNL     1       0.945  -4.062   9.950  0.00  0.00    +0.089 A 
ATOM     23  C   UNL     1       1.492  -4.718   8.845  0.00  0.00    +0.033 A 
ATOM     24  N   UNL     1      -0.302  -4.010  10.485  0.00  0.00    -0.232 NA
ATOM     25  C   UNL     1      -0.297  -3.239  11.533  0.00  0.00    +0.108 A 
ATOM     26  N   UNL     1       0.953  -2.744  11.742  0.00  0.00    -0.342 N 
ATOM     27  H   UNL     1       1.222  -2.145  12.457  0.00  0.00    +0.167 HD
BRANCH  25  28
ATOM     28  C   UNL     1      -1.499  -2.938  12.390  0.00  0.00    +0.077 C 
BRANCH  28  29
ATOM     29  C   UNL     1      -2.626  -2.390  11.513  0.00  0.00    +0.039 C 
BRANCH  29  30
ATOM     30  C   UNL     1      -3.847  -2.084  12.383  0.00  0.00    +0.112 C 
ATOM     31  C   UNL     1      -5.014  -1.654  11.491  0.00  0.00    +0.037 C 
BRANCH  30  32
ATOM     32  O   UNL     1      -3.531  -1.030  13.294  0.00  0.00    -0.392 OA
ATOM     33  H   UNL     1      -3.272  -0.203  12.865  0.00  0.00    +0.210 HD
ENDBRANCH  30  32
ENDBRANCH  29  30
ENDBRANCH  28  29
ENDBRANCH  25  28
ENDBRANCH   1  18
TORSDOF 10
