REMARK  Name = ZINC44004596
REMARK  5 active torsions:
REMARK  status: ('A' for Active; 'I' for Inactive)
REMARK    1  A    between atoms: C_3  and  N_6
REMARK    2  A    between atoms: C_12  and  C_15
REMARK    3  A    between atoms: C_15  and  N_16
REMARK    4  A    between atoms: N_19  and  C_20
REMARK    5  A    between atoms: C_23  and  C_26
REMARK                            x       y       z     vdW  Elec       q    Type
REMARK                         _______ _______ _______ _____ _____    ______ ____
ROOT
ATOM      1  C   UNL     1       9.017   2.402  -2.855  0.00  0.00    +0.109 C 
ENDROOT
BRANCH   1   8
ATOM      2  N   UNL     1       3.563   1.291  -0.251  0.00  0.00    -0.264 N 
ATOM      3  C   UNL     1       4.668   0.526  -0.155  0.00  0.00    +0.307 C 
ATOM      4  O   UNL     1       4.566  -0.667   0.053  0.00  0.00    -0.252 OA
ATOM      5  N   UNL     1       5.888   1.085  -0.290  0.00  0.00    -0.285 N 
ATOM      6  C   UNL     1       6.034   2.541  -0.424  0.00  0.00    +0.109 C 
ATOM      7  C   UNL     1       6.854   2.840  -1.683  0.00  0.00    +0.024 C 
ATOM      8  C   UNL     1       8.180   2.079  -1.615  0.00  0.00    +0.009 C 
ATOM      9  C   UNL     1       7.905   0.574  -1.565  0.00  0.00    +0.024 C 
ATOM     10  C   UNL     1       7.097   0.250  -0.299  0.00  0.00    +0.109 C 
ATOM     11  H   UNL     1       3.645   2.253  -0.343  0.00  0.00    +0.157 HD
BRANCH   2  14
ATOM     12  C   UNL     1      -0.056   0.486  -0.243  0.00  0.00    +0.009 A 
ATOM     13  C   UNL     1       1.071   1.285  -0.299  0.00  0.00    +0.031 A 
ATOM     14  C   UNL     1       2.297   0.697  -0.218  0.00  0.00    +0.073 A 
ATOM     15  S   UNL     1       1.869  -1.028  -0.059  0.00  0.00    -0.082 S 
ATOM     16  C   UNL     1       0.093  -0.854  -0.111  0.00  0.00    +0.047 A 
ENDBRANCH   2  14
ENDBRANCH   1   8
BRANCH   1  17
ATOM     17  N   UNL     1      10.333   1.770  -2.734  0.00  0.00    -0.299 N 
ATOM     18  C   UNL     1      11.245   1.919  -3.715  0.00  0.00    +0.304 C 
ATOM     19  O   UNL     1      10.976   2.578  -4.700  0.00  0.00    -0.253 OA
ATOM     20  N   UNL     1      12.456   1.337  -3.604  0.00  0.00    -0.269 N 
ATOM     21  H   UNL     1      10.548   1.244  -1.948  0.00  0.00    +0.150 HD
ATOM     22  H   UNL     1      12.645   0.750  -2.855  0.00  0.00    +0.156 HD
BRANCH  20  23
ATOM     23  C   UNL     1      13.440   1.579  -4.569  0.00  0.00    +0.035 A 
ATOM     24  C   UNL     1      14.346   0.582  -4.904  0.00  0.00    +0.024 A 
ATOM     25  C   UNL     1      15.316   0.824  -5.857  0.00  0.00    +0.014 A 
ATOM     26  C   UNL     1      15.385   2.058  -6.477  0.00  0.00    +0.055 A 
ATOM     27  C   UNL     1      14.485   3.054  -6.145  0.00  0.00    +0.014 A 
ATOM     28  C   UNL     1      13.509   2.816  -5.197  0.00  0.00    +0.024 A 
BRANCH  26  29
ATOM     29  C   UNL     1      16.445   2.319  -7.516  0.00  0.00    +0.417 C 
ATOM     30  F   UNL     1      15.954   1.973  -8.780  0.00  0.00    -0.166 F 
ATOM     31  F   UNL     1      16.785   3.676  -7.505  0.00  0.00    -0.166 F 
ATOM     32  F   UNL     1      17.578   1.551  -7.230  0.00  0.00    -0.166 F 
ENDBRANCH  26  29
ENDBRANCH  20  23
ENDBRANCH   1  17
TORSDOF 5
