REMARK  Name = ZINC37313688
REMARK  6 active torsions:
REMARK  status: ('A' for Active; 'I' for Inactive)
REMARK    1  A    between atoms: C_1  and  C_2
REMARK    2  A    between atoms: C_2  and  C_4
REMARK    3  A    between atoms: C_2  and  N_14
REMARK    4  A    between atoms: C_7  and  S_10
REMARK    5  A    between atoms: S_10  and  N_13
REMARK    6  A    between atoms: N_14  and  C_15
REMARK                            x       y       z     vdW  Elec       q    Type
REMARK                         _______ _______ _______ _____ _____    ______ ____
ROOT
ATOM      1  C   UNL     1      -0.019   1.526   0.010  0.00  0.00    +0.033 C 
ATOM      2  C   UNL     1       0.002  -0.004   0.002  0.00  0.00    +0.098 C 
ENDROOT
BRANCH   2   3
ATOM      3  C   UNL     1      -1.412  -0.526   0.013  0.00  0.00    -0.027 A 
ATOM      4  C   UNL     1      -2.141  -0.569  -1.161  0.00  0.00    +0.007 A 
ATOM      5  C   UNL     1      -3.438  -1.047  -1.151  0.00  0.00    +0.029 A 
ATOM      6  C   UNL     1      -4.005  -1.483   0.032  0.00  0.00    +0.105 A 
ATOM      7  C   UNL     1      -3.275  -1.441   1.205  0.00  0.00    +0.029 A 
ATOM      8  C   UNL     1      -1.977  -0.966   1.195  0.00  0.00    +0.007 A 
BRANCH   6   9
ATOM      9  S   UNL     1      -5.659  -2.092   0.045  0.00  0.00    +0.056 S 
ATOM     10  O   UNL     1      -6.142  -1.928   1.371  0.00  0.00    -0.153 OA
ATOM     11  O   UNL     1      -6.311  -1.518  -1.080  0.00  0.00    -0.153 OA
BRANCH   9  12
ATOM     12  N   UNL     1      -5.582  -3.723  -0.233  0.00  0.00    -0.204 NA
ATOM     13  H   UNL     1      -4.723  -4.152  -0.364  0.00  0.00    +0.144 HD
ATOM     14  H   UNL     1      -6.397  -4.248  -0.264  0.00  0.00    +0.144 HD
ENDBRANCH   9  12
ENDBRANCH   6   9
ENDBRANCH   2   3
BRANCH   2  15
ATOM     15  N   UNL     1       0.688  -0.476  -1.203  0.00  0.00    -0.336 N 
ATOM     16  H   UNL     1       0.175  -0.710  -1.993  0.00  0.00    +0.147 HD
BRANCH  15  17
ATOM     17  C   UNL     1       2.081  -0.591  -1.215  0.00  0.00    +0.046 A 
ATOM     18  C   UNL     1       2.816  -0.263  -0.084  0.00  0.00    +0.025 A 
ATOM     19  C   UNL     1       4.192  -0.378  -0.098  0.00  0.00    +0.016 A 
ATOM     20  C   UNL     1       4.839  -0.818  -1.239  0.00  0.00    +0.015 A 
ATOM     21  C   UNL     1       4.111  -1.146  -2.368  0.00  0.00    +0.036 A 
ATOM     22  C   UNL     1       2.733  -1.039  -2.358  0.00  0.00    +0.063 A 
ATOM     23 CL   UNL     1       1.818  -1.457  -3.773  0.00  0.00    -0.082 Cl
ATOM     24  I   UNL     1       6.927  -0.990  -1.256  0.00  0.00    -0.044 I 
ENDBRANCH  15  17
ENDBRANCH   2  15
TORSDOF 5
