REMARK  Name = ZINC40572398
REMARK  4 active torsions:
REMARK  status: ('A' for Active; 'I' for Inactive)
REMARK    1  A    between atoms: C_1  and  C_2
REMARK    2  A    between atoms: C_7  and  N_10
REMARK    3  A    between atoms: C_15  and  O_23
REMARK    4  A    between atoms: C_18  and  C_20
REMARK                            x       y       z     vdW  Elec       q    Type
REMARK                         _______ _______ _______ _____ _____    ______ ____
ROOT
ATOM      1  N   UNL     1      -0.612  -2.548   1.244  0.00  0.00    -0.296 N 
ATOM      2  C   UNL     1      -0.873  -3.776   1.733  0.00  0.00    +0.303 C 
ATOM      3  O   UNL     1       0.032  -4.463   2.165  0.00  0.00    -0.253 OA
ATOM      4  N   UNL     1      -2.137  -4.243   1.742  0.00  0.00    -0.269 N 
ATOM      5  C   UNL     1      -3.323  -3.521   1.245  0.00  0.00    +0.141 C 
ATOM      6  C   UNL     1      -4.517  -4.147   2.009  0.00  0.00    +0.134 C 
ATOM      7  C   UNL     1      -4.094  -5.638   2.080  0.00  0.00    +0.067 C 
ATOM      8  C   UNL     1      -2.562  -5.558   2.244  0.00  0.00    +0.193 C 
ATOM      9  H   UNL     1      -1.333  -2.000   0.898  0.00  0.00    +0.151 HD
ENDROOT
BRANCH   1  15
ATOM     10  C   UNL     1      -0.019   1.526   0.010  0.00  0.00    +0.007 C 
ATOM     11  C   UNL     1       0.002  -0.004   0.002  0.00  0.00    -0.012 C 
ATOM     12  C   UNL     1       0.718  -0.497  -1.257  0.00  0.00    +0.003 C 
ATOM     13  C   UNL     1       0.739  -2.027  -1.265  0.00  0.00    +0.002 C 
ATOM     14  C   UNL     1       1.479  -2.534  -0.026  0.00  0.00    +0.022 C 
ATOM     15  C   UNL     1       0.763  -2.041   1.233  0.00  0.00    +0.075 C 
ATOM     16  C   UNL     1       0.742  -0.511   1.242  0.00  0.00    +0.025 C 
ENDBRANCH   1  15
BRANCH   8  17
ATOM     17  C   UNL     1      -1.900  -6.650   1.444  0.00  0.00    +0.376 C 
ATOM     18  O   UNL     1      -1.119  -6.364   0.552  0.00  0.00    -0.244 OA
ATOM     19  O   UNL     1      -2.144  -7.819   1.689  0.00  0.00    -0.244 OA
ENDBRANCH   8  17
BRANCH   6  20
ATOM     20  O   UNL     1      -4.639  -3.586   3.317  0.00  0.00    -0.390 OA
ATOM     21  H   UNL     1      -4.806  -2.633   3.323  0.00  0.00    +0.210 HD
ENDBRANCH   6  20
TORSDOF 3
