REMARK  Name = ZINC58512751
REMARK  11 active torsions:
REMARK  status: ('A' for Active; 'I' for Inactive)
REMARK    1  A    between atoms: C_1  and  C_2
REMARK    2  A    between atoms: C_2  and  C_3
REMARK    3  A    between atoms: C_3  and  C_5
REMARK    4  A    between atoms: C_3  and  C_6
REMARK    5  A    between atoms: C_9  and  C_12
REMARK    6  A    between atoms: C_12  and  C_14
REMARK    7  A    between atoms: C_12  and  N_19
REMARK    8  A    between atoms: C_20  and  C_22
REMARK    9  A    between atoms: C_22  and  C_23
REMARK   10  A    between atoms: C_23  and  C_25
REMARK   11  A    between atoms: C_23  and  N_30
REMARK                            x       y       z     vdW  Elec       q    Type
REMARK                         _______ _______ _______ _____ _____    ______ ____
ROOT
ATOM      1  N   UNL     1      -2.661  -6.764   0.933  0.00  0.00    -0.304 N 
ATOM      2  C   UNL     1      -3.071  -8.017   0.651  0.00  0.00    +0.216 C 
ATOM      3  O   UNL     1      -2.361  -8.755   0.001  0.00  0.00    -0.276 OA
ATOM      4  H   UNL     1      -3.229  -6.174   1.453  0.00  0.00    +0.150 HD
ENDROOT
BRANCH   1   5
ATOM      5  C   UNL     1      -1.358  -6.295   0.456  0.00  0.00    +0.140 C 
BRANCH   5   9
ATOM      6  C   UNL     1      -1.414  -2.036   0.129  0.00  0.00    -0.045 A 
ATOM      7  C   UNL     1      -0.780  -2.795  -0.837  0.00  0.00    +0.004 A 
ATOM      8  C   UNL     1      -0.762  -4.173  -0.731  0.00  0.00    +0.006 A 
ATOM      9  C   UNL     1      -1.377  -4.792   0.341  0.00  0.00    -0.022 A 
ATOM     10  C   UNL     1      -2.010  -4.033   1.307  0.00  0.00    +0.006 A 
ATOM     11  C   UNL     1      -2.024  -2.655   1.203  0.00  0.00    +0.004 A 
BRANCH   6  12
ATOM     12  C   UNL     1      -1.433  -0.534   0.013  0.00  0.00    +0.016 C 
ATOM     13  C   UNL     1      -2.135  -0.131  -1.286  0.00  0.00    +0.012 C 
BRANCH  12  15
ATOM     14  C   UNL     1      -0.019   1.526   0.010  0.00  0.00    +0.004 C 
ATOM     15  C   UNL     1       0.002  -0.004   0.002  0.00  0.00    +0.004 C 
ENDBRANCH  12  15
ENDBRANCH   6  12
ENDBRANCH   5   9
BRANCH   5  16
ATOM     16  C   UNL     1      -0.286  -6.711   1.430  0.00  0.00    +0.014 A 
ATOM     17  C   UNL     1       0.965  -7.167   1.179  0.00  0.00    +0.013 A 
ATOM     18  C   UNL     1       1.786  -7.492   2.243  0.00  0.00    +0.008 A 
ATOM     19  C   UNL     1       1.316  -7.343   3.505  0.00  0.00    +0.045 A 
ATOM     20  S   UNL     1      -0.332  -6.722   3.215  0.00  0.00    -0.099 S 
ENDBRANCH   5  16
ENDBRANCH   1   5
BRANCH   2  21
ATOM     21  C   UNL     1      -4.411  -8.500   1.142  0.00  0.00    +0.123 C 
BRANCH  21  22
ATOM     22  C   UNL     1      -4.630  -9.944   0.687  0.00  0.00    +0.120 C 
BRANCH  22  23
ATOM     23  N   UNL     1      -4.715  -9.989  -0.774  0.00  0.00    -0.292 N 
ATOM     24  C   UNL     1      -5.676  -9.296  -1.416  0.00  0.00    +0.298 C 
ATOM     25  O   UNL     1      -6.475  -8.634  -0.781  0.00  0.00    -0.253 OA
ATOM     26  N   UNL     1      -5.754  -9.337  -2.761  0.00  0.00    -0.313 N 
ATOM     27  H   UNL     1      -4.078 -10.517  -1.281  0.00  0.00    +0.151 HD
ATOM     28  H   UNL     1      -5.117  -9.865  -3.267  0.00  0.00    +0.146 HD
ATOM     29  H   UNL     1      -6.446  -8.838  -3.222  0.00  0.00    +0.146 HD
ENDBRANCH  22  23
BRANCH  22  30
ATOM     30  C   UNL     1      -5.913 -10.468   1.280  0.00  0.00    +0.010 A 
ATOM     31  C   UNL     1      -6.090 -11.261   2.365  0.00  0.00    +0.013 A 
ATOM     32  C   UNL     1      -7.374 -11.620   2.730  0.00  0.00    +0.008 A 
ATOM     33  C   UNL     1      -8.418 -11.169   1.992  0.00  0.00    +0.045 A 
ATOM     34  S   UNL     1      -7.593 -10.199   0.741  0.00  0.00    -0.100 S 
ENDBRANCH  22  30
ENDBRANCH  21  22
ENDBRANCH   2  21
TORSDOF 9
