REMARK  Name = ZINC05988135
REMARK  5 active torsions:
REMARK  status: ('A' for Active; 'I' for Inactive)
REMARK    1  A    between atoms: C_1  and  O_2
REMARK    2  A    between atoms: O_2  and  C_3
REMARK    3  A    between atoms: C_6  and  N_9
REMARK    4  A    between atoms: N_9  and  N_10
REMARK    5  A    between atoms: C_12  and  C_17
REMARK                            x       y       z     vdW  Elec       q    Type
REMARK                         _______ _______ _______ _____ _____    ______ ____
ROOT
ATOM      1  N   UNL     1       2.407  -3.736  -4.417  0.00  0.00    -0.177 NA
ATOM      2  C   UNL     1       2.953  -4.324  -5.460  0.00  0.00    +0.150 C 
ATOM      3  C   UNL     1       3.011  -5.772  -5.749  0.00  0.00    +0.119 C 
ATOM      4  N   UNL     1       3.639  -5.930  -6.881  0.00  0.00    -0.178 NA
ATOM      5  N   UNL     1       4.035  -4.708  -7.425  0.00  0.00    -0.219 N 
ATOM      6  C   UNL     1       3.637  -3.681  -6.601  0.00  0.00    +0.160 C 
ATOM      7  N   UNL     1       3.828  -2.397  -6.788  0.00  0.00    -0.283 NA
ATOM      8  H   UNL     1       3.603  -1.766  -6.087  0.00  0.00    +0.188 HD
ATOM      9  H   UNL     1       4.514  -4.599  -8.260  0.00  0.00    +0.176 HD
ENDROOT
BRANCH   3  10
ATOM     10  C   UNL     1       2.454  -6.853  -4.902  0.00  0.00    +0.004 A 
ATOM     11  C   UNL     1       1.799  -6.542  -3.711  0.00  0.00    +0.011 A 
ATOM     12  C   UNL     1       1.282  -7.553  -2.927  0.00  0.00    +0.016 A 
ATOM     13  C   UNL     1       1.414  -8.873  -3.320  0.00  0.00    +0.018 A 
ATOM     14  C   UNL     1       2.064  -9.188  -4.501  0.00  0.00    +0.016 A 
ATOM     15  C   UNL     1       2.580  -8.185  -5.296  0.00  0.00    +0.011 A 
ATOM     16 BR   UNL     1       0.705 -10.253  -2.239  0.00  0.00    -0.050 Br
ENDBRANCH   3  10
BRANCH   1  17
ATOM     17  N   UNL     1       2.199  -2.463  -4.430  0.00  0.00    -0.237 N 
ATOM     18  H   UNL     1       2.365  -1.953  -5.238  0.00  0.00    +0.174 HD
BRANCH  17  22
ATOM     19  C   UNL     1       0.817  -0.543  -1.002  0.00  0.00    +0.120 A 
ATOM     20  C   UNL     1       1.054   0.187  -2.158  0.00  0.00    +0.047 A 
ATOM     21  C   UNL     1       1.512  -0.448  -3.294  0.00  0.00    +0.028 A 
ATOM     22  C   UNL     1       1.736  -1.819  -3.281  0.00  0.00    +0.049 A 
ATOM     23  C   UNL     1       1.499  -2.550  -2.122  0.00  0.00    +0.028 A 
ATOM     24  C   UNL     1       1.046  -1.912  -0.986  0.00  0.00    +0.047 A 
BRANCH  19  26
ATOM     25  C   UNL     1       0.152   1.494   0.029  0.00  0.00    +0.277 C 
ATOM     26  O   UNL     1       0.366   0.083   0.117  0.00  0.00    -0.495 OA
ENDBRANCH  19  26
ENDBRANCH  17  22
ENDBRANCH   1  17
TORSDOF 4
