REMARK  Name = ZINC04071972
REMARK  8 active torsions:
REMARK  status: ('A' for Active; 'I' for Inactive)
REMARK    1  A    between atoms: C_1  and  C_2
REMARK    2  A    between atoms: C_2  and  O_3
REMARK    3  A    between atoms: O_3  and  C_4
REMARK    4  A    between atoms: C_4  and  C_6
REMARK    5  A    between atoms: C_9  and  N_12
REMARK    6  A    between atoms: N_15  and  C_16
REMARK    7  A    between atoms: C_17  and  C_27
REMARK    8  A    between atoms: C_23  and  C_26
REMARK                            x       y       z     vdW  Elec       q    Type
REMARK                         _______ _______ _______ _____ _____    ______ ____
ROOT
ATOM      1  N   UNL     1      -4.936   3.964   0.049  0.00  0.00    -0.269 N 
ATOM      2  C   UNL     1      -4.956   5.307   0.158  0.00  0.00    +0.308 C 
ATOM      3  O   UNL     1      -3.914   5.933   0.157  0.00  0.00    -0.252 OA
ATOM      4  N   UNL     1      -6.132   5.957   0.269  0.00  0.00    -0.263 N 
ATOM      5  H   UNL     1      -5.768   3.471  -0.028  0.00  0.00    +0.156 HD
ATOM      6  H   UNL     1      -6.963   5.458   0.270  0.00  0.00    +0.157 HD
ENDROOT
BRANCH   4   7
ATOM      7  C   UNL     1      -6.152   7.338   0.382  0.00  0.00    +0.086 A 
ATOM      8  C   UNL     1      -7.251   8.178   0.499  0.00  0.00    +0.068 A 
ATOM      9  C   UNL     1      -6.998   9.605   0.606  0.00  0.00    -0.023 A 
ATOM     10  C   UNL     1      -5.696   9.962   0.570  0.00  0.00    -0.004 A 
ATOM     11  S   UNL     1      -4.812   8.437   0.403  0.00  0.00    -0.077 S 
ATOM     12  C   UNL     1      -5.137  11.349   0.653  0.00  0.00    +0.043 C 
ATOM     13  C   UNL     1      -6.280  12.346   0.411  0.00  0.00    +0.009 C 
ATOM     14  C   UNL     1      -7.476  11.946   1.279  0.00  0.00    -0.009 C 
ATOM     15  C   UNL     1      -8.095  10.652   0.747  0.00  0.00    +0.040 C 
ATOM     16  C   UNL     1      -8.524  13.060   1.245  0.00  0.00    +0.008 C 
BRANCH   8  17
ATOM     17  C   UNL     1      -8.617   7.645   0.517  0.00  0.00    +0.244 C 
ATOM     18  O   UNL     1      -9.137   7.339   1.574  0.00  0.00    -0.270 OA
ATOM     19  N   UNL     1      -9.296   7.493  -0.637  0.00  0.00    -0.325 N 
ATOM     20  H   UNL     1      -8.881   7.737  -1.480  0.00  0.00    +0.145 HD
ATOM     21  H   UNL     1     -10.199   7.140  -0.626  0.00  0.00    +0.145 HD
ENDBRANCH   8  17
ENDBRANCH   4   7
BRANCH   1  25
ATOM     22  C   UNL     1      -1.302   1.929   0.039  0.00  0.00    +0.059 A 
ATOM     23  C   UNL     1      -2.374   1.453  -0.723  0.00  0.00    +0.017 A 
ATOM     24  C   UNL     1      -3.575   2.125  -0.713  0.00  0.00    +0.024 A 
ATOM     25  C   UNL     1      -3.720   3.283   0.045  0.00  0.00    +0.035 A 
ATOM     26  C   UNL     1      -2.654   3.763   0.800  0.00  0.00    +0.024 A 
ATOM     27  C   UNL     1      -1.452   3.093   0.799  0.00  0.00    +0.017 A 
BRANCH  22  28
ATOM     28  C   UNL     1      -0.015   1.209   0.035  0.00  0.00    +0.339 C 
ATOM     29  O   UNL     1       0.916   1.627   0.694  0.00  0.00    -0.245 OA
BRANCH  28  30
ATOM     30  O   UNL     1       0.125   0.085  -0.694  0.00  0.00    -0.461 OA
BRANCH  30  32
ATOM     31  C   UNL     1       1.387  -1.824  -1.529  0.00  0.00    +0.048 C 
ATOM     32  C   UNL     1       1.418  -0.575  -0.646  0.00  0.00    +0.229 C 
ENDBRANCH  30  32
ENDBRANCH  28  30
ENDBRANCH  22  28
ENDBRANCH   1  25
TORSDOF 6
