REMARK  Name = ZINC00660110
REMARK  16 active torsions:
REMARK  status: ('A' for Active; 'I' for Inactive)
REMARK    1  A    between atoms: C_1  and  C_2
REMARK    2  A    between atoms: C_2  and  O_3
REMARK    3  A    between atoms: O_3  and  C_4
REMARK    4  A    between atoms: C_4  and  C_6
REMARK    5  A    between atoms: C_7  and  C_37
REMARK    6  A    between atoms: C_9  and  S_25
REMARK    7  A    between atoms: C_10  and  C_23
REMARK    8  A    between atoms: C_11  and  C_13
REMARK    9  A    between atoms: C_16  and  C_19
REMARK   10  A    between atoms: C_19  and  O_21
REMARK   11  A    between atoms: O_21  and  C_22
REMARK   12  A    between atoms: S_25  and  C_26
REMARK   13  A    between atoms: C_26  and  C_27
REMARK   14  A    between atoms: C_27  and  C_29
REMARK   15  A    between atoms: C_32  and  O_35
REMARK   16  A    between atoms: O_35  and  C_36
REMARK                            x       y       z     vdW  Elec       q    Type
REMARK                         _______ _______ _______ _____ _____    ______ ____
ROOT
ATOM      1  C   UNL     1       1.204   1.931  -0.067  0.00  0.00    +0.066 C 
ATOM      2  C   UNL     1       2.361   1.266   0.089  0.00  0.00    +0.016 C 
ATOM      3  N   UNL     1       3.554   1.931   0.144  0.00  0.00    -0.312 N 
ATOM      4  C   UNL     1       3.646   3.228  -0.310  0.00  0.00    +0.080 C 
ATOM      5  C   UNL     1       2.526   3.980  -0.482  0.00  0.00    +0.069 C 
ATOM      6  C   UNL     1       1.163   3.428  -0.182  0.00  0.00    +0.100 C 
ATOM      7  C   UNL     1       2.344  -0.237   0.203  0.00  0.00    +0.061 C 
ATOM      8  H   UNL     1       4.445   1.431   0.553  0.00  0.00    +0.152 HD
ENDROOT
BRANCH   6   9
ATOM      9  C   UNL     1       0.672   4.012   1.118  0.00  0.00    -0.035 A 
ATOM     10  C   UNL     1       1.373   3.775   2.287  0.00  0.00    +0.005 A 
ATOM     11  C   UNL     1       0.932   4.312   3.479  0.00  0.00    +0.015 A 
ATOM     12  C   UNL     1      -0.231   5.085   3.506  0.00  0.00    +0.059 A 
ATOM     13  C   UNL     1      -0.936   5.315   2.323  0.00  0.00    +0.015 A 
ATOM     14  C   UNL     1      -0.480   4.777   1.137  0.00  0.00    +0.005 A 
BRANCH  12  15
ATOM     15  C   UNL     1      -0.712   5.656   4.780  0.00  0.00    +0.339 C 
ATOM     16  O   UNL     1      -1.724   6.328   4.800  0.00  0.00    -0.245 OA
BRANCH  15  17
ATOM     17  O   UNL     1      -0.029   5.433   5.920  0.00  0.00    -0.464 OA
ATOM     18  C   UNL     1      -0.561   6.026   7.134  0.00  0.00    +0.280 C 
ENDBRANCH  15  17
ENDBRANCH  12  15
ENDBRANCH   6   9
BRANCH   1  19
ATOM     19  C   UNL     1      -0.006   1.202  -0.129  0.00  0.00    +0.338 C 
ATOM     20  O   UNL     1      -0.517   0.962  -1.206  0.00  0.00    -0.245 OA
BRANCH  19  21
ATOM     21  O   UNL     1      -0.597   0.778   1.008  0.00  0.00    -0.462 OA
BRANCH  21  23
ATOM     22  C   UNL     1      -2.337  -0.343   2.256  0.00  0.00    +0.048 C 
ATOM     23  C   UNL     1      -1.820   0.052   0.871  0.00  0.00    +0.229 C 
ENDBRANCH  21  23
ENDBRANCH  19  21
ENDBRANCH   1  19
BRANCH   5  24
ATOM     24  C   UNL     1       2.648   5.322  -0.965  0.00  0.00    +0.098 C 
ATOM     25  N   UNL     1       2.745   6.388  -1.348  0.00  0.00    -0.191 NA
ENDBRANCH   5  24
BRANCH   4  26
ATOM     26  S   UNL     1       5.226   3.919  -0.671  0.00  0.00    -0.101 S 
BRANCH  26  27
ATOM     27  C   UNL     1       6.285   2.508  -0.267  0.00  0.00    +0.155 C 
BRANCH  27  28
ATOM     28  C   UNL     1       7.727   2.877  -0.506  0.00  0.00    +0.173 C 
ATOM     29  O   UNL     1       8.010   3.985  -0.911  0.00  0.00    -0.291 OA
BRANCH  28  30
ATOM     30  C   UNL     1       8.789   1.895  -0.250  0.00  0.00    +0.018 A 
ATOM     31  C   UNL     1       8.465   0.618   0.222  0.00  0.00    +0.015 A 
ATOM     32  C   UNL     1       9.460  -0.297   0.455  0.00  0.00    +0.046 A 
ATOM     33  C   UNL     1      10.789   0.046   0.233  0.00  0.00    +0.120 A 
ATOM     34  C   UNL     1      11.116   1.316  -0.231  0.00  0.00    +0.046 A 
ATOM     35  C   UNL     1      10.129   2.236  -0.472  0.00  0.00    +0.015 A 
BRANCH  33  36
ATOM     36  O   UNL     1      11.770  -0.861   0.469  0.00  0.00    -0.495 OA
ATOM     37  C   UNL     1      11.364  -2.146   0.945  0.00  0.00    +0.277 C 
ENDBRANCH  33  36
ENDBRANCH  28  30
ENDBRANCH  27  28
ENDBRANCH  26  27
ENDBRANCH   4  26
TORSDOF 12
