REMARK  Name = ZINC63279468
REMARK  6 active torsions:
REMARK  status: ('A' for Active; 'I' for Inactive)
REMARK    1  A    between atoms: C_1  and  C_2
REMARK    2  A    between atoms: C_5  and  C_8
REMARK    3  A    between atoms: C_19  and  C_21
REMARK    4  A    between atoms: N_22  and  C_23
REMARK    5  A    between atoms: C_23  and  C_24
REMARK    6  A    between atoms: C_24  and  C_25
REMARK                            x       y       z     vdW  Elec       q    Type
REMARK                         _______ _______ _______ _____ _____    ______ ____
ROOT
ATOM      1  C   UNL     1       0.059  -4.275  -0.021  0.00  0.00    +0.198 C 
ATOM      2  N   UNL     1      -0.762  -4.785  -1.133  0.00  0.00    -0.295 N 
ATOM      3  C   UNL     1      -1.275  -6.057  -1.057  0.00  0.00    +0.180 C 
ATOM      4  N   UNL     1      -1.313  -6.737   0.045  0.00  0.00    -0.215 NA
ATOM      5  C   UNL     1      -0.780  -6.234   1.305  0.00  0.00    +0.290 C 
ATOM      6  N   UNL     1      -0.544  -4.796   1.220  0.00  0.00    -0.238 N 
ATOM      7  C   UNL     1      -0.864  -3.958   2.216  0.00  0.00    +0.245 C 
ATOM      8  O   UNL     1      -0.516  -2.792   2.159  0.00  0.00    -0.270 OA
ATOM      9  C   UNL     1      -1.602  -4.415   3.331  0.00  0.00    +0.085 C 
ATOM     10  C   UNL     1      -1.978  -5.707   3.400  0.00  0.00    +0.008 C 
ATOM     11  N   UNL     1      -1.642  -6.573   2.422  0.00  0.00    -0.311 N 
ATOM     12  C   UNL     1      -2.801  -6.179   4.570  0.00  0.00    +0.060 C 
ATOM     13  N   UNL     1      -1.771  -6.635  -2.202  0.00  0.00    -0.317 N 
ATOM     14  H   UNL     1      -1.986  -7.478   2.485  0.00  0.00    +0.149 HD
ATOM     15  H   UNL     1      -1.753  -6.145  -3.039  0.00  0.00    +0.149 HD
ATOM     16  H   UNL     1      -0.939  -4.230  -1.908  0.00  0.00    +0.151 HD
ENDROOT
BRANCH   1  21
ATOM     17  C   UNL     1      -0.015   1.503   0.007  0.00  0.00    +0.044 C 
ATOM     18  C   UNL     1       0.005  -0.004  -0.000  0.00  0.00    -0.050 A 
ATOM     19  C   UNL     1       1.204  -0.680   0.116  0.00  0.00    +0.004 A 
ATOM     20  C   UNL     1       1.222  -2.063   0.109  0.00  0.00    +0.007 A 
ATOM     21  C   UNL     1       0.040  -2.768  -0.013  0.00  0.00    -0.009 A 
ATOM     22  C   UNL     1      -1.160  -2.092  -0.129  0.00  0.00    +0.007 A 
ATOM     23  C   UNL     1      -1.178  -0.710  -0.118  0.00  0.00    +0.004 A 
ENDBRANCH   1  21
BRANCH  13  24
ATOM     24  C   UNL     1      -2.325  -7.990  -2.158  0.00  0.00    +0.108 C 
BRANCH  24  25
ATOM     25  C   UNL     1      -2.804  -8.391  -3.554  0.00  0.00    +0.052 C 
BRANCH  25  26
ATOM     26  C   UNL     1      -3.374  -9.785  -3.509  0.00  0.00    -0.040 C 
ATOM     27  C   UNL     1      -4.675 -10.127  -3.365  0.00  0.00    -0.001 A 
ATOM     28  C   UNL     1      -5.901  -9.334  -3.213  0.00  0.00    +0.010 A 
ATOM     29  C   UNL     1      -7.085  -9.975  -3.086  0.00  0.00    +0.001 A 
ATOM     30  C   UNL     1      -7.171 -11.373  -3.096  0.00  0.00    +0.002 A 
ATOM     31  C   UNL     1      -6.089 -12.170  -3.232  0.00  0.00    +0.026 A 
ATOM     32  C   UNL     1      -4.793 -11.602  -3.374  0.00  0.00    +0.043 A 
ATOM     33  N   UNL     1      -3.611 -12.151  -3.517  0.00  0.00    -0.380 N 
ATOM     34  C   UNL     1      -2.609 -11.085  -3.622  0.00  0.00    +0.144 C 
ATOM     35  H   UNL     1      -3.429 -13.104  -3.551  0.00  0.00    +0.160 HD
ENDBRANCH  25  26
ENDBRANCH  24  25
ENDBRANCH  13  24
TORSDOF 4
