REMARK  Name = ZINC59248871
REMARK  8 active torsions:
REMARK  status: ('A' for Active; 'I' for Inactive)
REMARK    1  A    between atoms: C_1  and  C_2
REMARK    2  A    between atoms: C_5  and  N_8
REMARK    3  A    between atoms: C_9  and  C_11
REMARK    4  A    between atoms: C_15  and  N_16
REMARK    5  A    between atoms: C_17  and  C_28
REMARK    6  A    between atoms: C_19  and  C_22
REMARK    7  A    between atoms: C_20  and  C_21
REMARK    8  A    between atoms: N_23  and  N_24
REMARK                            x       y       z     vdW  Elec       q    Type
REMARK                         _______ _______ _______ _____ _____    ______ ____
ROOT
ATOM      1  C   UNL     1       0.181  -5.995   0.145  0.00  0.00    +0.072 A 
ATOM      2  C   UNL     1       1.572  -6.406   0.204  0.00  0.00    -0.023 A 
ATOM      3  C   UNL     1       1.786  -7.534   0.915  0.00  0.00    -0.004 A 
ATOM      4  S   UNL     1       0.181  -8.019   1.479  0.00  0.00    -0.075 S 
ATOM      5  C   UNL     1      -0.742  -6.785   0.812  0.00  0.00    +0.097 A 
ATOM      6  C   UNL     1       3.100  -8.209   1.158  0.00  0.00    +0.043 C 
ATOM      7  C   UNL     1       4.125  -7.640   0.166  0.00  0.00    +0.005 C 
ATOM      8  C   UNL     1       4.034  -6.112   0.182  0.00  0.00    +0.005 C 
ATOM      9  C   UNL     1       2.721  -5.661  -0.461  0.00  0.00    +0.037 C 
ENDROOT
BRANCH   5  10
ATOM     10  N   UNL     1      -2.116  -6.599   0.905  0.00  0.00    -0.311 N 
ATOM     11  C   UNL     1      -3.038  -7.106   0.033  0.00  0.00    +0.022 A 
ATOM     12  C   UNL     1      -4.266  -6.729   0.429  0.00  0.00    +0.032 A 
ATOM     13  C   UNL     1      -4.087  -5.924   1.642  0.00  0.00    +0.016 A 
ATOM     14  C   UNL     1      -2.744  -5.888   1.883  0.00  0.00    +0.030 A 
ATOM     15  C   UNL     1      -2.072  -5.181   3.032  0.00  0.00    +0.064 C 
ATOM     16  C   UNL     1      -2.728  -7.952  -1.176  0.00  0.00    +0.064 C 
BRANCH  13  17
ATOM     17  C   UNL     1      -5.147  -5.287   2.445  0.00  0.00    +0.140 C 
ATOM     18  N   UNL     1      -4.837  -4.600   3.501  0.00  0.00    -0.186 NA
BRANCH  18  19
ATOM     19  N   UNL     1      -5.844  -3.994   4.263  0.00  0.00    -0.191 N 
ATOM     20  C   UNL     1      -5.522  -3.280   5.360  0.00  0.00    +0.317 C 
ATOM     21  O   UNL     1      -6.396  -2.755   6.022  0.00  0.00    -0.251 OA
ATOM     22  N   UNL     1      -4.231  -3.149   5.724  0.00  0.00    -0.312 N 
ATOM     23  H   UNL     1      -6.773  -4.088   4.002  0.00  0.00    +0.179 HD
ATOM     24  H   UNL     1      -3.533  -3.569   5.196  0.00  0.00    +0.147 HD
ATOM     25  H   UNL     1      -3.998  -2.636   6.513  0.00  0.00    +0.147 HD
ENDBRANCH  18  19
ENDBRANCH  13  17
ENDBRANCH   5  10
BRANCH   1  27
ATOM     26  N   UNL     1      -0.560  -4.875  -1.890  0.00  0.00    -0.281 N 
ATOM     27  C   UNL     1      -0.230  -4.792  -0.586  0.00  0.00    +0.251 C 
ATOM     28  O   UNL     1      -0.273  -3.718  -0.015  0.00  0.00    -0.270 OA
ATOM     29  H   UNL     1      -0.562  -5.736  -2.336  0.00  0.00    +0.155 HD
BRANCH  26  34
ATOM     30  C   UNL     1      -1.938  -0.187  -4.772  0.00  0.00    +0.044 C 
ATOM     31  C   UNL     1      -1.572  -1.433  -4.006  0.00  0.00    -0.050 A 
ATOM     32  C   UNL     1      -0.874  -2.448  -4.634  0.00  0.00    +0.005 A 
ATOM     33  C   UNL     1      -0.536  -3.590  -3.935  0.00  0.00    +0.023 A 
ATOM     34  C   UNL     1      -0.900  -3.719  -2.601  0.00  0.00    +0.034 A 
ATOM     35  C   UNL     1      -1.601  -2.697  -1.974  0.00  0.00    +0.023 A 
ATOM     36  C   UNL     1      -1.931  -1.555  -2.676  0.00  0.00    +0.005 A 
ENDBRANCH  26  34
ENDBRANCH   1  27
TORSDOF 5
