REMARK  Name = ZINC42575530
REMARK  6 active torsions:
REMARK  status: ('A' for Active; 'I' for Inactive)
REMARK    1  A    between atoms: C_1  and  C_2
REMARK    2  A    between atoms: C_2  and  C_4
REMARK    3  A    between atoms: C_2  and  N_8
REMARK    4  A    between atoms: N_6  and  C_7
REMARK    5  A    between atoms: C_13  and  O_21
REMARK    6  A    between atoms: C_16  and  C_18
REMARK                            x       y       z     vdW  Elec       q    Type
REMARK                         _______ _______ _______ _____ _____    ______ ____
ROOT
ATOM      1  N   UNL     1      -1.372  -0.511   0.012  0.00  0.00    -0.288 N 
ATOM      2  C   UNL     1      -2.029  -0.655   1.181  0.00  0.00    +0.304 C 
ATOM      3  O   UNL     1      -1.480  -0.364   2.226  0.00  0.00    -0.253 OA
ATOM      4  N   UNL     1      -3.293  -1.122   1.190  0.00  0.00    -0.269 N 
ATOM      5  C   UNL     1      -4.072  -1.517   0.003  0.00  0.00    +0.141 C 
ATOM      6  C   UNL     1      -5.129  -2.515   0.536  0.00  0.00    +0.134 C 
ATOM      7  C   UNL     1      -5.477  -1.894   1.915  0.00  0.00    +0.067 C 
ATOM      8  C   UNL     1      -4.122  -1.327   2.387  0.00  0.00    +0.193 C 
ATOM      9  H   UNL     1      -1.810  -0.743  -0.822  0.00  0.00    +0.151 HD
ENDROOT
BRANCH   8  10
ATOM     10  C   UNL     1      -4.337  -0.013   3.093  0.00  0.00    +0.376 C 
ATOM     11  O   UNL     1      -3.982   1.028   2.566  0.00  0.00    -0.244 OA
ATOM     12  O   UNL     1      -4.867   0.010   4.191  0.00  0.00    -0.244 OA
ENDBRANCH   8  10
BRANCH   1  14
ATOM     13  C   UNL     1      -0.019   1.526   0.010  0.00  0.00    +0.038 C 
ATOM     14  C   UNL     1       0.002  -0.004   0.002  0.00  0.00    +0.157 C 
BRANCH  14  15
ATOM     15  C   UNL     1       0.707  -0.490  -1.238  0.00  0.00    +0.233 C 
ATOM     16  O   UNL     1       0.120  -1.191  -2.034  0.00  0.00    -0.274 OA
ATOM     17  N   UNL     1       1.991  -0.146  -1.462  0.00  0.00    -0.317 N 
ATOM     18  C   UNL     1       2.677  -0.618  -2.667  0.00  0.00    +0.128 C 
ATOM     19  H   UNL     1       2.461   0.415  -0.825  0.00  0.00    +0.148 HD
ENDBRANCH  14  15
ENDBRANCH   1  14
BRANCH   6  20
ATOM     20  O   UNL     1      -4.570  -3.821   0.688  0.00  0.00    -0.390 OA
ATOM     21  H   UNL     1      -4.248  -4.210  -0.137  0.00  0.00    +0.210 HD
ENDBRANCH   6  20
TORSDOF 4
