REMARK  Name = ZINC14457253
REMARK  9 active torsions:
REMARK  status: ('A' for Active; 'I' for Inactive)
REMARK    1  A    between atoms: C_1  and  C_2
REMARK    2  A    between atoms: C_6  and  C_37
REMARK    3  A    between atoms: C_7  and  N_8
REMARK    4  A    between atoms: N_8  and  S_9
REMARK    5  A    between atoms: S_9  and  C_12
REMARK    6  A    between atoms: C_25  and  C_28
REMARK    7  A    between atoms: C_31  and  O_35
REMARK    8  A    between atoms: C_32  and  O_34
REMARK    9  A    between atoms: O_35  and  C_36
REMARK                            x       y       z     vdW  Elec       q    Type
REMARK                         _______ _______ _______ _____ _____    ______ ____
ROOT
ATOM      1  C   UNL     1       7.864   3.738   0.341  0.00  0.00    +0.109 A 
ATOM      2  C   UNL     1       7.100   4.866   0.579  0.00  0.00    +0.030 A 
ATOM      3  C   UNL     1       5.726   4.770   0.653  0.00  0.00    +0.025 A 
ATOM      4  C   UNL     1       5.099   3.541   0.488  0.00  0.00    +0.031 A 
ATOM      5  C   UNL     1       5.877   2.406   0.234  0.00  0.00    -0.018 A 
ATOM      6  C   UNL     1       7.250   2.511   0.169  0.00  0.00    +0.034 A 
ATOM      7  C   UNL     1       5.169   1.123   0.035  0.00  0.00    +0.049 C 
ATOM      8  C   UNL     1       5.804  -0.183   0.345  0.00  0.00    -0.023 C 
ATOM      9  C   UNL     1       4.859  -1.035   0.724  0.00  0.00    -0.030 C 
ATOM     10  C   UNL     1       3.497  -0.337   0.728  0.00  0.00    +0.033 C 
ATOM     11  C   UNL     1       3.917   1.117   0.962  0.00  0.00    +0.029 C 
ATOM     12  C   UNL     1       2.992   2.182   0.398  0.00  0.00    +0.105 C 
ATOM     13  N   UNL     1       3.704   3.465   0.581  0.00  0.00    -0.336 N 
ATOM     14  H   UNL     1       3.195   4.269   0.770  0.00  0.00    +0.147 HD
ENDROOT
BRANCH  12  15
ATOM     15  C   UNL     1       2.740   1.930  -1.066  0.00  0.00    -0.023 A 
ATOM     16  C   UNL     1       3.560   2.509  -2.016  0.00  0.00    +0.009 A 
ATOM     17  C   UNL     1       3.333   2.282  -3.361  0.00  0.00    +0.050 A 
ATOM     18  C   UNL     1       2.281   1.472  -3.759  0.00  0.00    +0.161 A 
ATOM     19  C   UNL     1       1.456   0.889  -2.802  0.00  0.00    +0.159 A 
ATOM     20  C   UNL     1       1.686   1.125  -1.456  0.00  0.00    +0.054 A 
BRANCH  19  21
ATOM     21  O   UNL     1       0.422   0.093  -3.187  0.00  0.00    -0.503 OA
ATOM     22  H   UNL     1       0.655  -0.842  -3.270  0.00  0.00    +0.292 HD
ENDBRANCH  19  21
BRANCH  18  23
ATOM     23  O   UNL     1       2.055   1.248  -5.081  0.00  0.00    -0.491 OA
ATOM     24  C   UNL     1       2.943   1.880  -6.006  0.00  0.00    +0.277 C 
ENDBRANCH  18  23
ENDBRANCH  12  15
BRANCH   1  25
ATOM     25  S   UNL     1       9.620   3.864   0.256  0.00  0.00    +0.072 S 
ATOM     26  O   UNL     1       9.989   4.958   1.084  0.00  0.00    -0.150 OA
ATOM     27  O   UNL     1      10.131   2.553   0.453  0.00  0.00    -0.150 OA
BRANCH  25  28
ATOM     28  N   UNL     1      10.005   4.294  -1.296  0.00  0.00    -0.216 N 
ATOM     29  H   UNL     1      10.466   3.665  -1.873  0.00  0.00    +0.174 HD
BRANCH  28  36
ATOM     30  C   UNL     1       7.822   4.508  -3.107  0.00  0.00    +0.046 C 
ATOM     31  C   UNL     1       8.608   5.713  -2.660  0.00  0.00    -0.028 A 
ATOM     32  C   UNL     1       8.274   6.970  -3.126  0.00  0.00    +0.005 A 
ATOM     33  C   UNL     1       8.999   8.075  -2.720  0.00  0.00    +0.001 A 
ATOM     34  C   UNL     1      10.057   7.928  -1.843  0.00  0.00    +0.005 A 
ATOM     35  C   UNL     1      10.394   6.675  -1.368  0.00  0.00    -0.028 A 
ATOM     36  C   UNL     1       9.668   5.562  -1.774  0.00  0.00    +0.054 A 
ATOM     37  C   UNL     1      11.547   6.516  -0.412  0.00  0.00    +0.046 C 
ENDBRANCH  28  36
ENDBRANCH  25  28
ENDBRANCH   1  25
TORSDOF 6
