REMARK  Name = ZINC61094295
REMARK  3 active torsions:
REMARK  status: ('A' for Active; 'I' for Inactive)
REMARK    1  A    between atoms: C_6  and  S_7
REMARK    2  A    between atoms: S_7  and  N_10
REMARK    3  A    between atoms: N_10  and  C_11
REMARK                            x       y       z     vdW  Elec       q    Type
REMARK                         _______ _______ _______ _____ _____    ______ ____
ROOT
ATOM      1  S   UNL     1      -1.505  -0.917   0.012  0.00  0.00    +0.095 S 
ATOM      2  O   UNL     1      -1.378  -1.899   1.031  0.00  0.00    -0.148 OA
ATOM      3  O   UNL     1      -2.558   0.037   0.001  0.00  0.00    -0.148 OA
ENDROOT
BRANCH   1   9
ATOM      4  C   UNL     1      -0.017   1.381   0.010  0.00  0.00    +0.048 A 
ATOM      5  C   UNL     1       1.195   2.059   0.002  0.00  0.00    +0.038 A 
ATOM      6  C   UNL     1       2.372   1.334  -0.013  0.00  0.00    +0.127 A 
ATOM      7  N   UNL     1       2.352   0.015  -0.020  0.00  0.00    -0.240 NA
ATOM      8  C   UNL     1       1.220  -0.662  -0.013  0.00  0.00    +0.156 A 
ATOM      9  C   UNL     1       0.002  -0.004   0.002  0.00  0.00    +0.148 A 
ATOM     10 CL   UNL     1       1.257  -2.397  -0.023  0.00  0.00    -0.060 Cl
ATOM     11 BR   UNL     1       1.235   3.949   0.011  0.00  0.00    -0.049 Br
ENDBRANCH   1   9
BRANCH   1  12
ATOM     12  N   UNL     1      -1.592  -1.735  -1.425  0.00  0.00    -0.095 NA
BRANCH  12  13
ATOM     13  C   UNL     1      -2.694  -2.552  -1.700  0.00  0.00    +0.112 A 
ATOM     14  C   UNL     1      -3.718  -2.674  -0.770  0.00  0.00    +0.071 A 
ATOM     15  C   UNL     1      -4.806  -3.483  -1.044  0.00  0.00    +0.160 A 
ATOM     16  C   UNL     1      -4.875  -4.171  -2.245  0.00  0.00    +0.161 A 
ATOM     17  C   UNL     1      -3.855  -4.052  -3.173  0.00  0.00    +0.081 A 
ATOM     18  C   UNL     1      -2.768  -3.239  -2.906  0.00  0.00    +0.151 A 
ATOM     19  F   UNL     1      -1.776  -3.118  -3.815  0.00  0.00    -0.203 F 
ATOM     20  F   UNL     1      -5.939  -4.961  -2.510  0.00  0.00    -0.202 F 
ATOM     21  F   UNL     1      -5.803  -3.602  -0.139  0.00  0.00    -0.202 F 
ENDBRANCH  12  13
ENDBRANCH   1  12
TORSDOF 3
