REMARK  Name = ZINC66044056
REMARK  4 active torsions:
REMARK  status: ('A' for Active; 'I' for Inactive)
REMARK    1  A    between atoms: C_3  and  C_9
REMARK    2  A    between atoms: C_4  and  O_8
REMARK    3  A    between atoms: N_11  and  C_12
REMARK    4  A    between atoms: C_12  and  C_13
REMARK                            x       y       z     vdW  Elec       q    Type
REMARK                         _______ _______ _______ _____ _____    ______ ____
ROOT
ATOM      1  C   UNL     1       3.652   2.171  -0.022  0.00  0.00    +0.248 C 
ATOM      2  O   UNL     1       4.713   1.578  -0.035  0.00  0.00    -0.270 OA
ATOM      3  N   UNL     1       3.633   3.518  -0.015  0.00  0.00    -0.306 N 
ATOM      4  H   UNL     1       2.786   3.992  -0.004  0.00  0.00    +0.149 HD
ENDROOT
BRANCH   1   7
ATOM      5  C   UNL     1      -0.017   1.382   0.010  0.00  0.00    +0.016 A 
ATOM      6  C   UNL     1       1.163   2.093   0.002  0.00  0.00    +0.018 A 
ATOM      7  C   UNL     1       2.385   1.415  -0.013  0.00  0.00    +0.078 A 
ATOM      8  C   UNL     1       2.400   0.014  -0.021  0.00  0.00    +0.130 A 
ATOM      9  C   UNL     1       1.204  -0.686  -0.013  0.00  0.00    +0.061 A 
ATOM     10  C   UNL     1       0.002  -0.004   0.002  0.00  0.00    +0.021 A 
ATOM     11 BR   UNL     1      -1.626  -0.967   0.012  0.00  0.00    -0.050 Br
BRANCH   8  12
ATOM     12  O   UNL     1       3.581  -0.655  -0.036  0.00  0.00    -0.506 OA
ATOM     13  H   UNL     1       3.932  -0.853   0.843  0.00  0.00    +0.292 HD
ENDBRANCH   8  12
ENDBRANCH   1   7
BRANCH   3  14
ATOM     14  C   UNL     1       4.891   4.269  -0.023  0.00  0.00    +0.161 C 
BRANCH  14  15
ATOM     15  C   UNL     1       4.595   5.746  -0.013  0.00  0.00    +0.078 A 
ATOM     16  C   UNL     1       4.550   6.531   1.076  0.00  0.00    +0.118 A 
ATOM     17  N   UNL     1       4.247   7.823   0.655  0.00  0.00    -0.300 N 
ATOM     18  C   UNL     1       4.054   9.068   1.214  0.00  0.00    +0.100 A 
ATOM     19  C   UNL     1       3.764  10.121   0.450  0.00  0.00    +0.067 A 
ATOM     20  S   UNL     1       3.741   9.397  -1.182  0.00  0.00    -0.058 S 
ATOM     21  C   UNL     1       4.126   7.728  -0.706  0.00  0.00    +0.178 A 
ATOM     22  N   UNL     1       4.338   6.503  -1.091  0.00  0.00    -0.225 NA
ENDBRANCH  14  15
ENDBRANCH   3  14
TORSDOF 4
