REMARK  Name = ZINC06490360
REMARK  6 active torsions:
REMARK  status: ('A' for Active; 'I' for Inactive)
REMARK    1  A    between atoms: C_1  and  C_2
REMARK    2  A    between atoms: C_2  and  N_3
REMARK    3  A    between atoms: C_6  and  C_8
REMARK    4  A    between atoms: C_11  and  C_29
REMARK    5  A    between atoms: C_12  and  C_16
REMARK    6  A    between atoms: C_13  and  C_15
REMARK                            x       y       z     vdW  Elec       q    Type
REMARK                         _______ _______ _______ _____ _____    ______ ____
ROOT
ATOM      1  C   UNL     1      -1.804   4.400   0.854  0.00  0.00    +0.299 C 
ATOM      2  O   UNL     1      -1.241   5.475   0.808  0.00  0.00    -0.263 OA
ATOM      3  N   UNL     1      -3.076   4.287   0.422  0.00  0.00    -0.199 N 
ATOM      4  C   UNL     1      -3.843   5.290  -0.087  0.00  0.00    +0.049 A 
ATOM      5  C   UNL     1      -5.048   4.764  -0.399  0.00  0.00    +0.003 A 
ATOM      6  C   UNL     1      -5.023   3.401  -0.073  0.00  0.00    +0.064 A 
ATOM      7  N   UNL     1      -3.843   3.115   0.412  0.00  0.00    -0.168 NA
ATOM      8  C   UNL     1      -6.160   2.429  -0.257  0.00  0.00    +0.068 C 
ATOM      9  C   UNL     1      -3.425   6.726  -0.270  0.00  0.00    +0.066 C 
ENDROOT
BRANCH   5  10
ATOM     10  C   UNL     1      -6.214   5.511  -0.994  0.00  0.00    -0.000 C 
ATOM     11  C   UNL     1      -7.060   6.114   0.130  0.00  0.00    +0.015 C 
ATOM     12  C   UNL     1      -8.244   6.872  -0.473  0.00  0.00    -0.010 C 
ATOM     13  C   UNL     1      -7.724   7.992  -1.377  0.00  0.00    +0.007 C 
ATOM     14  C   UNL     1      -6.878   7.390  -2.501  0.00  0.00    -0.010 C 
ATOM     15  C   UNL     1      -5.695   6.631  -1.897  0.00  0.00    +0.015 C 
ATOM     16  C   UNL     1      -7.735   6.426  -3.324  0.00  0.00    +0.007 C 
ATOM     17  C   UNL     1      -8.255   5.306  -2.420  0.00  0.00    -0.010 C 
ATOM     18  C   UNL     1      -9.101   5.909  -1.297  0.00  0.00    +0.007 C 
ATOM     19  C   UNL     1      -7.071   4.548  -1.817  0.00  0.00    +0.015 C 
ENDBRANCH   5  10
BRANCH   1  23
ATOM     20  N   UNL     1      -0.698   1.213   1.994  0.00  0.00    -0.271 N 
ATOM     21  C   UNL     1       0.444   1.899   2.247  0.00  0.00    +0.109 A 
ATOM     22  C   UNL     1       0.231   3.182   1.871  0.00  0.00    +0.054 A 
ATOM     23  C   UNL     1      -1.097   3.219   1.384  0.00  0.00    +0.152 A 
ATOM     24  N   UNL     1      -1.582   1.997   1.488  0.00  0.00    -0.166 NA
BRANCH  20  26
ATOM     25  C   UNL     1      -2.126  -0.407   3.142  0.00  0.00    +0.029 C 
ATOM     26  C   UNL     1      -0.894  -0.215   2.255  0.00  0.00    +0.140 C 
ENDBRANCH  20  26
ENDBRANCH   1  23
TORSDOF 3
