REMARK  Name = ZINC39210333
REMARK  5 active torsions:
REMARK  status: ('A' for Active; 'I' for Inactive)
REMARK    1  A    between atoms: C_6  and  C_7
REMARK    2  A    between atoms: C_11  and  C_13
REMARK    3  A    between atoms: C_17  and  C_27
REMARK    4  A    between atoms: C_22  and  N_26
REMARK    5  A    between atoms: C_23  and  C_24
REMARK                            x       y       z     vdW  Elec       q    Type
REMARK                         _______ _______ _______ _____ _____    ______ ____
ROOT
ATOM      1  C   UNL     1      -0.795  -3.097  -1.161  0.00  0.00    +0.067 C 
ATOM      2  C   UNL     1       0.724  -2.932  -1.297  0.00  0.00    +0.137 C 
ATOM      3  C   UNL     1       1.061  -1.654  -2.031  0.00  0.00    +0.083 C 
ATOM      4  N   UNL     1       1.653  -2.016  -3.137  0.00  0.00    -0.150 NA
ATOM      5  N   UNL     1       1.728  -3.403  -3.266  0.00  0.00    -0.115 NA
ATOM      6  C   UNL     1       1.177  -4.021  -2.265  0.00  0.00    +0.227 C 
ATOM      7  O   UNL     1       0.911  -5.324  -2.027  0.00  0.00    -0.425 OA
ATOM      8  C   UNL     1      -0.310  -5.555  -1.481  0.00  0.00    +0.200 C 
ATOM      9  C   UNL     1      -1.124  -4.562  -1.062  0.00  0.00    +0.091 C 
ENDROOT
BRANCH   3  10
ATOM     10  C   UNL     1       0.779  -0.279  -1.588  0.00  0.00    -0.001 A 
ATOM     11  C   UNL     1       0.773   0.033  -0.225  0.00  0.00    +0.011 A 
ATOM     12  C   UNL     1       0.509   1.323   0.183  0.00  0.00    +0.020 A 
ATOM     13  C   UNL     1       0.250   2.310  -0.754  0.00  0.00    +0.041 A 
ATOM     14  C   UNL     1       0.255   2.008  -2.106  0.00  0.00    +0.020 A 
ATOM     15  C   UNL     1       0.523   0.724  -2.529  0.00  0.00    +0.011 A 
ATOM     16 CL   UNL     1      -0.081   3.932  -0.232  0.00  0.00    -0.084 Cl
ENDBRANCH   3  10
BRANCH   1  21
ATOM     17  C   UNL     1      -2.790  -2.401   0.183  0.00  0.00    +0.080 C 
ATOM     18  N   UNL     1      -3.077  -3.058   1.273  0.00  0.00    -0.153 NA
ATOM     19  N   UNL     1      -1.936  -3.481   1.947  0.00  0.00    -0.161 NA
ATOM     20  C   UNL     1      -0.846  -3.130   1.344  0.00  0.00    +0.118 C 
ATOM     21  C   UNL     1      -1.277  -2.378   0.101  0.00  0.00    +0.092 C 
BRANCH  17  27
ATOM     22  C   UNL     1      -5.113  -2.033  -0.627  0.00  0.00    +0.012 A 
ATOM     23  C   UNL     1      -5.997  -1.476  -1.526  0.00  0.00    +0.039 A 
ATOM     24  C   UNL     1      -5.529  -0.695  -2.571  0.00  0.00    +0.123 A 
ATOM     25  C   UNL     1      -4.168  -0.470  -2.721  0.00  0.00    +0.039 A 
ATOM     26  C   UNL     1      -3.273  -1.021  -1.829  0.00  0.00    +0.012 A 
ATOM     27  C   UNL     1      -3.740  -1.809  -0.772  0.00  0.00    -0.001 A 
ATOM     28  F   UNL     1      -6.401  -0.152  -3.449  0.00  0.00    -0.205 F 
ENDBRANCH  17  27
ENDBRANCH   1  21
BRANCH   8  29
ATOM     29  N   UNL     1      -0.737  -6.853  -1.350  0.00  0.00    -0.328 N 
ATOM     30  H   UNL     1      -0.169  -7.582  -1.645  0.00  0.00    +0.145 HD
ATOM     31  H   UNL     1      -1.606  -7.041  -0.963  0.00  0.00    +0.145 HD
ENDBRANCH   8  29
BRANCH   9  32
ATOM     32  C   UNL     1      -2.383  -4.927  -0.485  0.00  0.00    +0.100 C 
ATOM     33  N   UNL     1      -3.382  -5.216  -0.027  0.00  0.00    -0.191 NA
ENDBRANCH   9  32
TORSDOF 5
