REMARK  Name = ZINC35465994
REMARK  11 active torsions:
REMARK  status: ('A' for Active; 'I' for Inactive)
REMARK    1  A    between atoms: C_2  and  C_8
REMARK    2  A    between atoms: C_5  and  O_7
REMARK    3  A    between atoms: C_9  and  C_10
REMARK    4  A    between atoms: N_12  and  C_13
REMARK    5  A    between atoms: C_13  and  C_14
REMARK    6  A    between atoms: C_14  and  C_15
REMARK    7  A    between atoms: C_15  and  C_16
REMARK    8  A    between atoms: C_16  and  N_17
REMARK    9  A    between atoms: C_18  and  C_20
REMARK   10  A    between atoms: C_21  and  C_22
REMARK   11  A    between atoms: C_25  and  O_28
REMARK                            x       y       z     vdW  Elec       q    Type
REMARK                         _______ _______ _______ _____ _____    ______ ____
ROOT
ATOM      1  C   UNL     1       7.437   4.709  -0.989  0.00  0.00    +0.020 C 
ENDROOT
BRANCH   1   2
ATOM      2  C   UNL     1       6.246   3.760  -1.138  0.00  0.00    +0.104 C 
BRANCH   2   5
ATOM      3  C   UNL     1       3.896   3.882  -1.770  0.00  0.00    +0.237 C 
ATOM      4  O   UNL     1       3.815   2.682  -1.588  0.00  0.00    -0.271 OA
ATOM      5  N   UNL     1       5.069   4.516  -1.572  0.00  0.00    -0.312 N 
ATOM      6  H   UNL     1       5.134   5.473  -1.717  0.00  0.00    +0.149 HD
BRANCH   3   8
ATOM      7  C   UNL     1       1.518   4.031  -2.276  0.00  0.00    +0.013 C 
ATOM      8  C   UNL     1       2.721   4.638  -2.203  0.00  0.00    +0.068 C 
BRANCH   7  10
ATOM      9  C   UNL     1       1.727   2.553  -0.287  0.00  0.00    +0.011 A 
ATOM     10  C   UNL     1       1.305   2.738  -1.609  0.00  0.00    -0.025 A 
ATOM     11  C   UNL     1       0.680   1.689  -2.293  0.00  0.00    +0.011 A 
ATOM     12  C   UNL     1       0.483   0.481  -1.664  0.00  0.00    +0.046 A 
ATOM     13  C   UNL     1       0.903   0.302  -0.351  0.00  0.00    +0.117 A 
ATOM     14  C   UNL     1       1.525   1.340   0.333  0.00  0.00    +0.046 A 
BRANCH  13  15
ATOM     15  O   UNL     1       0.706  -0.892   0.265  0.00  0.00    -0.507 OA
ATOM     16  H   UNL     1       1.436  -1.517   0.154  0.00  0.00    +0.292 HD
ENDBRANCH  13  15
ENDBRANCH   7  10
ENDBRANCH   3   8
ENDBRANCH   2   5
ENDBRANCH   1   2
BRANCH   1  17
ATOM     17  C   UNL     1       8.666   3.919  -0.535  0.00  0.00    +0.020 C 
BRANCH  17  18
ATOM     18  C   UNL     1       9.856   4.869  -0.386  0.00  0.00    +0.104 C 
BRANCH  18  19
ATOM     19  N   UNL     1      11.033   4.112   0.048  0.00  0.00    -0.312 N 
ATOM     20  C   UNL     1      12.206   4.746   0.246  0.00  0.00    +0.237 C 
ATOM     21  O   UNL     1      12.287   5.947   0.064  0.00  0.00    -0.271 OA
ATOM     22  H   UNL     1      10.968   3.156   0.193  0.00  0.00    +0.149 HD
BRANCH  20  23
ATOM     23  C   UNL     1      13.381   3.991   0.679  0.00  0.00    +0.068 C 
ATOM     24  C   UNL     1      14.520   4.640   1.001  0.00  0.00    +0.013 C 
BRANCH  24  25
ATOM     25  C   UNL     1      14.498   6.092   1.230  0.00  0.00    -0.025 A 
ATOM     26  C   UNL     1      13.508   6.661   2.039  0.00  0.00    +0.011 A 
ATOM     27  C   UNL     1      13.492   8.021   2.249  0.00  0.00    +0.046 A 
ATOM     28  C   UNL     1      14.458   8.830   1.661  0.00  0.00    +0.117 A 
ATOM     29  C   UNL     1      15.444   8.270   0.857  0.00  0.00    +0.046 A 
ATOM     30  C   UNL     1      15.472   6.910   0.644  0.00  0.00    +0.011 A 
BRANCH  28  31
ATOM     31  O   UNL     1      14.438  10.171   1.871  0.00  0.00    -0.507 OA
ATOM     32  H   UNL     1      14.950  10.456   2.640  0.00  0.00    +0.292 HD
ENDBRANCH  28  31
ENDBRANCH  24  25
ENDBRANCH  20  23
ENDBRANCH  18  19
ENDBRANCH  17  18
ENDBRANCH   1  17
TORSDOF 11
