REMARK  Name = ZINC23282919
REMARK  5 active torsions:
REMARK  status: ('A' for Active; 'I' for Inactive)
REMARK    1  A    between atoms: C_6  and  C_7
REMARK    2  A    between atoms: C_7  and  O_26
REMARK    3  A    between atoms: N_10  and  C_13
REMARK    4  A    between atoms: C_13  and  C_14
REMARK    5  A    between atoms: C_19  and  N_20
REMARK                            x       y       z     vdW  Elec       q    Type
REMARK                         _______ _______ _______ _____ _____    ______ ____
ROOT
ATOM      1  C   UNL     1       4.814   3.715  -3.577  0.00  0.00    +0.088 C 
ATOM      2  C   UNL     1       4.583   5.065  -2.892  0.00  0.00    +0.021 C 
ATOM      3  C   UNL     1       4.199   4.830  -1.429  0.00  0.00    -0.075 C 
ATOM      4  N   UNL     1       2.979   4.015  -1.367  0.00  0.00    +0.383 N 
ATOM      5  C   UNL     1       3.191   2.696  -1.977  0.00  0.00    -0.075 C 
ATOM      6  C   UNL     1       3.545   2.867  -3.456  0.00  0.00    +0.021 C 
ATOM      7  H   UNL     1       2.201   4.531  -1.947  0.00  0.00    -0.081 HD
ENDROOT
BRANCH   1  13
ATOM      8  C   UNL     1       4.608   5.029  -5.697  0.00  0.00    +0.007 A 
ATOM      9  C   UNL     1       4.906   5.236  -7.031  0.00  0.00    +0.015 A 
ATOM     10  C   UNL     1       5.724   4.346  -7.703  0.00  0.00    +0.018 A 
ATOM     11  C   UNL     1       6.247   3.251  -7.038  0.00  0.00    +0.015 A 
ATOM     12  C   UNL     1       5.952   3.048  -5.704  0.00  0.00    +0.007 A 
ATOM     13  C   UNL     1       5.135   3.938  -5.032  0.00  0.00    -0.016 A 
ATOM     14 BR   UNL     1       6.127   4.625  -9.529  0.00  0.00    -0.050 Br
ENDBRANCH   1  13
BRANCH   1  15
ATOM     15  O   UNL     1       5.903   3.039  -2.945  0.00  0.00    -0.384 OA
ATOM     16  H   UNL     1       5.849   2.789  -1.875  0.00  0.00    +0.211 HD
ENDBRANCH   1  15
BRANCH   4  17
ATOM     17  C   UNL     1       2.503   3.885   0.017  0.00  0.00    -0.041 C 
BRANCH  17  18
ATOM     18  C   UNL     1       1.080   3.389   0.014  0.00  0.00    -0.030 A 
ATOM     19  C   UNL     1       0.802   2.088   0.390  0.00  0.00    +0.053 A 
ATOM     20  C   UNL     1      -0.505   1.631   0.389  0.00  0.00    +0.167 A 
ATOM     21  C   UNL     1      -1.538   2.486   0.013  0.00  0.00    +0.168 A 
ATOM     22  C   UNL     1      -1.252   3.786  -0.369  0.00  0.00    +0.082 A 
ATOM     23  C   UNL     1       0.056   4.236  -0.365  0.00  0.00    +0.131 A 
ATOM     24  O   UNL     1      -2.719   1.805   0.090  0.00  0.00    -0.453 OA
ATOM     25  C   UNL     1      -2.359   0.411   0.133  0.00  0.00    +0.466 C 
ATOM     26  O   UNL     1      -1.040   0.416   0.711  0.00  0.00    -0.453 OA
BRANCH  23  27
ATOM     27  N   UNL     1       0.359   5.628  -0.766  0.00  0.00    +0.057 N 
ATOM     28  O   UNL     1      -0.528   6.346  -1.193  0.00  0.00    -0.126 OA
ATOM     29  O   UNL     1       1.495   6.056  -0.670  0.00  0.00    -0.126 OA
ENDBRANCH  23  27
ENDBRANCH  17  18
ENDBRANCH   4  17
TORSDOF 5
