REMARK  Name = ZINC08915505
REMARK  7 active torsions:
REMARK  status: ('A' for Active; 'I' for Inactive)
REMARK    1  A    between atoms: C_4  and  O_7
REMARK    2  A    between atoms: O_7  and  C_8
REMARK    3  A    between atoms: C_12  and  C_14
REMARK    4  A    between atoms: C_16  and  C_28
REMARK    5  A    between atoms: C_18  and  C_23
REMARK    6  A    between atoms: C_18  and  O_27
REMARK    7  A    between atoms: C_28  and  C_30
REMARK                            x       y       z     vdW  Elec       q    Type
REMARK                         _______ _______ _______ _____ _____    ______ ____
ROOT
ATOM      1  C   UNL     1       5.842  -4.914  -0.221  0.00  0.00    +0.120 C 
ATOM      2  C   UNL     1       6.278  -5.684  -1.472  0.00  0.00    +0.145 C 
ATOM      3  C   UNL     1       7.279  -6.767  -1.054  0.00  0.00    +0.243 C 
ATOM      4  N   UNL     1       6.673  -7.610  -0.024  0.00  0.00    -0.264 N 
ATOM      5  C   UNL     1       5.747  -7.127   0.818  0.00  0.00    +0.302 C 
ATOM      6  O   UNL     1       5.282  -7.867   1.663  0.00  0.00    -0.253 OA
ATOM      7  N   UNL     1       5.314  -5.857   0.766  0.00  0.00    -0.292 N 
ATOM      8  H   UNL     1       6.946  -8.538   0.052  0.00  0.00    +0.153 HD
ATOM      9  H   UNL     1       4.637  -5.559   1.393  0.00  0.00    +0.151 HD
ENDROOT
BRANCH   1  14
ATOM     10  C   UNL     1       2.466  -3.400  -0.989  0.00  0.00    +0.129 A 
ATOM     11  C   UNL     1       2.812  -2.086  -1.268  0.00  0.00    +0.046 A 
ATOM     12  C   UNL     1       4.135  -1.693  -1.207  0.00  0.00    +0.004 A 
ATOM     13  C   UNL     1       5.114  -2.609  -0.868  0.00  0.00    +0.006 A 
ATOM     14  C   UNL     1       4.772  -3.919  -0.590  0.00  0.00    -0.023 A 
ATOM     15  C   UNL     1       3.450  -4.315  -0.643  0.00  0.00    +0.051 A 
BRANCH  10  16
ATOM     16  O   UNL     1       1.165  -3.789  -1.048  0.00  0.00    -0.456 OA
BRANCH  16  20
ATOM     17  C   UNL     1      -0.462  -4.550  -4.761  0.00  0.00    +0.000 A 
ATOM     18  C   UNL     1       0.838  -4.090  -4.658  0.00  0.00    +0.004 A 
ATOM     19  C   UNL     1       1.385  -3.834  -3.416  0.00  0.00    +0.046 A 
ATOM     20  C   UNL     1       0.629  -4.039  -2.271  0.00  0.00    +0.128 A 
ATOM     21  C   UNL     1      -0.675  -4.501  -2.376  0.00  0.00    +0.046 A 
ATOM     22  C   UNL     1      -1.218  -4.755  -3.621  0.00  0.00    +0.004 A 
ENDBRANCH  16  20
ENDBRANCH  10  16
ENDBRANCH   1  14
BRANCH   3  23
ATOM     23  C   UNL     1       7.642  -7.624  -2.269  0.00  0.00    +0.436 C 
ATOM     24  F   UNL     1       8.215  -6.815  -3.256  0.00  0.00    -0.166 F 
ATOM     25  F   UNL     1       8.556  -8.611  -1.886  0.00  0.00    -0.166 F 
ATOM     26  F   UNL     1       6.487  -8.229  -2.774  0.00  0.00    -0.166 F 
ENDBRANCH   3  23
BRANCH   3  27
ATOM     27  O   UNL     1       8.459  -6.151  -0.534  0.00  0.00    -0.364 OA
ATOM     28  H   UNL     1       9.138  -6.778  -0.249  0.00  0.00    +0.212 HD
ENDBRANCH   3  27
BRANCH   2  29
ATOM     29  C   UNL     1       5.076  -6.324  -2.117  0.00  0.00    +0.179 C 
ATOM     30  O   UNL     1       4.277  -6.937  -1.438  0.00  0.00    -0.291 OA
BRANCH  29  31
ATOM     31  C   UNL     1       4.878  -6.210  -3.511  0.00  0.00    +0.055 A 
ATOM     32  C   UNL     1       3.844  -6.714  -4.295  0.00  0.00    +0.019 A 
ATOM     33  C   UNL     1       3.926  -6.438  -5.636  0.00  0.00    +0.008 A 
ATOM     34  C   UNL     1       4.976  -5.713  -6.098  0.00  0.00    +0.046 A 
ATOM     35  S   UNL     1       5.883  -5.377  -4.724  0.00  0.00    -0.094 S 
ENDBRANCH  29  31
ENDBRANCH   2  29
TORSDOF 7
