REMARK  Name = ZINC66760138
REMARK  7 active torsions:
REMARK  status: ('A' for Active; 'I' for Inactive)
REMARK    1  A    between atoms: C_1  and  C_2
REMARK    2  A    between atoms: C_2  and  C_29
REMARK    3  A    between atoms: C_5  and  C_23
REMARK    4  A    between atoms: C_9  and  C_11
REMARK    5  A    between atoms: C_11  and  C_12
REMARK    6  A    between atoms: C_12  and  C_14
REMARK    7  A    between atoms: C_12  and  N_19
REMARK                            x       y       z     vdW  Elec       q    Type
REMARK                         _______ _______ _______ _____ _____    ______ ____
ROOT
ATOM      1  C   UNL     1      -0.027   1.526   0.018  0.00  0.00    +0.034 C 
ATOM      2  C   UNL     1      -0.002  -0.003   0.006  0.00  0.00    +0.055 C 
ATOM      3  C   UNL     1      -1.427  -0.544   0.172  0.00  0.00    +0.186 C 
ATOM      4  O   UNL     1      -1.375  -1.962   0.345  0.00  0.00    -0.368 OA
ATOM      5  C   UNL     1      -0.676  -2.383   1.519  0.00  0.00    +0.166 C 
ATOM      6  C   UNL     1       0.787  -1.936   1.422  0.00  0.00    +0.144 C 
ATOM      7  N   UNL     1       0.814  -0.495   1.127  0.00  0.00    -0.291 N 
ATOM      8  C   UNL     1       1.565   0.350   1.861  0.00  0.00    +0.218 C 
ATOM      9  O   UNL     1       1.508   1.544   1.658  0.00  0.00    -0.276 OA
ATOM     10  C   UNL     1       0.587  -0.498  -1.317  0.00  0.00    +0.034 C 
ENDROOT
BRANCH   5  11
ATOM     11  C   UNL     1      -0.739  -3.884   1.631  0.00  0.00    -0.017 A 
ATOM     12  C   UNL     1      -0.602  -4.668   0.501  0.00  0.00    +0.006 A 
ATOM     13  C   UNL     1      -0.659  -6.045   0.604  0.00  0.00    +0.000 A 
ATOM     14  C   UNL     1      -0.854  -6.639   1.838  0.00  0.00    +0.000 A 
ATOM     15  C   UNL     1      -0.990  -5.855   2.968  0.00  0.00    +0.000 A 
ATOM     16  C   UNL     1      -0.928  -4.478   2.866  0.00  0.00    +0.006 A 
ENDBRANCH   5  11
BRANCH   8  17
ATOM     17  C   UNL     1       2.474  -0.189   2.935  0.00  0.00    +0.123 C 
BRANCH  17  18
ATOM     18  C   UNL     1       3.207   0.970   3.613  0.00  0.00    +0.120 C 
BRANCH  18  19
ATOM     19  N   UNL     1       2.238   1.816   4.314  0.00  0.00    -0.292 N 
ATOM     20  C   UNL     1       2.521   3.113   4.548  0.00  0.00    +0.298 C 
ATOM     21  O   UNL     1       3.580   3.581   4.177  0.00  0.00    -0.253 OA
ATOM     22  N   UNL     1       1.630   3.892   5.194  0.00  0.00    -0.313 N 
ATOM     23  H   UNL     1       1.393   1.443   4.611  0.00  0.00    +0.151 HD
ATOM     24  H   UNL     1       0.785   3.518   5.490  0.00  0.00    +0.146 HD
ATOM     25  H   UNL     1       1.833   4.825   5.362  0.00  0.00    +0.146 HD
ENDBRANCH  18  19
BRANCH  18  26
ATOM     26  C   UNL     1       4.205   0.425   4.601  0.00  0.00    +0.010 A 
ATOM     27  C   UNL     1       5.545   0.269   4.463  0.00  0.00    +0.013 A 
ATOM     28  C   UNL     1       6.270  -0.258   5.514  0.00  0.00    +0.008 A 
ATOM     29  C   UNL     1       5.621  -0.604   6.653  0.00  0.00    +0.045 A 
ATOM     30  S   UNL     1       3.933  -0.177   6.259  0.00  0.00    -0.100 S 
ENDBRANCH  18  26
ENDBRANCH  17  18
ENDBRANCH   8  17
TORSDOF 5
