REMARK  Name = ZINC59384257
REMARK  11 active torsions:
REMARK  status: ('A' for Active; 'I' for Inactive)
REMARK    1  A    between atoms: C_1  and  C_2
REMARK    2  A    between atoms: C_3  and  C_19
REMARK    3  A    between atoms: C_4  and  C_10
REMARK    4  A    between atoms: C_13  and  O_18
REMARK    5  A    between atoms: C_14  and  O_16
REMARK    6  A    between atoms: O_16  and  C_17
REMARK    7  A    between atoms: N_21  and  N_22
REMARK    8  A    between atoms: C_23  and  C_24
REMARK    9  A    between atoms: C_27  and  N_30
REMARK   10  A    between atoms: N_30  and  C_31
REMARK   11  A    between atoms: N_30  and  C_32
REMARK                            x       y       z     vdW  Elec       q    Type
REMARK                         _______ _______ _______ _____ _____    ______ ____
ROOT
ATOM      1  C   UNL     1      -0.410   1.069  -0.667  0.00  0.00    +0.061 C 
ATOM      2  C   UNL     1      -0.014  -0.357  -0.381  0.00  0.00    +0.017 C 
ATOM      3  C   UNL     1      -0.970  -1.272  -0.115  0.00  0.00    +0.057 C 
ATOM      4  C   UNL     1      -0.528  -2.693   0.168  0.00  0.00    +0.139 C 
ATOM      5  N   UNL     1       0.919  -2.962   0.129  0.00  0.00    -0.315 N 
ATOM      6  C   UNL     1       1.754  -1.941  -0.152  0.00  0.00    +0.135 C 
ATOM      7  S   UNL     1       3.439  -2.239  -0.201  0.00  0.00    -0.019 S 
ATOM      8  N   UNL     1       1.307  -0.703  -0.400  0.00  0.00    -0.300 N 
ATOM      9  H   UNL     1       1.264  -3.852   0.301  0.00  0.00    +0.149 HD
ATOM     10  H   UNL     1       1.959  -0.013  -0.599  0.00  0.00    +0.154 HD
ENDROOT
BRANCH   4  11
ATOM     11  C   UNL     1      -1.034  -3.074   1.535  0.00  0.00    -0.019 A 
ATOM     12  C   UNL     1      -2.051  -4.002   1.660  0.00  0.00    +0.009 A 
ATOM     13  C   UNL     1      -2.519  -4.355   2.913  0.00  0.00    +0.049 A 
ATOM     14  C   UNL     1      -1.967  -3.778   4.046  0.00  0.00    +0.158 A 
ATOM     15  C   UNL     1      -0.943  -2.845   3.920  0.00  0.00    +0.162 A 
ATOM     16  C   UNL     1      -0.476  -2.499   2.662  0.00  0.00    +0.055 A 
BRANCH  15  17
ATOM     17  O   UNL     1      -0.398  -2.277   5.029  0.00  0.00    -0.491 OA
ATOM     18  C   UNL     1       0.569  -1.246   4.821  0.00  0.00    +0.277 C 
ENDBRANCH  15  17
BRANCH  14  19
ATOM     19  O   UNL     1      -2.426  -4.124   5.278  0.00  0.00    -0.503 OA
ATOM     20  H   UNL     1      -1.962  -4.874   5.675  0.00  0.00    +0.292 HD
ENDBRANCH  14  19
ENDBRANCH   4  11
BRANCH   3  21
ATOM     21  C   UNL     1      -2.341  -0.915  -0.100  0.00  0.00    +0.263 C 
ATOM     22  O   UNL     1      -2.667   0.254  -0.206  0.00  0.00    -0.269 OA
ATOM     23  N   UNL     1      -3.284  -1.868   0.031  0.00  0.00    -0.203 N 
ATOM     24  H   UNL     1      -3.024  -2.790   0.183  0.00  0.00    +0.178 HD
BRANCH  23  25
ATOM     25  N   UNL     1      -4.641  -1.528  -0.051  0.00  0.00    -0.187 NA
ATOM     26  C   UNL     1      -5.550  -2.427   0.171  0.00  0.00    +0.138 C 
BRANCH  26  27
ATOM     27  C   UNL     1      -6.974  -2.099  -0.023  0.00  0.00    -0.005 A 
ATOM     28  C   UNL     1      -7.346  -0.822  -0.453  0.00  0.00    +0.011 A 
ATOM     29  C   UNL     1      -8.678  -0.519  -0.634  0.00  0.00    +0.024 A 
ATOM     30  C   UNL     1      -9.651  -1.482  -0.390  0.00  0.00    +0.029 A 
ATOM     31  C   UNL     1      -9.284  -2.754   0.038  0.00  0.00    +0.024 A 
ATOM     32  C   UNL     1      -7.955  -3.065   0.216  0.00  0.00    +0.011 A 
BRANCH  30  33
ATOM     33  N   UNL     1     -10.998  -1.171  -0.573  0.00  0.00    -0.336 N 
ATOM     34  C   UNL     1     -11.380   0.121  -1.148  0.00  0.00    +0.129 C 
ATOM     35  C   UNL     1     -12.032  -2.137  -0.191  0.00  0.00    +0.129 C 
ENDBRANCH  30  33
ENDBRANCH  26  27
ENDBRANCH  23  25
ENDBRANCH   3  21
TORSDOF 7
