REMARK  Name = ZINC43592410
REMARK  4 active torsions:
REMARK  status: ('A' for Active; 'I' for Inactive)
REMARK    1  A    between atoms: C_3  and  S_9
REMARK    2  A    between atoms: C_6  and  N_7
REMARK    3  A    between atoms: S_9  and  N_12
REMARK    4  A    between atoms: N_12  and  C_13
REMARK                            x       y       z     vdW  Elec       q    Type
REMARK                         _______ _______ _______ _____ _____    ______ ____
ROOT
ATOM      1  C   UNL     1      -0.017   1.385   0.010  0.00  0.00    +0.025 A 
ATOM      2  C   UNL     1       1.170   2.091   0.002  0.00  0.00    +0.033 A 
ATOM      3  C   UNL     1       2.377   1.418  -0.013  0.00  0.00    +0.146 A 
ATOM      4  C   UNL     1       2.401   0.033  -0.021  0.00  0.00    +0.152 A 
ATOM      5  C   UNL     1       1.216  -0.679  -0.014  0.00  0.00    +0.063 A 
ATOM      6  C   UNL     1       0.002  -0.004   0.002  0.00  0.00    +0.027 A 
ATOM      7  F   UNL     1       3.582  -0.622  -0.036  0.00  0.00    -0.203 F 
ENDROOT
BRANCH   6   8
ATOM      8  N   UNL     1      -1.197  -0.720   0.010  0.00  0.00    -0.358 N 
ATOM      9  H   UNL     1      -2.044  -0.247   0.021  0.00  0.00    +0.142 HD
ATOM     10  H   UNL     1      -1.183  -1.690   0.005  0.00  0.00    +0.142 HD
ENDBRANCH   6   8
BRANCH   3  11
ATOM     11  S   UNL     1       3.889   2.323  -0.023  0.00  0.00    +0.096 S 
ATOM     12  O   UNL     1       4.688   1.769  -1.059  0.00  0.00    -0.148 OA
ATOM     13  O   UNL     1       3.538   3.700   0.015  0.00  0.00    -0.148 OA
BRANCH  11  14
ATOM     14  N   UNL     1       4.666   1.994   1.402  0.00  0.00    -0.068 NA
BRANCH  14  15
ATOM     15  C   UNL     1       5.896   2.575   1.672  0.00  0.00    +0.223 A 
ATOM     16  N   UNL     1       6.620   3.418   0.946  0.00  0.00    -0.123 NA
ATOM     17  N   UNL     1       7.732   3.855   1.348  0.00  0.00    -0.148 NA
ATOM     18  C   UNL     1       8.246   3.506   2.510  0.00  0.00    +0.183 A 
ATOM     19  S   UNL     1       6.959   2.412   3.104  0.00  0.00    -0.036 S 
ENDBRANCH  14  15
ENDBRANCH  11  14
ENDBRANCH   3  11
TORSDOF 4
