REMARK  Name = ZINC47872119
REMARK  12 active torsions:
REMARK  status: ('A' for Active; 'I' for Inactive)
REMARK    1  A    between atoms: C_1  and  C_2
REMARK    2  A    between atoms: C_7  and  N_12
REMARK    3  A    between atoms: C_9  and  C_11
REMARK    4  A    between atoms: N_12  and  C_13
REMARK    5  A    between atoms: C_13  and  N_15
REMARK    6  A    between atoms: N_15  and  N_16
REMARK    7  A    between atoms: C_17  and  C_19
REMARK    8  A    between atoms: C_19  and  C_21
REMARK    9  A    between atoms: C_19  and  N_24
REMARK   10  A    between atoms: C_21  and  C_22
REMARK   11  A    between atoms: C_21  and  C_23
REMARK   12  A    between atoms: C_25  and  C_27
REMARK                            x       y       z     vdW  Elec       q    Type
REMARK                         _______ _______ _______ _____ _____    ______ ____
ROOT
ATOM      1  N   UNL     1       2.933  -3.708   4.704  0.00  0.00    -0.234 N 
ATOM      2  C   UNL     1       3.566  -3.955   5.869  0.00  0.00    +0.250 C 
ATOM      3  O   UNL     1       4.104  -5.027   6.051  0.00  0.00    -0.272 OA
ATOM      4  H   UNL     1       2.441  -2.881   4.586  0.00  0.00    +0.173 HD
ENDROOT
BRANCH   1   5
ATOM      5  N   UNL     1       2.986  -4.647   3.666  0.00  0.00    -0.246 N 
ATOM      6  H   UNL     1       3.479  -5.474   3.784  0.00  0.00    +0.172 HD
BRANCH   5   7
ATOM      7  C   UNL     1       2.354  -4.400   2.502  0.00  0.00    +0.147 C 
ATOM      8  S   UNL     1       2.419  -5.547   1.232  0.00  0.00    -0.017 S 
BRANCH   7   9
ATOM      9  N   UNL     1       1.669  -3.251   2.337  0.00  0.00    -0.322 N 
ATOM     10  H   UNL     1       1.633  -2.601   3.056  0.00  0.00    +0.148 HD
BRANCH   9  16
ATOM     11  C   UNL     1      -0.034   0.320  -0.629  0.00  0.00    +0.008 C 
ATOM     12  C   UNL     1       0.115  -1.191  -0.439  0.00  0.00    -0.009 C 
ATOM     13  C   UNL     1      -1.270  -1.841  -0.414  0.00  0.00    +0.003 C 
ATOM     14  C   UNL     1      -1.122  -3.352  -0.225  0.00  0.00    +0.002 C 
ATOM     15  C   UNL     1      -0.404  -3.632   1.096  0.00  0.00    +0.022 C 
ATOM     16  C   UNL     1       0.982  -2.982   1.071  0.00  0.00    +0.075 C 
ATOM     17  C   UNL     1       0.833  -1.472   0.882  0.00  0.00    +0.009 C 
ATOM     18  C   UNL     1       0.018  -0.890   2.039  0.00  0.00    +0.009 C 
ENDBRANCH   9  16
ENDBRANCH   7   9
ENDBRANCH   5   7
ENDBRANCH   1   5
BRANCH   2  19
ATOM     19  C   UNL     1       3.605  -2.900   6.944  0.00  0.00    +0.163 C 
BRANCH  19  20
ATOM     20  N   UNL     1       4.802  -3.085   7.767  0.00  0.00    -0.297 N 
ATOM     21  C   UNL     1       5.330  -2.040   8.434  0.00  0.00    +0.280 C 
ATOM     22  O   UNL     1       4.811  -0.942   8.354  0.00  0.00    -0.267 OA
ATOM     23  H   UNL     1       5.216  -3.960   7.831  0.00  0.00    +0.150 HD
BRANCH  21  24
ATOM     24  C   UNL     1       6.528  -2.225   9.259  0.00  0.00    +0.189 A 
ATOM     25  C   UNL     1       7.159  -1.258   9.987  0.00  0.00    +0.054 A 
ATOM     26  C   UNL     1       8.252  -1.874  10.616  0.00  0.00    +0.042 A 
ATOM     27  C   UNL     1       8.241  -3.174  10.248  0.00  0.00    +0.196 A 
ATOM     28  O   UNL     1       7.198  -3.383   9.434  0.00  0.00    -0.458 OA
ENDBRANCH  21  24
ENDBRANCH  19  20
BRANCH  19  29
ATOM     29  C   UNL     1       2.358  -3.021   7.822  0.00  0.00    +0.012 C 
ATOM     30  C   UNL     1       1.115  -2.700   6.990  0.00  0.00    +0.009 C 
ATOM     31  C   UNL     1       2.254  -4.447   8.366  0.00  0.00    +0.009 C 
ENDBRANCH  19  29
ENDBRANCH   2  19
TORSDOF 8
