REMARK  Name = ZINC36271390
REMARK  9 active torsions:
REMARK  status: ('A' for Active; 'I' for Inactive)
REMARK    1  A    between atoms: C_1  and  C_2
REMARK    2  A    between atoms: C_5  and  C_8
REMARK    3  A    between atoms: C_10  and  C_17
REMARK    4  A    between atoms: C_11  and  C_16
REMARK    5  A    between atoms: N_19  and  C_20
REMARK    6  A    between atoms: C_22  and  O_28
REMARK    7  A    between atoms: C_25  and  O_26
REMARK    8  A    between atoms: O_26  and  C_27
REMARK    9  A    between atoms: O_28  and  C_29
REMARK                            x       y       z     vdW  Elec       q    Type
REMARK                         _______ _______ _______ _____ _____    ______ ____
ROOT
ATOM      1  C   UNL     1       0.434  -4.758   0.148  0.00  0.00    +0.139 C 
ATOM      2  C   UNL     1       1.924  -4.952   0.342  0.00  0.00    +0.056 C 
ATOM      3  C   UNL     1       2.337  -5.542   1.484  0.00  0.00    +0.017 C 
ATOM      4  N   UNL     1       1.441  -5.949   2.431  0.00  0.00    -0.300 N 
ATOM      5  C   UNL     1       0.116  -5.803   2.311  0.00  0.00    +0.135 C 
ATOM      6  S   UNL     1      -0.897  -6.359   3.575  0.00  0.00    -0.019 S 
ATOM      7  N   UNL     1      -0.447  -5.232   1.228  0.00  0.00    -0.315 N 
ATOM      8  C   UNL     1       3.811  -5.754   1.718  0.00  0.00    +0.061 C 
ATOM      9  H   UNL     1       1.784  -6.369   3.236  0.00  0.00    +0.154 HD
ATOM     10  H   UNL     1      -1.410  -5.136   1.162  0.00  0.00    +0.149 HD
ENDROOT
BRANCH   1  15
ATOM     11  C   UNL     1      -0.548   0.887  -0.602  0.00  0.00    +0.044 C 
ATOM     12  C   UNL     1      -0.292  -0.585  -0.406  0.00  0.00    -0.050 A 
ATOM     13  C   UNL     1      -0.223  -1.426  -1.501  0.00  0.00    +0.004 A 
ATOM     14  C   UNL     1       0.012  -2.776  -1.322  0.00  0.00    +0.006 A 
ATOM     15  C   UNL     1       0.179  -3.286  -0.048  0.00  0.00    -0.023 A 
ATOM     16  C   UNL     1       0.111  -2.445   1.047  0.00  0.00    +0.006 A 
ATOM     17  C   UNL     1      -0.120  -1.093   0.867  0.00  0.00    +0.004 A 
ENDBRANCH   1  15
BRANCH   2  18
ATOM     18  C   UNL     1       2.852  -4.529  -0.641  0.00  0.00    +0.248 C 
ATOM     19  O   UNL     1       3.069  -5.229  -1.613  0.00  0.00    -0.270 OA
ATOM     20  N   UNL     1       3.494  -3.353  -0.499  0.00  0.00    -0.279 N 
ATOM     21  H   UNL     1       3.263  -2.759   0.232  0.00  0.00    +0.155 HD
BRANCH  20  22
ATOM     22  C   UNL     1       4.496  -2.989  -1.408  0.00  0.00    +0.079 A 
ATOM     23  C   UNL     1       4.420  -3.405  -2.729  0.00  0.00    +0.072 A 
ATOM     24  C   UNL     1       5.413  -3.043  -3.626  0.00  0.00    +0.122 A 
ATOM     25  C   UNL     1       6.481  -2.265  -3.204  0.00  0.00    +0.049 A 
ATOM     26  C   UNL     1       6.559  -1.849  -1.888  0.00  0.00    +0.051 A 
ATOM     27  C   UNL     1       5.567  -2.203  -0.988  0.00  0.00    +0.141 A 
BRANCH  27  28
ATOM     28  O   UNL     1       5.641  -1.788   0.305  0.00  0.00    -0.493 OA
ATOM     29  C   UNL     1       6.766  -0.985   0.666  0.00  0.00    +0.277 C 
ENDBRANCH  27  28
BRANCH  24  30
ATOM     30  O   UNL     1       5.340  -3.451  -4.921  0.00  0.00    -0.495 OA
ATOM     31  C   UNL     1       6.398  -3.041  -5.791  0.00  0.00    +0.277 C 
ENDBRANCH  24  30
ENDBRANCH  20  22
ENDBRANCH   2  18
TORSDOF 5
