REMARK  Name = ZINC02659712
REMARK  11 active torsions:
REMARK  status: ('A' for Active; 'I' for Inactive)
REMARK    1  A    between atoms: C_1  and  C_2
REMARK    2  A    between atoms: C_3  and  C_32
REMARK    3  A    between atoms: C_4  and  C_31
REMARK    4  A    between atoms: C_7  and  C_8
REMARK    5  A    between atoms: C_8  and  C_10
REMARK    6  A    between atoms: C_11  and  C_26
REMARK    7  A    between atoms: C_13  and  C_15
REMARK    8  A    between atoms: C_16  and  N_25
REMARK    9  A    between atoms: N_17  and  C_24
REMARK   10  A    between atoms: N_20  and  C_23
REMARK   11  A    between atoms: C_32  and  C_34
REMARK                            x       y       z     vdW  Elec       q    Type
REMARK                         _______ _______ _______ _____ _____    ______ ____
ROOT
ATOM      1  C   UNL     1      -4.606   1.585  -0.398  0.00  0.00    +0.092 A 
ATOM      2  C   UNL     1      -4.777   0.204  -0.195  0.00  0.00    +0.125 A 
ATOM      3  N   UNL     1      -3.707  -0.552  -0.095  0.00  0.00    -0.235 NA
ATOM      4  C   UNL     1      -2.482  -0.041  -0.171  0.00  0.00    +0.118 A 
ATOM      5  S   UNL     1      -2.821   1.696  -0.423  0.00  0.00    -0.063 S 
ENDROOT
BRANCH   4   6
ATOM      6  C   UNL     1      -1.186  -0.726  -0.078  0.00  0.00    +0.109 A 
ATOM      7  C   UNL     1      -1.118  -2.120  -0.006  0.00  0.00    +0.115 A 
ATOM      8  N   UNL     1       0.108  -2.723   0.073  0.00  0.00    -0.284 N 
ATOM      9  C   UNL     1       1.234  -1.988   0.087  0.00  0.00    +0.333 A 
ATOM     10  O   UNL     1       2.309  -2.551   0.159  0.00  0.00    -0.246 OA
ATOM     11  N   UNL     1       1.199  -0.646   0.025  0.00  0.00    -0.263 N 
ATOM     12  C   UNL     1       0.026   0.013  -0.054  0.00  0.00    +0.268 A 
ATOM     13  O   UNL     1       0.006   1.229  -0.111  0.00  0.00    -0.267 OA
ATOM     14  C   UNL     1       2.453   0.111   0.044  0.00  0.00    +0.157 C 
ATOM     15  C   UNL     1       0.195  -4.184   0.143  0.00  0.00    +0.155 C 
BRANCH   7  16
ATOM     16  N   UNL     1      -2.259  -2.869  -0.021  0.00  0.00    -0.344 N 
ATOM     17  H   UNL     1      -2.203  -3.837  -0.066  0.00  0.00    +0.144 HD
ATOM     18  H   UNL     1      -3.126  -2.435   0.018  0.00  0.00    +0.144 HD
ENDBRANCH   7  16
ENDBRANCH   4   6
BRANCH   2  19
ATOM     19  C   UNL     1      -6.125  -0.382  -0.103  0.00  0.00    +0.154 A 
ATOM     20  C   UNL     1      -6.496  -1.611  -0.561  0.00  0.00    +0.051 A 
ATOM     21  C   UNL     1      -7.863  -1.758  -0.264  0.00  0.00    +0.042 A 
ATOM     22  C   UNL     1      -8.258  -0.626   0.354  0.00  0.00    +0.196 A 
ATOM     23  O   UNL     1      -7.205   0.200   0.454  0.00  0.00    -0.461 OA
ENDBRANCH   2  19
BRANCH   1  24
ATOM     24  C   UNL     1      -5.575   2.604  -0.541  0.00  0.00    +0.218 C 
ATOM     25  O   UNL     1      -6.763   2.326  -0.494  0.00  0.00    -0.284 OA
BRANCH  24  32
ATOM     26  C   UNL     1      -7.490   5.040  -0.898  0.00  0.00    +0.047 C 
ATOM     27  C   UNL     1      -5.984   5.066  -0.904  0.00  0.00    -0.011 A 
ATOM     28  C   UNL     1      -5.161   6.208  -1.070  0.00  0.00    +0.041 A 
ATOM     29  C   UNL     1      -3.847   5.771  -1.014  0.00  0.00    +0.024 A 
ATOM     30  N   UNL     1      -3.852   4.442  -0.819  0.00  0.00    -0.355 N 
ATOM     31  H   UNL     1      -3.063   3.884  -0.742  0.00  0.00    +0.166 HD
ATOM     32  C   UNL     1      -5.153   3.997  -0.747  0.00  0.00    +0.092 A 
ATOM     33  C   UNL     1      -2.622   6.638  -1.148  0.00  0.00    +0.064 C 
BRANCH  28  34
ATOM     34  C   UNL     1      -5.614   7.588  -1.269  0.00  0.00    +0.162 C 
ATOM     35  O   UNL     1      -5.881   8.282  -0.311  0.00  0.00    -0.292 OA
ATOM     36  C   UNL     1      -5.748   8.143  -2.663  0.00  0.00    +0.091 C 
ENDBRANCH  28  34
ENDBRANCH  24  32
ENDBRANCH   1  24
TORSDOF 6
