REMARK  Name = ZINC52125743
REMARK  3 active torsions:
REMARK  status: ('A' for Active; 'I' for Inactive)
REMARK    1  A    between atoms: C_6  and  N_7
REMARK    2  A    between atoms: N_11  and  C_14
REMARK    3  A    between atoms: C_14  and  C_15
REMARK                            x       y       z     vdW  Elec       q    Type
REMARK                         _______ _______ _______ _____ _____    ______ ____
ROOT
ATOM      1  C   UNL     1      -0.017   1.388   0.010  0.00  0.00    +0.023 A 
ATOM      2  C   UNL     1       1.152   2.108   0.002  0.00  0.00    +0.017 A 
ATOM      3  C   UNL     1       2.396   1.449  -0.013  0.00  0.00    +0.065 A 
ATOM      4  C   UNL     1       2.386   0.045  -0.021  0.00  0.00    +0.123 A 
ATOM      5  C   UNL     1       1.228  -0.672  -0.013  0.00  0.00    +0.052 A 
ATOM      6  C   UNL     1       0.002  -0.004   0.002  0.00  0.00    +0.026 A 
ATOM      7  S   UNL     1       4.106  -0.381  -0.039  0.00  0.00    +0.078 S 
ATOM      8  O   UNL     1       4.390  -0.979  -1.297  0.00  0.00    -0.150 OA
ATOM      9  O   UNL     1       4.413  -0.993   1.206  0.00  0.00    -0.150 OA
ATOM     10  N   UNL     1       4.787   1.148  -0.037  0.00  0.00    -0.159 N 
ATOM     11  C   UNL     1       3.753   2.002  -0.023  0.00  0.00    +0.268 C 
ATOM     12  O   UNL     1       3.938   3.204  -0.019  0.00  0.00    -0.268 OA
ENDROOT
BRANCH   6  13
ATOM     13  N   UNL     1      -1.188  -0.722   0.010  0.00  0.00    -0.358 N 
ATOM     14  H   UNL     1      -2.038  -0.254   0.021  0.00  0.00    +0.142 HD
ATOM     15  H   UNL     1      -1.170  -1.692   0.005  0.00  0.00    +0.142 HD
ENDBRANCH   6  13
BRANCH  10  16
ATOM     16  C   UNL     1       6.214   1.482  -0.049  0.00  0.00    +0.230 C 
BRANCH  16  17
ATOM     17  C   UNL     1       6.661   1.725  -1.467  0.00  0.00    +0.230 C 
ATOM     18  O   UNL     1       5.867   1.628  -2.379  0.00  0.00    -0.274 OA
ATOM     19  N   UNL     1       7.944   2.050  -1.723  0.00  0.00    -0.328 N 
ATOM     20  H   UNL     1       8.579   2.127  -0.994  0.00  0.00    +0.145 HD
ATOM     21  H   UNL     1       8.232   2.206  -2.636  0.00  0.00    +0.145 HD
ENDBRANCH  16  17
ENDBRANCH  10  16
TORSDOF 3
