REMARK  Name = ZINC39335337
REMARK  7 active torsions:
REMARK  status: ('A' for Active; 'I' for Inactive)
REMARK    1  A    between atoms: C_2  and  N_9
REMARK    2  A    between atoms: C_10  and  C_12
REMARK    3  A    between atoms: C_12  and  S_13
REMARK    4  A    between atoms: S_13  and  C_14
REMARK    5  A    between atoms: C_15  and  C_28
REMARK    6  A    between atoms: C_22  and  C_26
REMARK    7  A    between atoms: C_23  and  N_25
REMARK                            x       y       z     vdW  Elec       q    Type
REMARK                         _______ _______ _______ _____ _____    ______ ____
ROOT
ATOM      1  C   UNL     1       3.797   8.046   0.468  0.00  0.00    +0.081 C 
ATOM      2  C   UNL     1       4.896   8.840   0.563  0.00  0.00    +0.068 C 
ATOM      3  C   UNL     1       4.781  10.335   0.670  0.00  0.00    +0.045 C 
ATOM      4  C   UNL     1       5.757  10.842   1.737  0.00  0.00    +0.018 C 
ATOM      5  C   UNL     1       5.644  12.364   1.846  0.00  0.00    +0.001 C 
ATOM      6  C   UNL     1       5.994  13.000   0.499  0.00  0.00    +0.000 C 
ATOM      7  C   UNL     1       5.027  12.490  -0.571  0.00  0.00    +0.001 C 
ATOM      8  C   UNL     1       5.140  10.968  -0.678  0.00  0.00    +0.018 C 
ATOM      9  C   UNL     1       3.382  10.735   1.049  0.00  0.00    +0.076 C 
ATOM     10  C   UNL     1       2.339   9.872   0.936  0.00  0.00    +0.100 C 
ATOM     11  N   UNL     1       2.533   8.591   0.470  0.00  0.00    -0.296 N 
ATOM     12  H   UNL     1       1.780   8.072   0.147  0.00  0.00    +0.154 HD
ENDROOT
BRANCH  10  13
ATOM     13  N   UNL     1       1.076  10.285   1.286  0.00  0.00    -0.346 N 
ATOM     14  H   UNL     1       0.934  11.188   1.611  0.00  0.00    +0.143 HD
ATOM     15  H   UNL     1       0.327   9.674   1.207  0.00  0.00    +0.143 HD
ENDBRANCH  10  13
BRANCH   9  16
ATOM     16  C   UNL     1       3.143  12.058   1.541  0.00  0.00    +0.099 C 
ATOM     17  N   UNL     1       2.953  13.107   1.932  0.00  0.00    -0.191 NA
ENDBRANCH   9  16
BRANCH   2  18
ATOM     18  C   UNL     1       6.195   8.237   0.563  0.00  0.00    +0.098 C 
ATOM     19  N   UNL     1       7.225   7.759   0.562  0.00  0.00    -0.191 NA
ENDBRANCH   2  18
BRANCH   1  20
ATOM     20  S   UNL     1       3.992   6.300   0.332  0.00  0.00    -0.100 S 
BRANCH  20  21
ATOM     21  C   UNL     1       2.293   5.675   0.225  0.00  0.00    +0.171 C 
BRANCH  21  23
ATOM     22  N   UNL     1       1.161   3.487   0.009  0.00  0.00    -0.285 N 
ATOM     23  C   UNL     1       2.317   4.173   0.104  0.00  0.00    +0.227 C 
ATOM     24  O   UNL     1       3.376   3.583   0.091  0.00  0.00    -0.275 OA
ATOM     25  H   UNL     1       0.318   3.962  -0.058  0.00  0.00    +0.155 HD
BRANCH  22  27
ATOM     26  C   UNL     1       2.132   1.402   0.746  0.00  0.00    +0.043 A 
ATOM     27  C   UNL     1       1.177   2.087   0.008  0.00  0.00    +0.036 A 
ATOM     28  C   UNL     1       0.236   1.382  -0.732  0.00  0.00    +0.043 A 
ATOM     29  C   UNL     1       0.254  -0.000  -0.731  0.00  0.00    +0.044 A 
ATOM     30  C   UNL     1       1.207  -0.681   0.006  0.00  0.00    +0.040 A 
ATOM     31  C   UNL     1       2.145   0.020   0.744  0.00  0.00    +0.044 A 
ATOM     32 CL   UNL     1       3.340  -0.838   1.666  0.00  0.00    -0.083 Cl
ATOM     33 CL   UNL     1      -0.921  -0.883  -1.655  0.00  0.00    -0.083 Cl
ENDBRANCH  22  27
ENDBRANCH  21  23
ENDBRANCH  20  21
ENDBRANCH   1  20
TORSDOF 7
