REMARK  Name = ZINC62723197
REMARK  4 active torsions:
REMARK  status: ('A' for Active; 'I' for Inactive)
REMARK    1  A    between atoms: C_6  and  S_7
REMARK    2  A    between atoms: C_12  and  O_17
REMARK    3  A    between atoms: C_13  and  N_16
REMARK    4  A    between atoms: C_14  and  N_15
REMARK                            x       y       z     vdW  Elec       q    Type
REMARK                         _______ _______ _______ _____ _____    ______ ____
ROOT
ATOM      1  C   UNL     1      -0.017   1.389   0.010  0.00  0.00    +0.030 A 
ATOM      2  C   UNL     1       1.141   2.105   0.003  0.00  0.00    +0.012 A 
ATOM      3  C   UNL     1       2.374   1.434  -0.013  0.00  0.00    +0.005 A 
ATOM      4  C   UNL     1       2.394   0.016  -0.021  0.00  0.00    -0.011 A 
ATOM      5  C   UNL     1       1.179  -0.689  -0.013  0.00  0.00    +0.038 A 
ATOM      6  C   UNL     1       0.002  -0.004   0.002  0.00  0.00    +0.120 A 
ATOM      7  C   UNL     1       3.626  -0.660  -0.036  0.00  0.00    +0.056 A 
ATOM      8  C   UNL     1       4.793   0.048  -0.043  0.00  0.00    +0.140 A 
ATOM      9  C   UNL     1       4.785   1.449  -0.035  0.00  0.00    +0.088 A 
ATOM     10  C   UNL     1       3.592   2.145  -0.020  0.00  0.00    +0.057 A 
ENDROOT
BRANCH   6  11
ATOM     11  S   UNL     1      -1.519  -0.893   0.012  0.00  0.00    +0.140 S 
ATOM     12  O   UNL     1      -1.269  -2.151   0.699  0.00  0.00    -0.140 OA
ATOM     13  O   UNL     1      -2.485  -0.069   0.722  0.00  0.00    -0.140 OA
ATOM     14  O   UNL     1      -1.898  -1.098  -1.377  0.00  0.00    -0.043 OA
ENDBRANCH   6  11
BRANCH  10  15
ATOM     15  N   UNL     1       3.592   3.544  -0.014  0.00  0.00    -0.356 N 
ATOM     16  H   UNL     1       2.752   4.029  -0.004  0.00  0.00    +0.142 HD
ATOM     17  H   UNL     1       4.432   4.029  -0.019  0.00  0.00    +0.142 HD
ENDBRANCH  10  15
BRANCH   9  18
ATOM     18  N   UNL     1       6.000   2.151  -0.041  0.00  0.00    -0.354 N 
ATOM     19  H   UNL     1       6.841   1.666  -0.052  0.00  0.00    +0.142 HD
ATOM     20  H   UNL     1       6.000   3.121  -0.036  0.00  0.00    +0.142 HD
ENDBRANCH   9  18
BRANCH   8  21
ATOM     21  O   UNL     1       5.980  -0.616  -0.057  0.00  0.00    -0.505 OA
ATOM     22  H   UNL     1       6.315  -0.803  -0.945  0.00  0.00    +0.292 HD
ENDBRANCH   8  21
TORSDOF 4
