REMARK  Name = ZINC43288324
REMARK  5 active torsions:
REMARK  status: ('A' for Active; 'I' for Inactive)
REMARK    1  A    between atoms: C_6  and  O_7
REMARK    2  A    between atoms: O_7  and  C_8
REMARK    3  A    between atoms: C_8  and  C_10
REMARK    4  A    between atoms: C_8  and  C_12
REMARK    5  A    between atoms: C_10  and  N_11
REMARK                            x       y       z     vdW  Elec       q    Type
REMARK                         _______ _______ _______ _____ _____    ______ ____
ROOT
ATOM      1  O   UNL     1      -1.166  -0.700   0.010  0.00  0.00    -0.486 OA
ENDROOT
BRANCH   1   7
ATOM      2  C   UNL     1      -0.010   1.377   0.096  0.00  0.00    +0.047 A 
ATOM      3  C   UNL     1       1.179   2.080   0.140  0.00  0.00    +0.027 A 
ATOM      4  C   UNL     1       2.387   1.398   0.139  0.00  0.00    +0.037 A 
ATOM      5  C   UNL     1       2.401   0.010   0.095  0.00  0.00    -0.022 A 
ATOM      6  C   UNL     1       1.212  -0.691   0.051  0.00  0.00    +0.051 A 
ATOM      7  C   UNL     1       0.004  -0.009   0.052  0.00  0.00    +0.122 A 
ATOM      8  C   UNL     1       3.715  -0.728   0.096  0.00  0.00    +0.046 C 
ATOM      9  C   UNL     1       4.760   0.089  -0.664  0.00  0.00    +0.101 C 
ATOM     10  C   UNL     1       4.746   1.514  -0.183  0.00  0.00    +0.218 C 
ATOM     11  O   UNL     1       5.785   2.138  -0.125  0.00  0.00    -0.275 OA
ATOM     12  N   UNL     1       3.594   2.106   0.184  0.00  0.00    -0.285 N 
ATOM     13  H   UNL     1       3.600   3.030   0.480  0.00  0.00    +0.155 HD
ENDBRANCH   1   7
BRANCH   1  14
ATOM     14  C   UNL     1      -2.371   0.058   0.137  0.00  0.00    +0.193 C 
BRANCH  14  15
ATOM     15  C   UNL     1      -3.373  -0.724   0.947  0.00  0.00    +0.029 A 
ATOM     16  C   UNL     1      -4.301  -0.270   1.825  0.00  0.00    +0.030 A 
ATOM     17  C   UNL     1      -5.123  -1.181   2.462  0.00  0.00    +0.025 A 
ATOM     18  C   UNL     1      -4.977  -2.501   2.188  0.00  0.00    +0.060 A 
ATOM     19  S   UNL     1      -3.651  -2.487   0.994  0.00  0.00    -0.097 S 
ATOM     20 BR   UNL     1      -6.432  -0.595   3.695  0.00  0.00    -0.050 Br
ENDBRANCH  14  15
BRANCH  14  21
ATOM     21  C   UNL     1      -2.947   0.337  -1.253  0.00  0.00    -0.036 C 
BRANCH  21  22
ATOM     22  N   UNL     1      -1.970   1.099  -2.043  0.00  0.00    +0.381 N 
ATOM     23  H   UNL     1      -1.119   0.565  -2.133  0.00  0.00    -0.090 HD
ATOM     24  H   UNL     1      -2.350   1.284  -2.960  0.00  0.00    -0.090 HD
ATOM     25  H   UNL     1      -1.771   1.973  -1.580  0.00  0.00    -0.090 HD
ENDBRANCH  21  22
ENDBRANCH  14  21
ENDBRANCH   1  14
TORSDOF 5
