REMARK  Name = ZINC27754297
REMARK  7 active torsions:
REMARK  status: ('A' for Active; 'I' for Inactive)
REMARK    1  A    between atoms: C_1  and  C_2
REMARK    2  A    between atoms: C_5  and  C_8
REMARK    3  A    between atoms: C_8  and  O_35
REMARK    4  A    between atoms: C_9  and  C_29
REMARK    5  A    between atoms: C_11  and  C_17
REMARK    6  A    between atoms: C_20  and  C_22
REMARK    7  A    between atoms: C_29  and  C_31
REMARK                            x       y       z     vdW  Elec       q    Type
REMARK                         _______ _______ _______ _____ _____    ______ ____
ROOT
ATOM      1  C   UNL     1      -2.267   6.372  -0.900  0.00  0.00    +0.172 C 
ATOM      2  C   UNL     1      -1.603   5.066  -1.349  0.00  0.00    +0.147 C 
ATOM      3  C   UNL     1      -1.606   4.087  -0.170  0.00  0.00    +0.156 C 
ATOM      4  N   UNL     1      -0.955   4.715   0.980  0.00  0.00    -0.289 N 
ATOM      5  C   UNL     1      -0.976   6.046   1.152  0.00  0.00    +0.303 C 
ATOM      6  O   UNL     1      -0.427   6.517   2.130  0.00  0.00    -0.253 OA
ATOM      7  N   UNL     1      -1.579   6.877   0.289  0.00  0.00    -0.267 N 
ATOM      8  H   UNL     1      -0.435   4.095   1.725  0.00  0.00    +0.151 HD
ATOM      9  H   UNL     1      -1.549   7.959   0.489  0.00  0.00    +0.153 HD
ENDROOT
BRANCH   1  14
ATOM     10  C   UNL     1      -7.821   5.382   0.352  0.00  0.00    +0.044 C 
ATOM     11  C   UNL     1      -6.373   5.640   0.026  0.00  0.00    -0.050 A 
ATOM     12  C   UNL     1      -5.424   5.622   1.031  0.00  0.00    +0.004 A 
ATOM     13  C   UNL     1      -4.095   5.859   0.731  0.00  0.00    +0.008 A 
ATOM     14  C   UNL     1      -3.716   6.114  -0.574  0.00  0.00    +0.003 A 
ATOM     15  C   UNL     1      -4.665   6.137  -1.578  0.00  0.00    +0.008 A 
ATOM     16  C   UNL     1      -5.993   5.896  -1.279  0.00  0.00    +0.004 A 
ENDBRANCH   1  14
BRANCH   3  17
ATOM     17  C   UNL     1      -0.857   2.836  -0.552  0.00  0.00    +0.127 A 
ATOM     18  C   UNL     1      -1.412   1.695  -1.004  0.00  0.00    +0.047 A 
ATOM     19  C   UNL     1      -0.359   0.787  -1.236  0.00  0.00    +0.050 A 
ATOM     20  C   UNL     1       0.793   1.435  -0.918  0.00  0.00    +0.135 A 
ATOM     21  O   UNL     1       0.476   2.677  -0.505  0.00  0.00    -0.458 OA
BRANCH  20  22
ATOM     22  C   UNL     1       2.157   0.874  -1.011  0.00  0.00    +0.017 A 
ATOM     23  C   UNL     1       2.347  -0.437  -1.452  0.00  0.00    +0.014 A 
ATOM     24  C   UNL     1       3.623  -0.954  -1.542  0.00  0.00    +0.039 A 
ATOM     25  C   UNL     1       4.714  -0.179  -1.184  0.00  0.00    +0.123 A 
ATOM     26  C   UNL     1       4.531   1.121  -0.740  0.00  0.00    +0.039 A 
ATOM     27  C   UNL     1       3.260   1.650  -0.651  0.00  0.00    +0.014 A 
ATOM     28  F   UNL     1       5.961  -0.692  -1.268  0.00  0.00    -0.205 F 
ENDBRANCH  20  22
ENDBRANCH   3  17
BRANCH   2  29
ATOM     29  C   UNL     1      -0.183   5.337  -1.777  0.00  0.00    +0.245 C 
ATOM     30  O   UNL     1       0.696   5.392  -0.952  0.00  0.00    -0.287 OA
BRANCH  29  31
ATOM     31  C   UNL     1       0.138   5.540  -3.236  0.00  0.00    +0.451 C 
ATOM     32  F   UNL     1       1.520   5.682  -3.393  0.00  0.00    -0.163 F 
ATOM     33  F   UNL     1      -0.305   4.434  -3.969  0.00  0.00    -0.163 F 
ATOM     34  F   UNL     1      -0.505   6.694  -3.699  0.00  0.00    -0.163 F 
ENDBRANCH  29  31
ENDBRANCH   2  29
BRANCH   1  35
ATOM     35  O   UNL     1      -2.179   7.338  -1.950  0.00  0.00    -0.367 OA
ATOM     36  H   UNL     1      -1.195   7.655  -2.325  0.00  0.00    +0.212 HD
ENDBRANCH   1  35
TORSDOF 6
