REMARK  Name = ZINC05188533
REMARK  6 active torsions:
REMARK  status: ('A' for Active; 'I' for Inactive)
REMARK    1  A    between atoms: C_1  and  C_2
REMARK    2  A    between atoms: C_5  and  N_9
REMARK    3  A    between atoms: C_7  and  C_8
REMARK    4  A    between atoms: C_11  and  N_16
REMARK    5  A    between atoms: N_19  and  C_20
REMARK    6  A    between atoms: C_24  and  C_26
REMARK                            x       y       z     vdW  Elec       q    Type
REMARK                         _______ _______ _______ _____ _____    ______ ____
ROOT
ATOM      1  N   UNL     1       2.339   3.927   0.004  0.00  0.00    -0.270 N 
ATOM      2  C   UNL     1       3.666   3.306   0.090  0.00  0.00    +0.136 C 
ATOM      3  C   UNL     1       4.630   4.448   0.483  0.00  0.00    +0.101 C 
ATOM      4  C   UNL     1       3.881   5.691  -0.052  0.00  0.00    +0.120 C 
ATOM      5  C   UNL     1       2.430   5.265  -0.087  0.00  0.00    +0.222 C 
ATOM      6  O   UNL     1       1.486   6.020  -0.182  0.00  0.00    -0.275 OA
ENDROOT
BRANCH   1  11
ATOM      7  C   UNL     1      -2.549   1.047   0.025  0.00  0.00    +0.044 C 
ATOM      8  C   UNL     1      -1.250   1.812   0.022  0.00  0.00    -0.047 A 
ATOM      9  C   UNL     1      -0.048   1.129  -0.004  0.00  0.00    +0.005 A 
ATOM     10  C   UNL     1       1.144   1.828  -0.011  0.00  0.00    +0.024 A 
ATOM     11  C   UNL     1       1.133   3.216   0.012  0.00  0.00    +0.037 A 
ATOM     12  C   UNL     1      -0.076   3.898   0.043  0.00  0.00    +0.027 A 
ATOM     13  C   UNL     1      -1.264   3.194   0.051  0.00  0.00    -0.046 A 
ATOM     14  C   UNL     1      -2.577   3.933   0.084  0.00  0.00    +0.044 C 
ENDBRANCH   1  11
BRANCH   3  15
ATOM     15  N   UNL     1       4.793   4.519   1.937  0.00  0.00    -0.294 N 
ATOM     16  C   UNL     1       5.911   5.057   2.464  0.00  0.00    +0.304 C 
ATOM     17  O   UNL     1       6.784   5.483   1.733  0.00  0.00    -0.253 OA
ATOM     18  N   UNL     1       6.061   5.122   3.802  0.00  0.00    -0.269 N 
ATOM     19  H   UNL     1       4.097   4.179   2.520  0.00  0.00    +0.151 HD
ATOM     20  H   UNL     1       5.403   4.712   4.384  0.00  0.00    +0.156 HD
BRANCH  18  21
ATOM     21  C   UNL     1       7.166   5.784   4.351  0.00  0.00    +0.035 A 
ATOM     22  C   UNL     1       7.684   6.910   3.725  0.00  0.00    +0.024 A 
ATOM     23  C   UNL     1       8.774   7.561   4.269  0.00  0.00    +0.017 A 
ATOM     24  C   UNL     1       9.350   7.091   5.436  0.00  0.00    +0.021 A 
ATOM     25  C   UNL     1       8.837   5.969   6.061  0.00  0.00    -0.035 A 
ATOM     26  C   UNL     1       7.743   5.317   5.524  0.00  0.00    +0.027 A 
ATOM     27  C   UNL     1       9.467   5.460   7.331  0.00  0.00    +0.045 C 
ATOM     28 BR   UNL     1      10.842   7.985   6.178  0.00  0.00    -0.050 Br
ENDBRANCH  18  21
ENDBRANCH   3  15
TORSDOF 3
