REMARK  Name = ZINC39084624
REMARK  4 active torsions:
REMARK  status: ('A' for Active; 'I' for Inactive)
REMARK    1  A    between atoms: C_3  and  N_14
REMARK    2  A    between atoms: C_4  and  O_13
REMARK    3  A    between atoms: C_5  and  N_10
REMARK    4  A    between atoms: C_6  and  C_7
REMARK                            x       y       z     vdW  Elec       q    Type
REMARK                         _______ _______ _______ _____ _____    ______ ____
ROOT
ATOM      1  C   UNL     1      -0.017   1.395   0.010  0.00  0.00    +0.019 A 
ATOM      2  C   UNL     1       1.166   2.099   0.002  0.00  0.00    +0.027 A 
ATOM      3  C   UNL     1       2.381   1.424  -0.013  0.00  0.00    +0.069 A 
ATOM      4  C   UNL     1       2.407   0.027  -0.021  0.00  0.00    +0.169 A 
ATOM      5  C   UNL     1       1.226  -0.685  -0.013  0.00  0.00    +0.183 A 
ATOM      6  C   UNL     1       0.002  -0.004   0.002  0.00  0.00    +0.097 A 
ENDROOT
BRANCH   6   7
ATOM      7  C   UNL     1      -1.261  -0.758   0.011  0.00  0.00    +0.389 C 
ATOM      8  O   UNL     1      -2.330  -0.163   0.024  0.00  0.00    -0.241 OA
ATOM      9  O   UNL     1      -1.243  -1.982   0.004  0.00  0.00    -0.241 OA
ENDBRANCH   6   7
BRANCH   5  10
ATOM     10  N   UNL     1       1.251  -2.165  -0.022  0.00  0.00    +0.061 N 
ATOM     11  O   UNL     1       1.272  -2.775   1.022  0.00  0.00    -0.126 OA
ATOM     12  O   UNL     1       1.251  -2.763  -1.072  0.00  0.00    -0.126 OA
ENDBRANCH   5  10
BRANCH   3  13
ATOM     13  N   UNL     1       3.574   2.140  -0.021  0.00  0.00    -0.355 N 
ATOM     14  H   UNL     1       3.557   3.110  -0.016  0.00  0.00    +0.142 HD
ATOM     15  H   UNL     1       4.422   1.670  -0.032  0.00  0.00    +0.142 HD
ENDBRANCH   3  13
BRANCH   4  16
ATOM     16  O   UNL     1       3.597  -0.631  -0.036  0.00  0.00    -0.503 OA
ATOM     17  H   UNL     1       3.950  -0.827   0.843  0.00  0.00    +0.292 HD
ENDBRANCH   4  16
TORSDOF 4
