REMARK  Name = ZINC37350124
REMARK  4 active torsions:
REMARK  status: ('A' for Active; 'I' for Inactive)
REMARK    1  A    between atoms: C_6  and  C_7
REMARK    2  A    between atoms: C_8  and  C_13
REMARK    3  A    between atoms: C_11  and  N_12
REMARK    4  A    between atoms: C_16  and  N_18
REMARK                            x       y       z     vdW  Elec       q    Type
REMARK                         _______ _______ _______ _____ _____    ______ ____
ROOT
ATOM      1  C   UNL     1      -1.269  -0.765   0.011  0.00  0.00    +0.074 A 
ATOM      2  C   UNL     1      -1.757  -1.642   1.079  0.00  0.00    +0.158 A 
ATOM      3  N   UNL     1      -2.918  -2.118   0.688  0.00  0.00    -0.072 NA
ATOM      4  O   UNL     1      -3.218  -1.595  -0.590  0.00  0.00    -0.339 OA
ATOM      5  C   UNL     1      -2.226  -0.781  -0.983  0.00  0.00    +0.224 A 
ENDROOT
BRANCH   1  11
ATOM      6  C   UNL     1      -0.017   1.391   0.010  0.00  0.00    +0.010 A 
ATOM      7  C   UNL     1       1.170   2.094   0.002  0.00  0.00    +0.016 A 
ATOM      8  C   UNL     1       2.378   1.418  -0.013  0.00  0.00    +0.018 A 
ATOM      9  C   UNL     1       2.403   0.034  -0.022  0.00  0.00    +0.016 A 
ATOM     10  C   UNL     1       1.222  -0.680  -0.014  0.00  0.00    +0.010 A 
ATOM     11  C   UNL     1       0.002  -0.004   0.002  0.00  0.00    -0.011 A 
ATOM     12 BR   UNL     1       4.001   2.389  -0.024  0.00  0.00    -0.050 Br
ENDBRANCH   1  11
BRANCH   2  13
ATOM     13  C   UNL     1      -1.073  -1.936   2.355  0.00  0.00    +0.160 A 
ATOM     14  C   UNL     1      -1.678  -2.148   3.554  0.00  0.00    +0.054 A 
ATOM     15  C   UNL     1      -0.652  -2.390   4.489  0.00  0.00    +0.076 A 
ATOM     16  C   UNL     1       0.516  -2.315   3.821  0.00  0.00    +0.280 A 
ATOM     17  O   UNL     1       0.258  -2.046   2.531  0.00  0.00    -0.432 OA
BRANCH  16  18
ATOM     18  N   UNL     1       1.861  -2.503   4.410  0.00  0.00    +0.093 N 
ATOM     19  O   UNL     1       1.976  -2.747   5.589  0.00  0.00    -0.123 OA
ATOM     20  O   UNL     1       2.845  -2.413   3.713  0.00  0.00    -0.123 OA
ENDBRANCH  16  18
ENDBRANCH   2  13
BRANCH   5  21
ATOM     21  N   UNL     1      -2.172  -0.086  -2.173  0.00  0.00    -0.327 N 
ATOM     22  H   UNL     1      -1.408   0.479  -2.370  0.00  0.00    +0.145 HD
ATOM     23  H   UNL     1      -2.897  -0.161  -2.813  0.00  0.00    +0.145 HD
ENDBRANCH   5  21
TORSDOF 4
