REMARK  Name = ZINC06108866
REMARK  5 active torsions:
REMARK  status: ('A' for Active; 'I' for Inactive)
REMARK    1  A    between atoms: C_1  and  C_2
REMARK    2  A    between atoms: C_2  and  C_4
REMARK    3  A    between atoms: C_2  and  S_14
REMARK    4  A    between atoms: N_6  and  C_7
REMARK    5  A    between atoms: S_14  and  C_15
REMARK                            x       y       z     vdW  Elec       q    Type
REMARK                         _______ _______ _______ _____ _____    ______ ____
ROOT
ATOM      1  C   UNL     1       2.810   5.939  -1.476  0.00  0.00    +0.192 A 
ATOM      2  N   UNL     1       1.501   5.750  -1.564  0.00  0.00    -0.207 NA
ATOM      3  C   UNL     1       0.853   4.755  -0.964  0.00  0.00    +0.129 A 
ATOM      4  C   UNL     1       1.654   3.865  -0.191  0.00  0.00    +0.051 A 
ATOM      5  C   UNL     1       1.200   2.705   0.559  0.00  0.00    -0.025 A 
ATOM      6  C   UNL     1       2.146   2.002   1.222  0.00  0.00    -0.004 A 
ATOM      7  S   UNL     1       3.674   2.841   0.884  0.00  0.00    -0.073 S 
ATOM      8  C   UNL     1       3.046   4.130  -0.143  0.00  0.00    +0.115 A 
ATOM      9  N   UNL     1       3.614   5.142  -0.769  0.00  0.00    -0.214 NA
ATOM     10  C   UNL     1       1.945   0.778   2.061  0.00  0.00    +0.043 C 
ATOM     11  C   UNL     1       0.447   0.637   2.367  0.00  0.00    +0.005 C 
ATOM     12  C   UNL     1      -0.338   0.818   1.065  0.00  0.00    +0.005 C 
ATOM     13  C   UNL     1      -0.264   2.277   0.613  0.00  0.00    +0.037 C 
ATOM     14  N   UNL     1      -0.515   4.594  -1.083  0.00  0.00    -0.343 N 
ATOM     15  H   UNL     1      -0.996   5.043  -1.796  0.00  0.00    +0.144 HD
ATOM     16  H   UNL     1      -0.994   4.033  -0.453  0.00  0.00    +0.144 HD
ENDROOT
BRANCH   1  17
ATOM     17  S   UNL     1       3.521   7.305  -2.331  0.00  0.00    -0.073 S 
BRANCH  17  19
ATOM     18  C   UNL     1       1.099   8.524  -1.992  0.00  0.00    +0.029 C 
ATOM     19  C   UNL     1       2.036   8.010  -3.088  0.00  0.00    +0.137 C 
BRANCH  19  20
ATOM     20  C   UNL     1       2.425   9.152  -3.992  0.00  0.00    +0.230 C 
ATOM     21  O   UNL     1       3.500   9.696  -3.851  0.00  0.00    -0.274 OA
ATOM     22  N   UNL     1       1.580   9.567  -4.955  0.00  0.00    -0.285 N 
ATOM     23  H   UNL     1       0.752   9.088  -5.114  0.00  0.00    +0.155 HD
BRANCH  22  24
ATOM     24  C   UNL     1       1.897  10.691  -5.728  0.00  0.00    +0.034 A 
ATOM     25  C   UNL     1       0.892  11.550  -6.151  0.00  0.00    +0.026 A 
ATOM     26  C   UNL     1       1.208  12.661  -6.909  0.00  0.00    +0.040 A 
ATOM     27  C   UNL     1       2.525  12.913  -7.255  0.00  0.00    +0.124 A 
ATOM     28  C   UNL     1       3.528  12.054  -6.839  0.00  0.00    +0.040 A 
ATOM     29  C   UNL     1       3.217  10.945  -6.077  0.00  0.00    +0.026 A 
ATOM     30  F   UNL     1       2.831  13.997  -8.000  0.00  0.00    -0.205 F 
ENDBRANCH  22  24
ENDBRANCH  19  20
ENDBRANCH  17  19
ENDBRANCH   1  17
TORSDOF 4
