REMARK  Name = ZINC20610656
REMARK  8 active torsions:
REMARK  status: ('A' for Active; 'I' for Inactive)
REMARK    1  A    between atoms: C_1  and  C_2
REMARK    2  A    between atoms: C_2  and  C_3
REMARK    3  A    between atoms: C_3  and  C_4
REMARK    4  A    between atoms: C_4  and  C_5
REMARK    5  A    between atoms: C_8  and  N_11
REMARK    6  A    between atoms: C_31  and  C_33
REMARK    7  A    between atoms: C_33  and  C_35
REMARK    8  A    between atoms: C_33  and  O_36
REMARK                            x       y       z     vdW  Elec       q    Type
REMARK                         _______ _______ _______ _____ _____    ______ ____
ROOT
ATOM      1  N   UNL     1      -5.092  -0.539  -1.270  0.00  0.00    -0.210 N 
ATOM      2  C   UNL     1      -4.324  -1.499  -0.742  0.00  0.00    +0.232 C 
ATOM      3  O   UNL     1      -4.713  -2.592  -0.388  0.00  0.00    -0.274 OA
ATOM      4  C   UNL     1      -2.896  -1.010  -0.655  0.00  0.00    +0.110 C 
ATOM      5  C   UNL     1      -2.977   0.434  -1.223  0.00  0.00    +0.123 C 
ATOM      6  C   UNL     1      -4.438   0.586  -1.580  0.00  0.00    +0.233 C 
ATOM      7  O   UNL     1      -4.940   1.574  -2.071  0.00  0.00    -0.274 OA
ATOM      8  C   UNL     1      -2.643   1.337  -0.028  0.00  0.00    +0.136 C 
ATOM      9  C   UNL     1      -1.206   1.774  -0.056  0.00  0.00    +0.003 A 
ATOM     10  C   UNL     1      -0.009   1.095  -0.033  0.00  0.00    +0.008 A 
ATOM     11  C   UNL     1       1.185   1.795  -0.063  0.00  0.00    +0.000 A 
ATOM     12  C   UNL     1       1.171   3.177  -0.111  0.00  0.00    +0.002 A 
ATOM     13  C   UNL     1      -0.026   3.861  -0.128  0.00  0.00    +0.023 A 
ATOM     14  C   UNL     1      -1.232   3.165  -0.098  0.00  0.00    +0.039 A 
ATOM     15  N   UNL     1      -2.551   3.623  -0.106  0.00  0.00    -0.283 N 
ATOM     16  C   UNL     1      -3.441   2.612  -0.065  0.00  0.00    +0.243 C 
ATOM     17  O   UNL     1      -4.650   2.711  -0.059  0.00  0.00    -0.273 OA
ATOM     18  N   UNL     1      -2.950   0.544   1.176  0.00  0.00    -0.293 NA
ATOM     19  C   UNL     1      -2.507  -0.833   0.828  0.00  0.00    +0.096 C 
ATOM     20  H   UNL     1      -2.758   4.703  -0.142  0.00  0.00    +0.155 HD
ATOM     21  H   UNL     1      -2.395   0.951   2.034  0.00  0.00    +0.124 HD
ENDROOT
BRANCH   1  25
ATOM     22  C   UNL     1      -9.185  -1.016  -1.895  0.00  0.00    -0.047 A 
ATOM     23  C   UNL     1      -8.283  -1.761  -2.632  0.00  0.00    +0.005 A 
ATOM     24  C   UNL     1      -6.926  -1.605  -2.427  0.00  0.00    +0.024 A 
ATOM     25  C   UNL     1      -6.468  -0.700  -1.480  0.00  0.00    +0.044 A 
ATOM     26  C   UNL     1      -7.377   0.043  -0.738  0.00  0.00    +0.024 A 
ATOM     27  C   UNL     1      -8.732  -0.113  -0.952  0.00  0.00    +0.005 A 
BRANCH  22  28
ATOM     28  C   UNL     1     -10.665  -1.188  -2.122  0.00  0.00    +0.035 C 
BRANCH  28  29
ATOM     29  C   UNL     1     -11.200  -2.280  -1.194  0.00  0.00    +0.004 C 
BRANCH  29  31
ATOM     30  C   UNL     1     -13.237  -3.547  -0.496  0.00  0.00    +0.004 C 
ATOM     31  C   UNL     1     -12.703  -2.454  -1.424  0.00  0.00    -0.003 C 
ENDBRANCH  29  31
ENDBRANCH  28  29
ENDBRANCH  22  28
ENDBRANCH   1  25
BRANCH  19  32
ATOM     32  C   UNL     1      -3.232  -1.861   1.698  0.00  0.00    +0.129 C 
ATOM     33  C   UNL     1      -2.890  -1.617   3.169  0.00  0.00    +0.039 C 
BRANCH  32  34
ATOM     34  O   UNL     1      -2.819  -3.177   1.325  0.00  0.00    -0.390 OA
ATOM     35  H   UNL     1      -3.236  -4.053   1.843  0.00  0.00    +0.210 HD
ENDBRANCH  32  34
ENDBRANCH  19  32
TORSDOF 6
