REMARK  Name = ZINC32910028
REMARK  7 active torsions:
REMARK  status: ('A' for Active; 'I' for Inactive)
REMARK    1  A    between atoms: C_1  and  C_2
REMARK    2  A    between atoms: C_2  and  N_3
REMARK    3  A    between atoms: N_3  and  C_4
REMARK    4  A    between atoms: C_12  and  C_14
REMARK    5  A    between atoms: C_14  and  S_15
REMARK    6  A    between atoms: S_15  and  C_16
REMARK    7  A    between atoms: C_22  and  N_24
REMARK                            x       y       z     vdW  Elec       q    Type
REMARK                         _______ _______ _______ _____ _____    ______ ____
ROOT
ATOM      1  C   UNL     1      -1.274  -0.497   2.484  0.00  0.00    +0.173 C 
ENDROOT
BRANCH   1   3
ATOM      2  N   UNL     1      -1.372  -0.511   0.012  0.00  0.00    -0.296 N 
ATOM      3  C   UNL     1      -1.993  -0.751   1.184  0.00  0.00    +0.226 C 
ATOM      4  O   UNL     1      -3.131  -1.171   1.193  0.00  0.00    -0.275 OA
BRANCH   2   5
ATOM      5  C   UNL     1      -2.072  -0.758  -1.251  0.00  0.00    +0.098 C 
ATOM      6  C   UNL     1      -2.477  -2.239  -1.329  0.00  0.00    +0.046 C 
ATOM      7  C   UNL     1      -3.477  -2.406  -2.510  0.00  0.00    +0.168 C 
ATOM      8  S   UNL     1      -4.503  -0.890  -2.299  0.00  0.00    -0.029 S 
ATOM      9  O   UNL     1      -5.628  -1.203  -1.488  0.00  0.00    -0.174 OA
ATOM     10  O   UNL     1      -4.703  -0.287  -3.570  0.00  0.00    -0.174 OA
ATOM     11  C   UNL     1      -3.332   0.138  -1.324  0.00  0.00    +0.188 C 
ENDBRANCH   2   5
BRANCH   2  13
ATOM     12  C   UNL     1      -0.019   1.526   0.010  0.00  0.00    +0.024 C 
ATOM     13  C   UNL     1       0.002  -0.004   0.002  0.00  0.00    +0.105 C 
ENDBRANCH   2  13
ENDBRANCH   1   3
BRANCH   1  14
ATOM     14  S   UNL     1      -2.367  -0.912   3.871  0.00  0.00    -0.078 S 
BRANCH  14  15
ATOM     15  C   UNL     1      -1.394  -0.566   5.299  0.00  0.00    +0.171 A 
ATOM     16  N   UNL     1      -1.924  -0.779   6.535  0.00  0.00    -0.302 N 
ATOM     17  H   UNL     1      -2.829  -1.118   6.622  0.00  0.00    +0.171 HD
ATOM     18  C   UNL     1      -1.193  -0.519   7.640  0.00  0.00    +0.254 A 
ATOM     19  O   UNL     1      -1.661  -0.707   8.752  0.00  0.00    -0.268 OA
ATOM     20  C   UNL     1       0.108  -0.031   7.489  0.00  0.00    +0.113 A 
ATOM     21  C   UNL     1       0.602   0.168   6.207  0.00  0.00    +0.124 A 
ATOM     22  N   UNL     1      -0.167  -0.112   5.149  0.00  0.00    -0.209 NA
BRANCH  21  23
ATOM     23  N   UNL     1       1.883   0.648   6.025  0.00  0.00    -0.343 N 
ATOM     24  H   UNL     1       2.441   0.847   6.794  0.00  0.00    +0.144 HD
ATOM     25  H   UNL     1       2.227   0.787   5.129  0.00  0.00    +0.144 HD
ENDBRANCH  21  23
ENDBRANCH  14  15
ENDBRANCH   1  14
TORSDOF 6
