REMARK  Name = ZINC27664428
REMARK  6 active torsions:
REMARK  status: ('A' for Active; 'I' for Inactive)
REMARK    1  A    between atoms: C_5  and  C_7
REMARK    2  A    between atoms: C_10  and  C_12
REMARK    3  A    between atoms: C_14  and  C_26
REMARK    4  A    between atoms: C_16  and  C_21
REMARK    5  A    between atoms: C_16  and  O_25
REMARK    6  A    between atoms: C_26  and  C_28
REMARK                            x       y       z     vdW  Elec       q    Type
REMARK                         _______ _______ _______ _____ _____    ______ ____
ROOT
ATOM      1  C   UNL     1      -0.711   4.235   0.053  0.00  0.00    +0.156 C 
ATOM      2  C   UNL     1      -1.622   3.369   0.930  0.00  0.00    +0.147 C 
ATOM      3  C   UNL     1      -1.648   1.949   0.349  0.00  0.00    +0.243 C 
ATOM      4  N   UNL     1      -0.276   1.447   0.253  0.00  0.00    -0.264 N 
ATOM      5  C   UNL     1       0.759   2.279   0.063  0.00  0.00    +0.302 C 
ATOM      6  O   UNL     1       1.877   1.810  -0.026  0.00  0.00    -0.253 OA
ATOM      7  N   UNL     1       0.609   3.609  -0.033  0.00  0.00    -0.289 N 
ATOM      8  H   UNL     1      -0.078   0.369   0.336  0.00  0.00    +0.153 HD
ATOM      9  H   UNL     1       1.504   4.231  -0.179  0.00  0.00    +0.151 HD
ENDROOT
BRANCH   1  13
ATOM     10  C   UNL     1      -0.871   7.751   1.032  0.00  0.00    +0.137 A 
ATOM     11  C   UNL     1       0.034   7.308   1.945  0.00  0.00    +0.050 A 
ATOM     12  C   UNL     1       0.215   5.932   1.701  0.00  0.00    +0.047 A 
ATOM     13  C   UNL     1      -0.580   5.606   0.663  0.00  0.00    +0.127 A 
ATOM     14  O   UNL     1      -1.231   6.709   0.258  0.00  0.00    -0.458 OA
BRANCH  10  19
ATOM     15  C   UNL     1      -2.421  11.065   1.881  0.00  0.00    +0.001 A 
ATOM     16  C   UNL     1      -2.306  11.733   0.675  0.00  0.00    +0.001 A 
ATOM     17  C   UNL     1      -1.727  11.111  -0.416  0.00  0.00    +0.021 A 
ATOM     18  C   UNL     1      -1.258   9.816  -0.307  0.00  0.00    +0.052 A 
ATOM     19  C   UNL     1      -1.370   9.137   0.908  0.00  0.00    +0.036 A 
ATOM     20  C   UNL     1      -1.961   9.770   2.003  0.00  0.00    +0.013 A 
ATOM     21 CL   UNL     1      -0.532   9.036  -1.677  0.00  0.00    -0.083 Cl
ENDBRANCH  10  19
ENDBRANCH   1  13
BRANCH   3  22
ATOM     22  C   UNL     1      -2.283   1.972  -1.042  0.00  0.00    +0.436 C 
ATOM     23  F   UNL     1      -2.430   0.662  -1.510  0.00  0.00    -0.166 F 
ATOM     24  F   UNL     1      -3.538   2.586  -0.972  0.00  0.00    -0.166 F 
ATOM     25  F   UNL     1      -1.462   2.691  -1.918  0.00  0.00    -0.166 F 
ENDBRANCH   3  22
BRANCH   3  26
ATOM     26  O   UNL     1      -2.408   1.097   1.208  0.00  0.00    -0.364 OA
ATOM     27  H   UNL     1      -2.539   0.034   0.954  0.00  0.00    +0.212 HD
ENDBRANCH   3  26
BRANCH   2  28
ATOM     28  C   UNL     1      -1.084   3.335   2.338  0.00  0.00    +0.173 C 
ATOM     29  O   UNL     1      -0.209   2.550   2.634  0.00  0.00    -0.292 OA
BRANCH  28  30
ATOM     30  C   UNL     1      -1.621   4.254   3.352  0.00  0.00    +0.018 A 
ATOM     31  C   UNL     1      -2.708   5.081   3.046  0.00  0.00    +0.014 A 
ATOM     32  C   UNL     1      -3.209   5.936   4.003  0.00  0.00    +0.039 A 
ATOM     33  C   UNL     1      -2.633   5.985   5.264  0.00  0.00    +0.123 A 
ATOM     34  C   UNL     1      -1.553   5.172   5.572  0.00  0.00    +0.039 A 
ATOM     35  C   UNL     1      -1.045   4.309   4.626  0.00  0.00    +0.014 A 
ATOM     36  F   UNL     1      -3.127   6.829   6.196  0.00  0.00    -0.205 F 
ENDBRANCH  28  30
ENDBRANCH   2  28
TORSDOF 6
