REMARK  Name = ZINC13136611
REMARK  7 active torsions:
REMARK  status: ('A' for Active; 'I' for Inactive)
REMARK    1  A    between atoms: C_4  and  N_7
REMARK    2  A    between atoms: N_7  and  C_8
REMARK    3  A    between atoms: C_9  and  C_26
REMARK    4  A    between atoms: C_12  and  C_15
REMARK    5  A    between atoms: N_17  and  C_18
REMARK    6  A    between atoms: C_23  and  C_24
REMARK    7  A    between atoms: N_28  and  C_29
REMARK                            x       y       z     vdW  Elec       q    Type
REMARK                         _______ _______ _______ _____ _____    ______ ____
ROOT
ATOM      1  C   UNL     1       3.801  -2.456  -0.152  0.00  0.00    +0.081 C 
ATOM      2  C   UNL     1       4.793  -3.116   0.572  0.00  0.00    +0.087 C 
ATOM      3  C   UNL     1       4.543  -4.447   1.067  0.00  0.00    +0.069 C 
ATOM      4  N   UNL     1       5.421  -5.120   1.749  0.00  0.00    -0.302 NA
ATOM      5  C   UNL     1       3.171  -4.995   0.726  0.00  0.00    +0.187 C 
ATOM      6  S   UNL     1       2.436  -3.599  -0.212  0.00  0.00    -0.090 S 
ATOM      7  H   UNL     1       6.312  -4.761   1.881  0.00  0.00    +0.186 HD
ENDROOT
BRANCH   5   8
ATOM      8  C   UNL     1       2.377  -5.278   1.975  0.00  0.00    +0.236 C 
ATOM      9  O   UNL     1       2.497  -4.560   2.945  0.00  0.00    -0.274 OA
ATOM     10  N   UNL     1       1.534  -6.329   2.014  0.00  0.00    -0.283 N 
ATOM     11  H   UNL     1       1.480  -6.935   1.259  0.00  0.00    +0.155 HD
BRANCH  10  12
ATOM     12  C   UNL     1       0.741  -6.544   3.140  0.00  0.00    +0.051 A 
ATOM     13  C   UNL     1       1.179  -6.132   4.391  0.00  0.00    +0.024 A 
ATOM     14  C   UNL     1       0.392  -6.347   5.505  0.00  0.00    +0.002 A 
ATOM     15  C   UNL     1      -0.838  -6.973   5.385  0.00  0.00    +0.001 A 
ATOM     16  C   UNL     1      -1.289  -7.389   4.151  0.00  0.00    +0.021 A 
ATOM     17  C   UNL     1      -0.506  -7.174   3.014  0.00  0.00    +0.073 A 
BRANCH  17  18
ATOM     18  C   UNL     1      -0.972  -7.598   1.728  0.00  0.00    +0.101 C 
ATOM     19  N   UNL     1      -1.341  -7.935   0.708  0.00  0.00    -0.191 NA
ENDBRANCH  17  18
ENDBRANCH  10  12
ENDBRANCH   5   8
BRANCH   2  20
ATOM     20  C   UNL     1       6.037  -2.483   0.821  0.00  0.00    +0.252 C 
ATOM     21  O   UNL     1       7.012  -2.771   0.149  0.00  0.00    -0.270 OA
ATOM     22  N   UNL     1       6.142  -1.563   1.800  0.00  0.00    -0.281 N 
ATOM     23  H   UNL     1       5.395  -1.405   2.398  0.00  0.00    +0.155 HD
BRANCH  22  24
ATOM     24  C   UNL     1       7.328  -0.838   1.954  0.00  0.00    +0.034 A 
ATOM     25  C   UNL     1       8.082  -0.492   0.840  0.00  0.00    +0.025 A 
ATOM     26  C   UNL     1       9.252   0.225   0.995  0.00  0.00    +0.022 A 
ATOM     27  C   UNL     1       9.674   0.599   2.259  0.00  0.00    +0.041 A 
ATOM     28  C   UNL     1       8.925   0.256   3.371  0.00  0.00    +0.022 A 
ATOM     29  C   UNL     1       7.751  -0.456   3.221  0.00  0.00    +0.025 A 
ATOM     30 CL   UNL     1      11.145   1.500   2.451  0.00  0.00    -0.084 Cl
ENDBRANCH  22  24
ENDBRANCH   2  20
BRANCH   1  31
ATOM     31  N   UNL     1       3.861  -1.202  -0.693  0.00  0.00    -0.309 N 
ATOM     32  H   UNL     1       4.631  -0.637  -0.523  0.00  0.00    +0.153 HD
BRANCH  31  36
ATOM     33  C   UNL     1       0.739   0.192  -3.072  0.00  0.00    +0.000 A 
ATOM     34  C   UNL     1       1.408   1.063  -2.231  0.00  0.00    +0.002 A 
ATOM     35  C   UNL     1       2.444   0.604  -1.441  0.00  0.00    +0.023 A 
ATOM     36  C   UNL     1       2.813  -0.734  -1.491  0.00  0.00    +0.032 A 
ATOM     37  C   UNL     1       2.139  -1.606  -2.337  0.00  0.00    +0.023 A 
ATOM     38  C   UNL     1       1.105  -1.140  -3.124  0.00  0.00    +0.002 A 
ENDBRANCH  31  36
ENDBRANCH   1  31
TORSDOF 7
