REMARK  Name = ZINC28360426
REMARK  8 active torsions:
REMARK  status: ('A' for Active; 'I' for Inactive)
REMARK    1  A    between atoms: C_1  and  C_2
REMARK    2  A    between atoms: C_2  and  C_4
REMARK    3  A    between atoms: C_2  and  N_14
REMARK    4  A    between atoms: N_6  and  C_7
REMARK    5  A    between atoms: N_14  and  C_15
REMARK    6  A    between atoms: C_18  and  O_21
REMARK    7  A    between atoms: O_21  and  C_22
REMARK    8  A    between atoms: C_22  and  C_23
REMARK                            x       y       z     vdW  Elec       q    Type
REMARK                         _______ _______ _______ _____ _____    ______ ____
ROOT
ATOM      1  N   UNL     1       0.026   0.004  -0.357  0.00  0.00    -0.333 N 
ATOM      2  H   UNL     1       0.872  -0.460  -0.884  0.00  0.00    +0.147 HD
ENDROOT
BRANCH   1   3
ATOM      3  C   UNL     1      -1.024  -0.791   0.118  0.00  0.00    +0.028 A 
ATOM      4  C   UNL     1      -2.090  -0.206   0.789  0.00  0.00    +0.026 A 
ATOM      5  C   UNL     1      -3.127  -0.991   1.252  0.00  0.00    +0.047 A 
ATOM      6  C   UNL     1      -3.100  -2.364   1.057  0.00  0.00    +0.121 A 
ATOM      7  C   UNL     1      -2.033  -2.949   0.392  0.00  0.00    +0.047 A 
ATOM      8  C   UNL     1      -0.997  -2.166  -0.077  0.00  0.00    +0.026 A 
BRANCH   6   9
ATOM      9  O   UNL     1      -4.120  -3.136   1.518  0.00  0.00    -0.483 OA
BRANCH   9  10
ATOM     10  C   UNL     1      -5.186  -2.467   2.194  0.00  0.00    +0.324 C 
BRANCH  10  11
ATOM     11  C   UNL     1      -6.217  -3.477   2.630  0.00  0.00    +0.248 C 
ATOM     12  O   UNL     1      -6.054  -4.654   2.386  0.00  0.00    -0.272 OA
ATOM     13  N   UNL     1      -7.319  -3.072   3.291  0.00  0.00    -0.327 N 
ATOM     14  H   UNL     1      -8.071  -3.809   3.609  0.00  0.00    +0.145 HD
ATOM     15  H   UNL     1      -7.467  -2.005   3.512  0.00  0.00    +0.145 HD
ENDBRANCH  10  11
ENDBRANCH   9  10
ENDBRANCH   6   9
ENDBRANCH   1   3
BRANCH   1  17
ATOM     16  C   UNL     1      -0.813   2.112  -1.270  0.00  0.00    +0.038 C 
ATOM     17  C   UNL     1      -0.003   1.454  -0.151  0.00  0.00    +0.154 C 
BRANCH  17  18
ATOM     18  C   UNL     1       1.405   1.992  -0.167  0.00  0.00    +0.237 C 
ATOM     19  O   UNL     1       2.340   1.238  -0.333  0.00  0.00    -0.273 OA
ATOM     20  N   UNL     1       1.624   3.311   0.004  0.00  0.00    -0.284 N 
ATOM     21  H   UNL     1       0.774   4.006   0.069  0.00  0.00    +0.155 HD
BRANCH  20  22
ATOM     22  C   UNL     1       2.933   3.795   0.100  0.00  0.00    +0.034 A 
ATOM     23  C   UNL     1       3.248   5.053  -0.397  0.00  0.00    +0.023 A 
ATOM     24  C   UNL     1       4.541   5.529  -0.301  0.00  0.00    +0.003 A 
ATOM     25  C   UNL     1       5.522   4.755   0.290  0.00  0.00    +0.015 A 
ATOM     26  C   UNL     1       5.213   3.502   0.786  0.00  0.00    +0.020 A 
ATOM     27  C   UNL     1       3.920   3.022   0.698  0.00  0.00    +0.038 A 
ATOM     28 BR   UNL     1       6.558   2.446   1.594  0.00  0.00    -0.050 Br
ENDBRANCH  20  22
ENDBRANCH  17  18
ENDBRANCH   1  17
TORSDOF 7
