REMARK  Name = ZINC45069455
REMARK  9 active torsions:
REMARK  status: ('A' for Active; 'I' for Inactive)
REMARK    1  A    between atoms: C_1  and  C_2
REMARK    2  A    between atoms: C_2  and  C_3
REMARK    3  A    between atoms: C_3  and  N_4
REMARK    4  A    between atoms: C_5  and  C_7
REMARK    5  A    between atoms: C_7  and  C_8
REMARK    6  A    between atoms: C_8  and  N_9
REMARK    7  A    between atoms: N_9  and  S_10
REMARK    8  A    between atoms: S_10  and  C_13
REMARK    9  A    between atoms: C_14  and  N_21
REMARK                            x       y       z     vdW  Elec       q    Type
REMARK                         _______ _______ _______ _____ _____    ______ ____
ROOT
ATOM      1  S   UNL     1      -6.045  -7.564   0.716  0.00  0.00    +0.061 S 
ATOM      2  O   UNL     1      -6.072  -8.979   0.598  0.00  0.00    -0.153 OA
ATOM      3  O   UNL     1      -6.606  -6.882   1.829  0.00  0.00    -0.153 OA
ENDROOT
BRANCH   1   4
ATOM      4  C   UNL     1      -6.840  -6.923  -0.720  0.00  0.00    +0.140 A 
ATOM      5  C   UNL     1      -7.463  -5.682  -0.675  0.00  0.00    +0.053 A 
ATOM      6  C   UNL     1      -8.088  -5.181  -1.809  0.00  0.00    +0.040 A 
ATOM      7  C   UNL     1      -8.088  -5.917  -2.979  0.00  0.00    +0.021 A 
ATOM      8  C   UNL     1      -7.467  -7.152  -3.021  0.00  0.00    +0.032 A 
ATOM      9  C   UNL     1      -6.839  -7.652  -1.894  0.00  0.00    +0.047 A 
ATOM     10 BR   UNL     1      -5.984  -9.338  -1.958  0.00  0.00    -0.048 Br
ATOM     11 BR   UNL     1      -8.939  -5.234  -4.524  0.00  0.00    -0.050 Br
BRANCH   5  12
ATOM     12  N   UNL     1      -7.461  -4.941   0.509  0.00  0.00    -0.356 N 
ATOM     13  H   UNL     1      -6.763  -5.081   1.168  0.00  0.00    +0.142 HD
ATOM     14  H   UNL     1      -8.158  -4.287   0.672  0.00  0.00    +0.142 HD
ENDBRANCH   5  12
ENDBRANCH   1   4
BRANCH   1  15
ATOM     15  N   UNL     1      -4.454  -7.112   0.638  0.00  0.00    -0.189 NA
ATOM     16  H   UNL     1      -3.762  -7.786   0.547  0.00  0.00    +0.148 HD
BRANCH  15  17
ATOM     17  C   UNL     1      -4.090  -5.694   0.706  0.00  0.00    +0.115 C 
BRANCH  17  18
ATOM     18  C   UNL     1      -2.592  -5.565   0.988  0.00  0.00    +0.112 C 
BRANCH  18  20
ATOM     19  N   UNL     1      -0.941  -3.749   1.299  0.00  0.00    -0.315 N 
ATOM     20  C   UNL     1      -2.218  -4.107   1.058  0.00  0.00    +0.214 C 
ATOM     21  O   UNL     1      -3.067  -3.255   0.899  0.00  0.00    -0.276 OA
ATOM     22  H   UNL     1      -0.263  -4.431   1.426  0.00  0.00    +0.149 HD
BRANCH  19  23
ATOM     23  C   UNL     1      -0.578  -2.332   1.367  0.00  0.00    +0.104 C 
BRANCH  23  25
ATOM     24  C   UNL     1       1.300  -0.722   1.720  0.00  0.00    +0.005 C 
ATOM     25  C   UNL     1       0.920  -2.202   1.649  0.00  0.00    +0.015 C 
ENDBRANCH  23  25
ENDBRANCH  19  23
ENDBRANCH  18  20
ENDBRANCH  17  18
ENDBRANCH  15  17
ENDBRANCH   1  15
TORSDOF 8
