REMARK  Name = ZINC03145773
REMARK  12 active torsions:
REMARK  status: ('A' for Active; 'I' for Inactive)
REMARK    1  A    between atoms: C_1  and  C_2
REMARK    2  A    between atoms: C_5  and  N_8
REMARK    3  A    between atoms: N_8  and  C_9
REMARK    4  A    between atoms: C_9  and  C_10
REMARK    5  A    between atoms: N_12  and  N_13
REMARK    6  A    between atoms: C_14  and  C_15
REMARK    7  A    between atoms: C_16  and  C_21
REMARK    8  A    between atoms: N_22  and  N_23
REMARK    9  A    between atoms: C_24  and  C_26
REMARK   10  A    between atoms: C_26  and  N_27
REMARK   11  A    between atoms: N_27  and  C_28
REMARK   12  A    between atoms: C_31  and  C_34
REMARK                            x       y       z     vdW  Elec       q    Type
REMARK                         _______ _______ _______ _____ _____    ______ ____
ROOT
ATOM      1  C   UNL     1       0.367 -10.938   2.388  0.00  0.00    +0.003 A 
ATOM      2  C   UNL     1       0.679 -11.391   1.089  0.00  0.00    +0.003 A 
ATOM      3  C   UNL     1       0.797 -12.761   0.848  0.00  0.00    +0.010 A 
ATOM      4  C   UNL     1       0.608 -13.661   1.876  0.00  0.00    +0.001 A 
ATOM      5  C   UNL     1       0.301 -13.216   3.152  0.00  0.00    +0.001 A 
ATOM      6  C   UNL     1       0.186 -11.867   3.415  0.00  0.00    +0.010 A 
ENDROOT
BRANCH   1   8
ATOM      7  N   UNL     1       0.296  -8.645   1.683  0.00  0.00    -0.188 NA
ATOM      8  C   UNL     1       0.239  -9.498   2.660  0.00  0.00    +0.139 C 
BRANCH   7  11
ATOM      9  C   UNL     1       0.237  -6.385   0.935  0.00  0.00    +0.249 C 
ATOM     10  O   UNL     1       0.304  -6.775  -0.212  0.00  0.00    -0.272 OA
ATOM     11  N   UNL     1       0.280  -7.270   1.951  0.00  0.00    -0.206 N 
ATOM     12  H   UNL     1       0.299  -6.954   2.868  0.00  0.00    +0.177 HD
BRANCH   9  13
ATOM     13  C   UNL     1       0.106  -4.912   1.223  0.00  0.00    +0.199 C 
BRANCH  13  14
ATOM     14  N   UNL     1      -0.039  -4.179  -0.037  0.00  0.00    -0.335 N 
ATOM     15  H   UNL     1      -0.111  -4.663  -0.874  0.00  0.00    +0.147 HD
BRANCH  14  20
ATOM     16  C   UNL     1      -0.175   1.490  -0.019  0.00  0.00    +0.044 C 
ATOM     17  C   UNL     1      -0.139  -0.016  -0.024  0.00  0.00    -0.050 A 
ATOM     18  C   UNL     1      -0.137  -0.702  -1.224  0.00  0.00    +0.005 A 
ATOM     19  C   UNL     1      -0.103  -2.083  -1.232  0.00  0.00    +0.023 A 
ATOM     20  C   UNL     1      -0.072  -2.782  -0.033  0.00  0.00    +0.028 A 
ATOM     21  C   UNL     1      -0.074  -2.090   1.172  0.00  0.00    +0.023 A 
ATOM     22  C   UNL     1      -0.103  -0.709   1.173  0.00  0.00    +0.005 A 
ENDBRANCH  14  20
ENDBRANCH  13  14
ENDBRANCH   9  13
ENDBRANCH   7  11
ENDBRANCH   1   8
BRANCH   2  23
ATOM     23  C   UNL     1       0.879 -10.427  -0.004  0.00  0.00    +0.139 C 
ATOM     24  N   UNL     1       1.057 -10.850  -1.220  0.00  0.00    -0.188 NA
BRANCH  24  25
ATOM     25  N   UNL     1       1.351  -9.939  -2.243  0.00  0.00    -0.206 N 
ATOM     26  C   UNL     1       1.436 -10.363  -3.519  0.00  0.00    +0.249 C 
ATOM     27  O   UNL     1       1.170 -11.514  -3.795  0.00  0.00    -0.272 OA
ATOM     28  H   UNL     1       1.493  -9.002  -2.032  0.00  0.00    +0.177 HD
BRANCH  26  29
ATOM     29  C   UNL     1       1.863  -9.408  -4.604  0.00  0.00    +0.199 C 
BRANCH  29  30
ATOM     30  N   UNL     1       1.992 -10.133  -5.870  0.00  0.00    -0.335 N 
ATOM     31  H   UNL     1       1.739 -11.068  -5.921  0.00  0.00    +0.147 HD
BRANCH  30  32
ATOM     32  C   UNL     1       2.479  -9.478  -7.003  0.00  0.00    +0.028 A 
ATOM     33  C   UNL     1       2.748  -8.116  -6.958  0.00  0.00    +0.023 A 
ATOM     34  C   UNL     1       3.230  -7.471  -8.081  0.00  0.00    +0.005 A 
ATOM     35  C   UNL     1       3.444  -8.180  -9.249  0.00  0.00    -0.050 A 
ATOM     36  C   UNL     1       3.177  -9.536  -9.297  0.00  0.00    +0.005 A 
ATOM     37  C   UNL     1       2.701 -10.188  -8.176  0.00  0.00    +0.023 A 
ATOM     38  C   UNL     1       3.969  -7.474 -10.472  0.00  0.00    +0.044 C 
ENDBRANCH  30  32
ENDBRANCH  29  30
ENDBRANCH  26  29
ENDBRANCH  24  25
ENDBRANCH   2  23
TORSDOF 10
