REMARK  Name = ZINC66240968
REMARK  10 active torsions:
REMARK  status: ('A' for Active; 'I' for Inactive)
REMARK    1  A    between atoms: C_1  and  C_2
REMARK    2  A    between atoms: C_2  and  C_3
REMARK    3  A    between atoms: C_2  and  C_4
REMARK    4  A    between atoms: C_2  and  C_5
REMARK    5  A    between atoms: C_5  and  C_7
REMARK    6  A    between atoms: C_5  and  N_12
REMARK    7  A    between atoms: C_13  and  C_15
REMARK    8  A    between atoms: C_18  and  N_21
REMARK    9  A    between atoms: C_22  and  N_28
REMARK   10  A    between atoms: C_23  and  C_26
REMARK                            x       y       z     vdW  Elec       q    Type
REMARK                         _______ _______ _______ _____ _____    ______ ____
ROOT
ATOM      1  C   UNL     1      -0.295  -4.124  -1.760  0.00  0.00    +0.037 A 
ATOM      2  C   UNL     1       0.812  -4.812  -1.258  0.00  0.00    +0.015 A 
ATOM      3  C   UNL     1       0.828  -6.189  -1.266  0.00  0.00    +0.028 A 
ATOM      4  C   UNL     1      -0.258  -6.895  -1.774  0.00  0.00    +0.067 A 
ATOM      5  C   UNL     1      -1.362  -6.213  -2.275  0.00  0.00    +0.028 A 
ATOM      6  C   UNL     1      -1.386  -4.837  -2.264  0.00  0.00    +0.015 A 
ENDROOT
BRANCH   4   7
ATOM      7  N   UNL     1      -0.239  -8.292  -1.782  0.00  0.00    -0.218 N 
ATOM      8  C   UNL     1      -1.313  -9.103  -1.595  0.00  0.00    +0.137 A 
ATOM      9  C   UNL     1      -0.852 -10.414  -1.681  0.00  0.00    +0.111 A 
ATOM     10  C   UNL     1       0.539 -10.350  -1.927  0.00  0.00    +0.155 A 
ATOM     11  N   UNL     1       0.888  -9.095  -1.990  0.00  0.00    -0.172 NA
BRANCH   8  12
ATOM     12  N   UNL     1      -2.614  -8.703  -1.363  0.00  0.00    -0.342 N 
ATOM     13  H   UNL     1      -2.831  -7.759  -1.321  0.00  0.00    +0.144 HD
ATOM     14  H   UNL     1      -3.311  -9.367  -1.242  0.00  0.00    +0.144 HD
ENDBRANCH   8  12
BRANCH   9  15
ATOM     15  C   UNL     1      -1.638 -11.603  -1.546  0.00  0.00    +0.104 C 
ATOM     16  N   UNL     1      -2.262 -12.547  -1.439  0.00  0.00    -0.191 NA
ENDBRANCH   9  15
ENDBRANCH   4   7
BRANCH   1  18
ATOM     17  N   UNL     1       0.738  -1.962  -1.265  0.00  0.00    -0.304 N 
ATOM     18  C   UNL     1      -0.315  -2.648  -1.752  0.00  0.00    +0.245 C 
ATOM     19  O   UNL     1      -1.282  -2.051  -2.184  0.00  0.00    -0.270 OA
ATOM     20  H   UNL     1       1.509  -2.439  -0.920  0.00  0.00    +0.150 HD
BRANCH  17  21
ATOM     21  C   UNL     1       0.718  -0.497  -1.257  0.00  0.00    +0.115 C 
BRANCH  21  22
ATOM     22  C   UNL     1       2.132   0.024  -1.268  0.00  0.00    +0.010 A 
ATOM     23  C   UNL     1       2.646   1.083  -1.939  0.00  0.00    +0.013 A 
ATOM     24  C   UNL     1       3.988   1.380  -1.796  0.00  0.00    +0.008 A 
ATOM     25  C   UNL     1       4.751   0.604  -0.988  0.00  0.00    +0.045 A 
ATOM     26  S   UNL     1       3.563  -0.588  -0.393  0.00  0.00    -0.100 S 
ENDBRANCH  21  22
BRANCH  21  28
ATOM     27  C   UNL     1      -0.019   1.526   0.010  0.00  0.00    +0.013 C 
ATOM     28  C   UNL     1       0.002  -0.004   0.002  0.00  0.00    -0.015 C 
ATOM     29  C   UNL     1       0.742  -0.511   1.242  0.00  0.00    +0.013 C 
ATOM     30  C   UNL     1      -1.433  -0.534   0.013  0.00  0.00    +0.013 C 
ENDBRANCH  21  28
ENDBRANCH  17  21
ENDBRANCH   1  18
TORSDOF 7
