REMARK  Name = ZINC09109319
REMARK  10 active torsions:
REMARK  status: ('A' for Active; 'I' for Inactive)
REMARK    1  A    between atoms: C_1  and  C_2
REMARK    2  A    between atoms: C_2  and  O_3
REMARK    3  A    between atoms: O_3  and  C_4
REMARK    4  A    between atoms: C_6  and  C_11
REMARK    5  A    between atoms: C_9  and  O_10
REMARK    6  A    between atoms: C_13  and  C_20
REMARK    7  A    between atoms: C_14  and  C_19
REMARK    8  A    between atoms: N_22  and  C_23
REMARK    9  A    between atoms: C_25  and  C_30
REMARK   10  A    between atoms: C_27  and  C_29
REMARK                            x       y       z     vdW  Elec       q    Type
REMARK                         _______ _______ _______ _____ _____    ______ ____
ROOT
ATOM      1  C   UNL     1       1.367  -5.448   0.220  0.00  0.00    +0.142 C 
ATOM      2  C   UNL     1       0.648  -5.932   1.463  0.00  0.00    +0.056 C 
ATOM      3  C   UNL     1       0.158  -7.189   1.456  0.00  0.00    +0.019 C 
ATOM      4  N   UNL     1       0.305  -7.998   0.364  0.00  0.00    -0.273 N 
ATOM      5  C   UNL     1       0.930  -7.622  -0.759  0.00  0.00    +0.304 C 
ATOM      6  O   UNL     1       1.012  -8.412  -1.679  0.00  0.00    -0.252 OA
ATOM      7  N   UNL     1       1.471  -6.397  -0.902  0.00  0.00    -0.288 N 
ATOM      8  C   UNL     1      -0.564  -7.710   2.672  0.00  0.00    +0.061 C 
ATOM      9  H   UNL     1      -0.063  -8.894   0.405  0.00  0.00    +0.156 HD
ATOM     10  H   UNL     1       1.920  -6.145  -1.724  0.00  0.00    +0.151 HD
ENDROOT
BRANCH   1  13
ATOM     11  C   UNL     1       0.505  -1.829  -0.441  0.00  0.00    +0.162 A 
ATOM     12  C   UNL     1       1.158  -2.963   0.016  0.00  0.00    +0.055 A 
ATOM     13  C   UNL     1       0.655  -4.216  -0.278  0.00  0.00    -0.019 A 
ATOM     14  C   UNL     1      -0.499  -4.343  -1.029  0.00  0.00    +0.009 A 
ATOM     15  C   UNL     1      -1.155  -3.216  -1.489  0.00  0.00    +0.049 A 
ATOM     16  C   UNL     1      -0.660  -1.957  -1.192  0.00  0.00    +0.158 A 
BRANCH  16  17
ATOM     17  O   UNL     1      -1.307  -0.847  -1.638  0.00  0.00    -0.503 OA
ATOM     18  H   UNL     1      -1.014  -0.544  -2.509  0.00  0.00    +0.292 HD
ENDBRANCH  16  17
BRANCH  11  19
ATOM     19  O   UNL     1       0.998  -0.596  -0.152  0.00  0.00    -0.489 OA
BRANCH  19  21
ATOM     20  C   UNL     1       2.672   0.917   0.715  0.00  0.00    +0.048 C 
ATOM     21  C   UNL     1       2.245  -0.542   0.545  0.00  0.00    +0.226 C 
ENDBRANCH  19  21
ENDBRANCH  11  19
ENDBRANCH   1  13
BRANCH   2  22
ATOM     22  C   UNL     1       0.496  -5.093   2.594  0.00  0.00    +0.248 C 
ATOM     23  O   UNL     1       1.456  -4.843   3.300  0.00  0.00    -0.270 OA
ATOM     24  N   UNL     1      -0.712  -4.572   2.889  0.00  0.00    -0.282 N 
ATOM     25  H   UNL     1      -1.494  -4.845   2.385  0.00  0.00    +0.155 HD
BRANCH  24  26
ATOM     26  C   UNL     1      -0.836  -3.637   3.922  0.00  0.00    +0.034 A 
ATOM     27  C   UNL     1       0.194  -2.741   4.177  0.00  0.00    +0.026 A 
ATOM     28  C   UNL     1       0.068  -1.819   5.197  0.00  0.00    -0.048 A 
ATOM     29  C   UNL     1      -1.083  -1.786   5.964  0.00  0.00    +0.006 A 
ATOM     30  C   UNL     1      -2.110  -2.678   5.713  0.00  0.00    -0.048 A 
ATOM     31  C   UNL     1      -1.992  -3.599   4.690  0.00  0.00    +0.026 A 
ATOM     32  C   UNL     1      -3.362  -2.640   6.551  0.00  0.00    +0.044 C 
ATOM     33  C   UNL     1       1.185  -0.846   5.476  0.00  0.00    +0.044 C 
ENDBRANCH  24  26
ENDBRANCH   2  22
TORSDOF 6
