REMARK  Name = ZINC20528548
REMARK  3 active torsions:
REMARK  status: ('A' for Active; 'I' for Inactive)
REMARK    1  A    between atoms: C_5  and  O_17
REMARK    2  A    between atoms: C_6  and  C_7
REMARK    3  A    between atoms: C_10  and  C_14
REMARK                            x       y       z     vdW  Elec       q    Type
REMARK                         _______ _______ _______ _____ _____    ______ ____
ROOT
ATOM      1  C   UNK     1      -0.017   1.377   0.010  0.00  0.00    +0.029 A 
ATOM      2  C   UNK     1       1.171   2.087   0.002  0.00  0.00    +0.043 A 
ATOM      3  C   UNK     1       2.381   1.415  -0.013  0.00  0.00    +0.043 A 
ATOM      4  C   UNK     1       2.404   0.032  -0.021  0.00  0.00    +0.084 A 
ATOM      5  C   UNK     1       1.213  -0.680  -0.013  0.00  0.00    +0.141 A 
ATOM      6  C   UNK     1       0.002  -0.004   0.002  0.00  0.00    +0.024 A 
ATOM      7 CL   UNK     1       3.921  -0.811  -0.040  0.00  0.00    -0.080 Cl
ATOM      8 CL   UNK     1       1.145   3.822   0.011  0.00  0.00    -0.083 Cl
ENDROOT
BRANCH   6   9
ATOM      9  C   UNK     1      -1.292  -0.776   0.011  0.00  0.00    +0.147 C 
ATOM     10  N   UNK     1      -2.437   0.083  -0.422  0.00  0.00    -0.288 NA
ATOM     11  C   UNK     1      -3.560  -0.760  -0.871  0.00  0.00    +0.179 C 
ATOM     12  C   UNK     1      -3.060  -1.837  -1.869  0.00  0.00    +0.101 C 
ATOM     13  S   UNK     1      -1.316  -2.056  -1.316  0.00  0.00    -0.135 S 
ATOM     14  H   UNK     1      -2.724   0.703   0.321  0.00  0.00    +0.124 HD
BRANCH  11  15
ATOM     15  C   UNK     1      -4.593   0.104  -1.547  0.00  0.00    +0.373 C 
ATOM     16  O   UNK     1      -4.346   1.274  -1.786  0.00  0.00    -0.245 OA
ATOM     17  O   UNK     1      -5.674  -0.367  -1.856  0.00  0.00    -0.245 OA
ENDBRANCH  11  15
ENDBRANCH   6   9
BRANCH   5  18
ATOM     18  O   UNK     1       1.233  -2.040  -0.021  0.00  0.00    -0.505 OA
ATOM     19  H   UNK     1       1.248  -2.438   0.860  0.00  0.00    +0.292 HD
ENDBRANCH   5  18
TORSDOF 3
