REMARK  Name = ZINC00953434
REMARK  8 active torsions:
REMARK  status: ('A' for Active; 'I' for Inactive)
REMARK    1  A    between atoms: C_1  and  C_2
REMARK    2  A    between atoms: C_2  and  C_4
REMARK    3  A    between atoms: C_2  and  N_27
REMARK    4  A    between atoms: N_6  and  N_7
REMARK    5  A    between atoms: C_8  and  C_9
REMARK    6  A    between atoms: C_18  and  O_19
REMARK    7  A    between atoms: O_19  and  C_20
REMARK    8  A    between atoms: C_20  and  C_21
REMARK                            x       y       z     vdW  Elec       q    Type
REMARK                         _______ _______ _______ _____ _____    ______ ____
ROOT
ATOM      1  N   UNL     1       3.827  -0.772  -3.871  0.00  0.00    -0.188 NA
ATOM      2  C   UNL     1       4.951  -1.401  -4.045  0.00  0.00    +0.142 C 
ENDROOT
BRANCH   2   3
ATOM      3  C   UNL     1       5.734  -1.839  -2.881  0.00  0.00    +0.044 A 
ATOM      4  C   UNL     1       7.001  -2.548  -3.058  0.00  0.00    -0.006 A 
ATOM      5  C   UNL     1       7.508  -2.831  -4.332  0.00  0.00    +0.009 A 
ATOM      6  C   UNL     1       8.693  -3.494  -4.453  0.00  0.00    +0.001 A 
ATOM      7  C   UNL     1       9.408  -3.893  -3.327  0.00  0.00    +0.001 A 
ATOM      8  C   UNL     1       8.944  -3.634  -2.073  0.00  0.00    +0.008 A 
ATOM      9  C   UNL     1       7.725  -2.953  -1.910  0.00  0.00    -0.017 A 
ATOM     10  C   UNL     1       7.214  -2.667  -0.632  0.00  0.00    +0.012 A 
ATOM     11  C   UNL     1       6.038  -2.002  -0.485  0.00  0.00    +0.047 A 
ATOM     12  C   UNL     1       5.286  -1.589  -1.584  0.00  0.00    +0.130 A 
BRANCH  12  13
ATOM     13  O   UNL     1       4.113  -0.932  -1.391  0.00  0.00    -0.487 OA
BRANCH  13  14
ATOM     14  C   UNL     1       3.711  -0.707  -0.039  0.00  0.00    +0.264 C 
BRANCH  14  15
ATOM     15  C   UNL     1       2.396   0.029  -0.022  0.00  0.00    -0.010 A 
ATOM     16  C   UNL     1       1.208  -0.679  -0.014  0.00  0.00    +0.007 A 
ATOM     17  C   UNL     1       0.002  -0.004   0.002  0.00  0.00    +0.000 A 
ATOM     18  C   UNL     1      -0.017   1.378   0.010  0.00  0.00    +0.000 A 
ATOM     19  C   UNL     1       1.171   2.086   0.002  0.00  0.00    +0.000 A 
ATOM     20  C   UNL     1       2.377   1.411  -0.014  0.00  0.00    +0.007 A 
ENDBRANCH  14  15
ENDBRANCH  13  14
ENDBRANCH  12  13
ENDBRANCH   2   3
BRANCH   1  23
ATOM     21  C   UNL     1       1.914   0.299  -4.800  0.00  0.00    +0.252 C 
ATOM     22  O   UNL     1       1.512   0.524  -3.678  0.00  0.00    -0.272 OA
ATOM     23  N   UNL     1       3.080  -0.353  -4.980  0.00  0.00    -0.205 N 
ATOM     24  H   UNL     1       3.401  -0.534  -5.877  0.00  0.00    +0.177 HD
BRANCH  21  26
ATOM     25  C   UNL     1       1.947   1.712  -6.838  0.00  0.00    +0.038 C 
ATOM     26  C   UNL     1       1.111   0.749  -5.993  0.00  0.00    +0.156 C 
BRANCH  26  27
ATOM     27  N   UNL     1      -0.104   1.429  -5.536  0.00  0.00    -0.312 N 
ATOM     28  C   UNL     1      -1.230   1.474  -6.358  0.00  0.00    +0.205 A 
ATOM     29  C   UNL     1      -2.458   2.149  -5.908  0.00  0.00    +0.294 A 
ATOM     30  O   UNL     1      -2.506   2.675  -4.812  0.00  0.00    -0.264 OA
ATOM     31  N   UNL     1      -3.528   2.179  -6.729  0.00  0.00    -0.271 N 
ATOM     32  H   UNL     1      -4.343   2.623  -6.446  0.00  0.00    +0.174 HD
ATOM     33  C   UNL     1      -3.468   1.589  -7.937  0.00  0.00    +0.343 A 
ATOM     34  O   UNL     1      -4.441   1.619  -8.666  0.00  0.00    -0.245 OA
ATOM     35  N   UNL     1      -2.351   0.967  -8.352  0.00  0.00    -0.226 N 
ATOM     36  H   UNL     1      -2.333   0.549  -9.228  0.00  0.00    +0.194 HD
ATOM     37  N   UNL     1      -1.213   0.913  -7.539  0.00  0.00    -0.149 NA
ATOM     38  H   UNL     1      -0.125   1.847  -4.661  0.00  0.00    +0.148 HD
ENDBRANCH  26  27
ENDBRANCH  21  26
ENDBRANCH   1  23
TORSDOF 7
