REMARK  Name = ZINC10273365
REMARK  10 active torsions:
REMARK  status: ('A' for Active; 'I' for Inactive)
REMARK    1  A    between atoms: C_1  and  O_2
REMARK    2  A    between atoms: O_2  and  C_3
REMARK    3  A    between atoms: C_5  and  C_10
REMARK    4  A    between atoms: C_8  and  O_9
REMARK    5  A    between atoms: C_12  and  C_29
REMARK    6  A    between atoms: C_13  and  C_18
REMARK    7  A    between atoms: C_18  and  S_19
REMARK    8  A    between atoms: S_19  and  C_22
REMARK    9  A    between atoms: C_29  and  O_31
REMARK   10  A    between atoms: O_31  and  C_32
REMARK                            x       y       z     vdW  Elec       q    Type
REMARK                         _______ _______ _______ _____ _____    ______ ____
ROOT
ATOM      1  C   UNL     1       2.458   0.347   4.215  0.00  0.00    +0.144 C 
ATOM      2  C   UNL     1       3.931   0.579   3.943  0.00  0.00    +0.080 C 
ATOM      3  C   UNL     1       4.818   0.110   4.847  0.00  0.00    +0.045 C 
ATOM      4  N   UNL     1       4.401  -0.550   5.967  0.00  0.00    -0.271 N 
ATOM      5  C   UNL     1       3.115  -0.782   6.256  0.00  0.00    +0.304 C 
ATOM      6  O   UNL     1       2.840  -1.379   7.279  0.00  0.00    -0.252 OA
ATOM      7  N   UNL     1       2.114  -0.376   5.451  0.00  0.00    -0.288 N 
ATOM      8  H   UNL     1       5.075  -0.870   6.588  0.00  0.00    +0.156 HD
ATOM      9  H   UNL     1       1.189  -0.554   5.680  0.00  0.00    +0.151 HD
ENDROOT
BRANCH   1  12
ATOM     10  C   UNL     1       0.717  -0.456   0.960  0.00  0.00    +0.162 A 
ATOM     11  C   UNL     1       1.243   0.250   2.030  0.00  0.00    +0.055 A 
ATOM     12  C   UNL     1       1.887  -0.422   3.052  0.00  0.00    -0.019 A 
ATOM     13  C   UNL     1       2.007  -1.799   3.010  0.00  0.00    +0.009 A 
ATOM     14  C   UNL     1       1.485  -2.509   1.945  0.00  0.00    +0.049 A 
ATOM     15  C   UNL     1       0.834  -1.842   0.920  0.00  0.00    +0.158 A 
BRANCH  10  17
ATOM     16  C   UNL     1       0.002   1.626   0.061  0.00  0.00    +0.277 C 
ATOM     17  O   UNL     1       0.084   0.203  -0.047  0.00  0.00    -0.491 OA
ENDBRANCH  10  17
BRANCH  15  18
ATOM     18  O   UNL     1       0.314  -2.540  -0.125  0.00  0.00    -0.503 OA
ATOM     19  H   UNL     1       0.930  -2.665  -0.860  0.00  0.00    +0.292 HD
ENDBRANCH  15  18
ENDBRANCH   1  12
BRANCH   2  20
ATOM     20  C   UNL     1       4.362   1.262   2.782  0.00  0.00    +0.339 C 
ATOM     21  O   UNL     1       4.308   2.477   2.736  0.00  0.00    -0.245 OA
BRANCH  20  22
ATOM     22  O   UNL     1       4.832   0.567   1.725  0.00  0.00    -0.465 OA
ATOM     23  C   UNL     1       5.250   1.322   0.586  0.00  0.00    +0.280 C 
ENDBRANCH  20  22
ENDBRANCH   2  20
BRANCH   3  24
ATOM     24  C   UNL     1       6.293   0.318   4.615  0.00  0.00    +0.223 C 
BRANCH  24  25
ATOM     25  S   UNL     1       6.897   1.631   5.710  0.00  0.00    +0.002 S 
ATOM     26  O   UNL     1       6.341   2.882   5.329  0.00  0.00    -0.169 OA
ATOM     27  O   UNL     1       6.851   1.200   7.063  0.00  0.00    -0.169 OA
BRANCH  25  28
ATOM     28  C   UNL     1       8.615   1.773   5.342  0.00  0.00    +0.089 A 
ATOM     29  C   UNL     1       9.535   1.009   6.035  0.00  0.00    +0.028 A 
ATOM     30  C   UNL     1      10.882   1.119   5.747  0.00  0.00    +0.022 A 
ATOM     31  C   UNL     1      11.310   1.995   4.765  0.00  0.00    +0.041 A 
ATOM     32  C   UNL     1      10.388   2.759   4.072  0.00  0.00    +0.022 A 
ATOM     33  C   UNL     1       9.041   2.644   4.357  0.00  0.00    +0.028 A 
ATOM     34 CL   UNL     1      13.002   2.135   4.403  0.00  0.00    -0.084 Cl
ENDBRANCH  25  28
ENDBRANCH  24  25
ENDBRANCH   3  24
TORSDOF 8
