REMARK  Name = ZINC27564272
REMARK  3 active torsions:
REMARK  status: ('A' for Active; 'I' for Inactive)
REMARK    1  A    between atoms: C_2  and  C_8
REMARK    2  A    between atoms: C_8  and  O_9
REMARK    3  A    between atoms: O_9  and  C_10
REMARK                            x       y       z     vdW  Elec       q    Type
REMARK                         _______ _______ _______ _____ _____    ______ ____
ROOT
ATOM      1  C   UNL     1       1.280   5.459   1.478  0.00  0.00    +0.259 C 
ATOM      2  C   UNL     1       1.092   5.862   2.922  0.00  0.00    +0.132 A 
ATOM      3  C   UNL     1       2.169   6.141   3.726  0.00  0.00    +0.161 A 
ATOM      4  N   UNL     1       1.669   6.453   4.954  0.00  0.00    -0.329 N 
ATOM      5  C   UNL     1       0.308   6.366   4.860  0.00  0.00    +0.198 A 
ATOM      6  N   UNL     1      -0.013   6.014   3.640  0.00  0.00    -0.234 NA
ATOM      7  N   UNL     1       3.451   6.094   3.262  0.00  0.00    -0.199 NA
ATOM      8  C   UNL     1       3.646   5.973   1.965  0.00  0.00    +0.182 C 
ATOM      9  N   UNL     1       2.601   5.972   1.069  0.00  0.00    -0.287 N 
ATOM     10  N   UNL     1       4.929   5.846   1.492  0.00  0.00    -0.331 N 
ATOM     11  H   UNL     1       5.677   5.846   2.110  0.00  0.00    +0.145 HD
ATOM     12  H   UNL     1       5.088   5.756   0.539  0.00  0.00    +0.145 HD
ATOM     13  H   UNL     1       2.180   6.690   5.743  0.00  0.00    +0.168 HD
ATOM     14  H   UNL     1       2.732   6.309   0.169  0.00  0.00    +0.151 HD
ENDROOT
BRANCH   1  15
ATOM     15  O   UNL     1       1.249   4.035   1.359  0.00  0.00    -0.348 OA
BRANCH  15  16
ATOM     16  C   UNL     1       1.226   3.566   0.009  0.00  0.00    +0.199 C 
BRANCH  16  18
ATOM     17  C   UNL     1      -0.017   1.383   0.010  0.00  0.00    +0.024 A 
ATOM     18  C   UNL     1       1.194   2.059   0.002  0.00  0.00    -0.003 A 
ATOM     19  C   UNL     1       2.370   1.334  -0.013  0.00  0.00    +0.116 A 
ATOM     20  N   UNL     1       2.351   0.016  -0.020  0.00  0.00    -0.262 NA
ATOM     21  C   UNL     1       1.219  -0.661  -0.013  0.00  0.00    +0.126 A 
ATOM     22  C   UNL     1       0.002  -0.004   0.002  0.00  0.00    +0.036 A 
ATOM     23 BR   UNL     1      -1.615  -0.984   0.013  0.00  0.00    -0.049 Br
ENDBRANCH  16  18
ENDBRANCH  15  16
ENDBRANCH   1  15
TORSDOF 3
