REMARK  Name = ZINC14461525
REMARK  8 active torsions:
REMARK  status: ('A' for Active; 'I' for Inactive)
REMARK    1  A    between atoms: C_1  and  C_2
REMARK    2  A    between atoms: C_2  and  N_3
REMARK    3  A    between atoms: N_3  and  C_4
REMARK    4  A    between atoms: N_3  and  C_6
REMARK    5  A    between atoms: C_4  and  C_5
REMARK    6  A    between atoms: C_9  and  C_12
REMARK    7  A    between atoms: C_23  and  N_29
REMARK    8  A    between atoms: C_25  and  O_28
REMARK                            x       y       z     vdW  Elec       q    Type
REMARK                         _______ _______ _______ _____ _____    ______ ____
ROOT
ATOM      1  C   UNL     1       0.364  -6.132  -1.473  0.00  0.00    +0.105 C 
ATOM      2  C   UNL     1      -0.987  -6.605  -0.967  0.00  0.00    +0.029 C 
ATOM      3  C   UNL     1      -1.409  -6.145   0.435  0.00  0.00    +0.033 C 
ATOM      4  C   UNL     1      -2.933  -6.121   0.304  0.00  0.00    -0.030 C 
ATOM      5  C   UNL     1      -3.277  -5.938  -0.965  0.00  0.00    -0.023 C 
ATOM      6  C   UNL     1      -2.041  -5.814  -1.797  0.00  0.00    +0.049 C 
ATOM      7  C   UNL     1      -1.962  -6.284  -3.197  0.00  0.00    -0.014 A 
ATOM      8  C   UNL     1      -3.074  -6.383  -4.008  0.00  0.00    +0.039 A 
ATOM      9  C   UNL     1      -2.949  -6.815  -5.315  0.00  0.00    +0.130 A 
ATOM     10  C   UNL     1      -1.705  -7.151  -5.817  0.00  0.00    +0.080 A 
ATOM     11  C   UNL     1      -0.584  -7.060  -5.011  0.00  0.00    +0.140 A 
ATOM     12  C   UNL     1      -0.702  -6.632  -3.690  0.00  0.00    +0.074 A 
ATOM     13  N   UNL     1       0.446  -6.582  -2.880  0.00  0.00    -0.334 N 
ATOM     14  H   UNL     1       1.304  -6.848  -3.246  0.00  0.00    +0.147 HD
ENDROOT
BRANCH   1  18
ATOM     15  C   UNL     1       0.610  -1.872  -1.272  0.00  0.00    +0.013 A 
ATOM     16  C   UNL     1       1.000  -2.639  -0.190  0.00  0.00    +0.022 A 
ATOM     17  C   UNL     1       0.921  -4.017  -0.255  0.00  0.00    +0.007 A 
ATOM     18  C   UNL     1       0.450  -4.629  -1.402  0.00  0.00    -0.027 A 
ATOM     19  C   UNL     1       0.059  -3.862  -2.483  0.00  0.00    +0.007 A 
ATOM     20  C   UNL     1       0.134  -2.484  -2.417  0.00  0.00    +0.022 A 
BRANCH  15  21
ATOM     21  N   UNL     1       0.690  -0.478  -1.206  0.00  0.00    -0.394 NA
ATOM     22  H   UNL     1       0.363  -0.081  -2.074  0.00  0.00    +0.126 HD
BRANCH  21  24
ATOM     23  C   UNL     1      -0.157   1.539  -0.105  0.00  0.00    +0.022 C 
ATOM     24  C   UNL     1      -0.145   0.009  -0.100  0.00  0.00    +0.081 C 
ENDBRANCH  21  24
BRANCH  21  25
ATOM     25  C   UNL     1       2.085  -0.078  -0.980  0.00  0.00    +0.081 C 
ATOM     26  C   UNL     1       2.933  -0.476  -2.190  0.00  0.00    +0.022 C 
ENDBRANCH  21  25
ENDBRANCH  15  21
ENDBRANCH   1  18
BRANCH   9  27
ATOM     27  N   UNL     1      -4.148  -6.919  -6.177  0.00  0.00    +0.057 N 
ATOM     28  O   UNL     1      -5.236  -6.626  -5.738  0.00  0.00    -0.126 OA
ATOM     29  O   UNL     1      -4.039  -7.297  -7.321  0.00  0.00    -0.126 OA
ENDBRANCH   9  27
BRANCH  11  30
ATOM     30  O   UNL     1       0.637  -7.391  -5.510  0.00  0.00    -0.505 OA
ATOM     31  H   UNL     1       1.110  -6.650  -5.914  0.00  0.00    +0.292 HD
ENDBRANCH  11  30
TORSDOF 6
