REMARK  Name = ZINC40779947
REMARK  5 active torsions:
REMARK  status: ('A' for Active; 'I' for Inactive)
REMARK    1  A    between atoms: C_3  and  O_23
REMARK    2  A    between atoms: C_6  and  N_7
REMARK    3  A    between atoms: C_9  and  N_22
REMARK    4  A    between atoms: C_10  and  N_14
REMARK    5  A    between atoms: O_23  and  C_24
REMARK                            x       y       z     vdW  Elec       q    Type
REMARK                         _______ _______ _______ _____ _____    ______ ____
ROOT
ATOM      1  N   UNL     1      -1.203  -0.722   0.032  0.00  0.00    -0.298 N 
ATOM      2  C   UNL     1      -1.186  -2.107  -0.085  0.00  0.00    +0.149 A 
ATOM      3  C   UNL     1      -2.380  -2.824  -0.195  0.00  0.00    +0.106 A 
ATOM      4  C   UNL     1      -2.306  -4.213  -0.310  0.00  0.00    +0.150 A 
ATOM      5  N   UNL     1      -1.110  -4.797  -0.311  0.00  0.00    -0.219 NA
ATOM      6  C   UNL     1      -0.007  -4.083  -0.205  0.00  0.00    +0.225 A 
ATOM      7  N   UNL     1      -0.033  -2.770  -0.099  0.00  0.00    -0.219 NA
ATOM      8  H   UNL     1      -2.048  -0.252   0.116  0.00  0.00    +0.154 HD
ENDROOT
BRANCH   4   9
ATOM      9  N   UNL     1      -3.464  -4.975  -0.423  0.00  0.00    -0.283 N 
ATOM     10  C   UNL     1      -3.385  -6.364  -0.428  0.00  0.00    +0.124 A 
ATOM     11  C   UNL     1      -4.553  -7.121  -0.429  0.00  0.00    +0.045 A 
ATOM     12  C   UNL     1      -4.460  -8.501  -0.435  0.00  0.00    +0.020 A 
ATOM     13  C   UNL     1      -3.197  -9.080  -0.440  0.00  0.00    +0.036 A 
ATOM     14  C   UNL     1      -2.080  -8.268  -0.439  0.00  0.00    +0.128 A 
ATOM     15  N   UNL     1      -2.200  -6.954  -0.438  0.00  0.00    -0.239 NA
ATOM     16 BR   UNL     1      -3.010 -10.962  -0.448  0.00  0.00    -0.049 Br
ATOM     17  H   UNL     1      -4.327  -4.538  -0.497  0.00  0.00    +0.155 HD
ENDBRANCH   4   9
BRANCH   1  23
ATOM     18  C   UNL     1       1.078  -0.462  -0.717  0.00  0.00    +0.027 A 
ATOM     19  C   UNL     1       2.264   0.247  -0.721  0.00  0.00    +0.048 A 
ATOM     20  C   UNL     1       2.377   1.415   0.019  0.00  0.00    +0.130 A 
ATOM     21  C   UNL     1       1.299   1.872   0.763  0.00  0.00    +0.048 A 
ATOM     22  C   UNL     1       0.113   1.165   0.768  0.00  0.00    +0.027 A 
ATOM     23  C   UNL     1      -0.001  -0.004   0.028  0.00  0.00    +0.033 A 
BRANCH  20  24
ATOM     24  O   UNL     1       3.544   2.112   0.015  0.00  0.00    -0.406 OA
BRANCH  24  25
ATOM     25  C   UNL     1       3.590   3.305   0.799  0.00  0.00    +0.575 C 
ATOM     26  F   UNL     1       3.344   2.992   2.140  0.00  0.00    -0.133 F 
ATOM     27  F   UNL     1       4.855   3.892   0.682  0.00  0.00    -0.133 F 
ATOM     28  F   UNL     1       2.617   4.201   0.343  0.00  0.00    -0.133 F 
ENDBRANCH  24  25
ENDBRANCH  20  24
ENDBRANCH   1  23
BRANCH   3  29
ATOM     29  N   UNL     1      -3.620  -2.165  -0.190  0.00  0.00    -0.353 N 
ATOM     30  H   UNL     1      -3.655  -1.199  -0.109  0.00  0.00    +0.143 HD
ATOM     31  H   UNL     1      -4.440  -2.676  -0.267  0.00  0.00    +0.143 HD
ENDBRANCH   3  29
TORSDOF 5
