REMARK  Name = ZINC01088026
REMARK  6 active torsions:
REMARK  status: ('A' for Active; 'I' for Inactive)
REMARK    1  A    between atoms: C_1  and  C_2
REMARK    2  A    between atoms: C_2  and  N_3
REMARK    3  A    between atoms: C_18  and  C_20
REMARK    4  A    between atoms: C_20  and  O_21
REMARK    5  A    between atoms: C_23  and  N_27
REMARK    6  A    between atoms: C_24  and  C_25
REMARK                            x       y       z     vdW  Elec       q    Type
REMARK                         _______ _______ _______ _____ _____    ______ ____
ROOT
ATOM      1  N   UNL     1       0.770   4.523  -4.510  0.00  0.00    -0.270 N 
ATOM      2  C   UNL     1       2.067   4.987  -4.387  0.00  0.00    +0.041 A 
ATOM      3  C   UNL     1       3.157   4.812  -5.242  0.00  0.00    +0.024 A 
ATOM      4  C   UNL     1       4.358   5.393  -4.866  0.00  0.00    +0.002 A 
ATOM      5  C   UNL     1       4.485   6.118  -3.699  0.00  0.00    +0.000 A 
ATOM      6  C   UNL     1       3.408   6.301  -2.839  0.00  0.00    +0.007 A 
ATOM      7  C   UNL     1       2.210   5.727  -3.207  0.00  0.00    +0.002 A 
ATOM      8  C   UNL     1       0.869   5.720  -2.542  0.00  0.00    +0.174 C 
ATOM      9  C   UNL     1      -0.004   4.904  -3.473  0.00  0.00    +0.243 C 
ATOM     10  O   UNL     1      -1.178   4.643  -3.316  0.00  0.00    -0.273 OA
ATOM     11  C   UNL     1       0.948   5.044  -1.198  0.00  0.00    +0.176 A 
ATOM     12  C   UNL     1       0.888   5.777  -0.067  0.00  0.00    +0.216 A 
ATOM     13  C   UNL     1       0.967   5.116   1.192  0.00  0.00    +0.228 A 
ATOM     14  O   UNL     1       0.922   5.744   2.239  0.00  0.00    -0.284 OA
ATOM     15  C   UNL     1       1.098   3.704   1.190  0.00  0.00    +0.098 A 
ATOM     16  C   UNL     1       1.147   3.062   0.008  0.00  0.00    +0.134 A 
ATOM     17  O   UNL     1       1.082   3.710  -1.153  0.00  0.00    -0.457 OA
ATOM     18  O   UNL     1       0.756   7.126  -0.099  0.00  0.00    -0.434 OA
ATOM     19  C   UNL     1       0.294   7.733  -1.205  0.00  0.00    +0.200 C 
ATOM     20  C   UNL     1       0.322   7.110  -2.411  0.00  0.00    +0.113 C 
ENDROOT
BRANCH  19  21
ATOM     21  N   UNL     1      -0.214   9.005  -1.115  0.00  0.00    -0.328 N 
ATOM     22  H   UNL     1      -0.549   9.452  -1.909  0.00  0.00    +0.145 HD
ATOM     23  H   UNL     1      -0.238   9.458  -0.257  0.00  0.00    +0.145 HD
ENDBRANCH  19  21
BRANCH   1  25
ATOM     24  C   UNL     1      -0.235   4.631  -6.737  0.00  0.00    +0.025 C 
ATOM     25  C   UNL     1       0.293   3.712  -5.633  0.00  0.00    +0.110 C 
ENDBRANCH   1  25
BRANCH  20  26
ATOM     26  C   UNL     1      -0.175   7.788  -3.570  0.00  0.00    +0.102 C 
ATOM     27  N   UNL     1      -0.569   8.326  -4.490  0.00  0.00    -0.191 NA
ENDBRANCH  20  26
BRANCH  16  28
ATOM     28  C   UNL     1       1.286   1.562  -0.002  0.00  0.00    +0.230 C 
BRANCH  28  29
ATOM     29  O   UNL     1      -0.011   0.963   0.007  0.00  0.00    -0.387 OA
ATOM     30  H   UNL     1       0.002  -0.004   0.002  0.00  0.00    +0.210 HD
ENDBRANCH  28  29
ENDBRANCH  16  28
TORSDOF 5
