REMARK  Name = ZINC36608270
REMARK  14 active torsions:
REMARK  status: ('A' for Active; 'I' for Inactive)
REMARK    1  A    between atoms: C_1  and  C_2
REMARK    2  A    between atoms: C_2  and  C_3
REMARK    3  A    between atoms: C_2  and  C_4
REMARK    4  A    between atoms: C_2  and  N_5
REMARK    5  A    between atoms: C_6  and  C_8
REMARK    6  A    between atoms: C_8  and  C_10
REMARK    7  A    between atoms: C_8  and  N_19
REMARK    8  A    between atoms: C_11  and  O_18
REMARK    9  A    between atoms: C_13  and  O_17
REMARK   10  A    between atoms: C_15  and  O_16
REMARK   11  A    between atoms: N_19  and  C_20
REMARK   12  A    between atoms: C_26  and  C_28
REMARK   13  A    between atoms: C_31  and  O_34
REMARK   14  A    between atoms: O_34  and  C_35
REMARK                            x       y       z     vdW  Elec       q    Type
REMARK                         _______ _______ _______ _____ _____    ______ ____
ROOT
ATOM      1  C   UNL     1       2.195   1.367  -3.386  0.00  0.00    +0.204 C 
ENDROOT
BRANCH   1   2
ATOM      2  C   UNL     1       2.550   1.193  -4.840  0.00  0.00    +0.065 A 
ATOM      3  C   UNL     1       3.847   1.431  -5.271  0.00  0.00    +0.129 A 
ATOM      4  C   UNL     1       4.174   1.272  -6.609  0.00  0.00    +0.091 A 
ATOM      5  C   UNL     1       3.204   0.873  -7.516  0.00  0.00    +0.124 A 
ATOM      6  C   UNL     1       1.908   0.633  -7.086  0.00  0.00    +0.091 A 
ATOM      7  C   UNL     1       1.582   0.789  -5.747  0.00  0.00    +0.129 A 
BRANCH   7   8
ATOM      8  O   UNL     1       0.313   0.550  -5.324  0.00  0.00    -0.506 OA
ATOM      9  H   UNL     1      -0.264   1.325  -5.354  0.00  0.00    +0.292 HD
ENDBRANCH   7   8
BRANCH   5  10
ATOM     10  O   UNL     1       3.525   0.717  -8.828  0.00  0.00    -0.507 OA
ATOM     11  H   UNL     1       3.824  -0.174  -9.057  0.00  0.00    +0.292 HD
ENDBRANCH   5  10
BRANCH   3  12
ATOM     12  O   UNL     1       4.797   1.822  -4.381  0.00  0.00    -0.506 OA
ATOM     13  H   UNL     1       5.420   1.124  -4.139  0.00  0.00    +0.292 HD
ENDBRANCH   3  12
ENDBRANCH   1   2
BRANCH   1  15
ATOM     14  N   UNL     1       0.422   3.091  -3.368  0.00  0.00    -0.309 N 
ATOM     15  C   UNL     1       1.714   2.775  -3.151  0.00  0.00    +0.239 C 
ATOM     16  O   UNL     1       2.490   3.625  -2.768  0.00  0.00    -0.273 OA
ATOM     17  H   UNL     1      -0.199   2.411  -3.675  0.00  0.00    +0.149 HD
BRANCH  14  19
ATOM     18  C   UNL     1       0.726   5.421  -4.046  0.00  0.00    +0.031 C 
ATOM     19  C   UNL     1      -0.046   4.460  -3.139  0.00  0.00    +0.026 C 
ATOM     20  C   UNL     1       0.188   4.842  -1.676  0.00  0.00    +0.031 C 
ATOM     21  C   UNL     1      -1.540   4.549  -3.457  0.00  0.00    +0.031 C 
ENDBRANCH  14  19
ENDBRANCH   1  15
BRANCH   1  22
ATOM     22  N   UNL     1       3.378   1.110  -2.560  0.00  0.00    -0.251 N 
ATOM     23  C   UNL     1       4.094  -0.017  -2.740  0.00  0.00    +0.252 C 
ATOM     24  O   UNL     1       4.984  -0.303  -1.962  0.00  0.00    -0.270 OA
BRANCH  22  25
ATOM     25  C   UNL     1       3.764   2.036  -1.586  0.00  0.00    +0.038 A 
ATOM     26  C   UNL     1       3.175   2.008  -0.328  0.00  0.00    +0.023 A 
ATOM     27  C   UNL     1       3.559   2.924   0.632  0.00  0.00    +0.002 A 
ATOM     28  C   UNL     1       4.527   3.867   0.343  0.00  0.00    +0.000 A 
ATOM     29  C   UNL     1       5.115   3.897  -0.908  0.00  0.00    +0.002 A 
ATOM     30  C   UNL     1       4.741   2.981  -1.871  0.00  0.00    +0.023 A 
ENDBRANCH  22  25
BRANCH  23  31
ATOM     31  C   UNL     1       3.798  -0.905  -3.882  0.00  0.00    +0.037 A 
ATOM     32  C   UNL     1       2.522  -0.913  -4.450  0.00  0.00    +0.016 A 
ATOM     33  C   UNL     1       2.250  -1.743  -5.515  0.00  0.00    +0.046 A 
ATOM     34  C   UNL     1       3.243  -2.571  -6.024  0.00  0.00    +0.120 A 
ATOM     35  C   UNL     1       4.514  -2.566  -5.461  0.00  0.00    +0.046 A 
ATOM     36  C   UNL     1       4.796  -1.734  -4.401  0.00  0.00    +0.016 A 
BRANCH  34  37
ATOM     37  O   UNL     1       2.971  -3.388  -7.074  0.00  0.00    -0.495 OA
ATOM     38  C   UNL     1       4.038  -4.213  -7.547  0.00  0.00    +0.277 C 
ENDBRANCH  34  37
ENDBRANCH  23  31
ENDBRANCH   1  22
TORSDOF 10
