REMARK  Name = ZINC03103686
REMARK  10 active torsions:
REMARK  status: ('A' for Active; 'I' for Inactive)
REMARK    1  A    between atoms: C_1  and  C_2
REMARK    2  A    between atoms: N_4  and  C_5
REMARK    3  A    between atoms: C_8  and  N_11
REMARK    4  A    between atoms: N_11  and  C_12
REMARK    5  A    between atoms: C_12  and  N_14
REMARK    6  A    between atoms: N_14  and  C_15
REMARK    7  A    between atoms: C_15  and  C_17
REMARK    8  A    between atoms: C_15  and  N_21
REMARK    9  A    between atoms: C_22  and  C_24
REMARK   10  A    between atoms: C_25  and  C_26
REMARK                            x       y       z     vdW  Elec       q    Type
REMARK                         _______ _______ _______ _____ _____    ______ ____
ROOT
ATOM      1  N   UNL     1      -5.875   5.851  -0.175  0.00  0.00    -0.305 N 
ATOM      2  H   UNL     1      -6.728   5.394  -0.110  0.00  0.00    +0.150 HD
ENDROOT
BRANCH   1   3
ATOM      3  C   UNL     1      -4.727   5.151  -0.089  0.00  0.00    +0.136 C 
ATOM      4  S   UNL     1      -3.221   5.958  -0.204  0.00  0.00    -0.019 S 
BRANCH   3   5
ATOM      5  N   UNL     1      -4.764   3.815   0.088  0.00  0.00    -0.297 N 
ATOM      6  H   UNL     1      -5.615   3.365   0.208  0.00  0.00    +0.154 HD
BRANCH   5  10
ATOM      7  C   UNL     1      -1.221   1.617   0.123  0.00  0.00    +0.033 A 
ATOM      8  C   UNL     1      -2.321   1.149  -0.583  0.00  0.00    +0.025 A 
ATOM      9  C   UNL     1      -3.496   1.874  -0.590  0.00  0.00    +0.025 A 
ATOM     10  C   UNL     1      -3.574   3.077   0.100  0.00  0.00    +0.033 A 
ATOM     11  C   UNL     1      -2.471   3.548   0.801  0.00  0.00    +0.025 A 
ATOM     12  C   UNL     1      -1.298   2.820   0.813  0.00  0.00    +0.025 A 
BRANCH   7  16
ATOM     13  C   UNL     1       1.981   0.005   1.280  0.00  0.00    +0.109 C 
ATOM     14  C   UNL     1       0.732   0.847   1.247  0.00  0.00    +0.214 C 
ATOM     15  O   UNL     1       0.412   1.496   2.220  0.00  0.00    -0.276 OA
ATOM     16  N   UNL     1      -0.031   0.878   0.136  0.00  0.00    -0.286 N 
ATOM     17  H   UNL     1       0.247   0.392  -0.657  0.00  0.00    +0.155 HD
ENDBRANCH   7  16
ENDBRANCH   5  10
ENDBRANCH   3   5
ENDBRANCH   1   3
BRANCH   1  18
ATOM     18  C   UNL     1      -5.835   7.303  -0.368  0.00  0.00    +0.211 C 
BRANCH  18  19
ATOM     19  C   UNL     1      -6.846   7.703  -1.444  0.00  0.00    +0.225 C 
ATOM     20 CL   UNL     1      -8.501   7.211  -0.926  0.00  0.00    -0.080 Cl
ATOM     21 CL   UNL     1      -6.796   9.490  -1.681  0.00  0.00    -0.080 Cl
ATOM     22 CL   UNL     1      -6.431   6.880  -2.994  0.00  0.00    -0.080 Cl
ENDBRANCH  18  19
BRANCH  18  23
ATOM     23  N   UNL     1      -6.171   7.972   0.891  0.00  0.00    -0.290 N 
ATOM     24  C   UNL     1      -5.202   8.557   1.624  0.00  0.00    +0.238 C 
ATOM     25  O   UNL     1      -4.048   8.528   1.239  0.00  0.00    -0.271 OA
ATOM     26  H   UNL     1      -7.091   7.995   1.198  0.00  0.00    +0.151 HD
BRANCH  24  27
ATOM     27  C   UNL     1      -5.539   9.226   2.882  0.00  0.00    +0.068 C 
ATOM     28  C   UNL     1      -4.570   9.810   3.615  0.00  0.00    +0.013 C 
BRANCH  28  29
ATOM     29  C   UNL     1      -4.908  10.482   4.880  0.00  0.00    -0.025 A 
ATOM     30  C   UNL     1      -6.234  10.522   5.322  0.00  0.00    +0.008 A 
ATOM     31  C   UNL     1      -6.542  11.149   6.511  0.00  0.00    +0.001 A 
ATOM     32  C   UNL     1      -5.545  11.748   7.260  0.00  0.00    +0.000 A 
ATOM     33  C   UNL     1      -4.231  11.718   6.827  0.00  0.00    +0.001 A 
ATOM     34  C   UNL     1      -3.906  11.090   5.643  0.00  0.00    +0.008 A 
ENDBRANCH  28  29
ENDBRANCH  24  27
ENDBRANCH  18  23
ENDBRANCH   1  18
TORSDOF 9
