REMARK  Name = ZINC06137108
REMARK  11 active torsions:
REMARK  status: ('A' for Active; 'I' for Inactive)
REMARK    1  A    between atoms: C_1  and  C_2
REMARK    2  A    between atoms: C_3  and  C_29
REMARK    3  A    between atoms: C_4  and  C_24
REMARK    4  A    between atoms: C_6  and  C_22
REMARK    5  A    between atoms: C_7  and  S_9
REMARK    6  A    between atoms: S_9  and  C_10
REMARK    7  A    between atoms: C_10  and  C_11
REMARK    8  A    between atoms: N_13  and  C_14
REMARK    9  A    between atoms: C_18  and  O_20
REMARK   10  A    between atoms: O_20  and  C_21
REMARK   11  A    between atoms: N_31  and  C_32
REMARK                            x       y       z     vdW  Elec       q    Type
REMARK                         _______ _______ _______ _____ _____    ______ ____
ROOT
ATOM      1  C   UNL     1      -0.376  11.942  -0.673  0.00  0.00    +0.061 C 
ATOM      2  C   UNL     1       0.957  11.535  -0.101  0.00  0.00    +0.014 C 
ATOM      3  C   UNL     1       1.882  12.475   0.153  0.00  0.00    +0.044 C 
ATOM      4  C   UNL     1       3.224  12.126   0.732  0.00  0.00    +0.105 C 
ATOM      5  C   UNL     1       3.497  10.655   0.603  0.00  0.00    +0.069 C 
ATOM      6  C   UNL     1       2.500   9.774   0.322  0.00  0.00    +0.080 C 
ATOM      7  N   UNL     1       1.207  10.213   0.151  0.00  0.00    -0.312 N 
ATOM      8  H   UNL     1       0.373   9.499   0.217  0.00  0.00    +0.152 HD
ENDROOT
BRANCH   4   9
ATOM      9  C   UNL     1       3.247  12.504   2.191  0.00  0.00    +0.002 A 
ATOM     10  C   UNL     1       4.065  13.371   2.835  0.00  0.00    +0.012 A 
ATOM     11  C   UNL     1       3.902  13.563   4.194  0.00  0.00    +0.008 A 
ATOM     12  C   UNL     1       2.928  12.878   4.843  0.00  0.00    +0.045 A 
ATOM     13  S   UNL     1       2.199  11.929   3.517  0.00  0.00    -0.101 S 
ENDBRANCH   4   9
BRANCH   3  14
ATOM     14  C   UNL     1       1.585  13.829  -0.132  0.00  0.00    +0.247 C 
ATOM     15  O   UNL     1       0.502  14.129  -0.601  0.00  0.00    -0.270 OA
ATOM     16  N   UNL     1       2.501  14.786   0.117  0.00  0.00    -0.282 N 
ATOM     17  H   UNL     1       3.508  14.508   0.460  0.00  0.00    +0.155 HD
BRANCH  16  18
ATOM     18  C   UNL     1       2.170  16.133  -0.063  0.00  0.00    +0.034 A 
ATOM     19  C   UNL     1       3.138  17.038  -0.481  0.00  0.00    +0.023 A 
ATOM     20  C   UNL     1       2.807  18.366  -0.663  0.00  0.00    +0.002 A 
ATOM     21  C   UNL     1       1.516  18.798  -0.418  0.00  0.00    +0.000 A 
ATOM     22  C   UNL     1       0.552  17.902   0.004  0.00  0.00    +0.002 A 
ATOM     23  C   UNL     1       0.875  16.571   0.183  0.00  0.00    +0.023 A 
ENDBRANCH  16  18
ENDBRANCH   3  14
BRANCH   5  24
ATOM     24  C   UNL     1       4.835  10.172   0.773  0.00  0.00    +0.098 C 
ATOM     25  N   UNL     1       5.896   9.789   0.908  0.00  0.00    -0.191 NA
ENDBRANCH   5  24
BRANCH   6  26
ATOM     26  S   UNL     1       2.865   8.056   0.184  0.00  0.00    -0.100 S 
BRANCH  26  27
ATOM     27  C   UNL     1       1.213   7.411  -0.176  0.00  0.00    +0.171 C 
BRANCH  27  28
ATOM     28  C   UNL     1       1.282   5.914  -0.339  0.00  0.00    +0.227 C 
ATOM     29  O   UNL     1       2.344   5.340  -0.223  0.00  0.00    -0.275 OA
ATOM     30  N   UNL     1       0.164   5.214  -0.613  0.00  0.00    -0.285 N 
ATOM     31  H   UNL     1      -0.783   5.742  -0.801  0.00  0.00    +0.155 HD
BRANCH  30  32
ATOM     32  C   UNL     1       0.207   3.816  -0.659  0.00  0.00    +0.037 A 
ATOM     33  C   UNL     1       1.070   3.120   0.177  0.00  0.00    +0.023 A 
ATOM     34  C   UNL     1       1.113   1.740   0.132  0.00  0.00    +0.005 A 
ATOM     35  C   UNL     1       0.297   1.049  -0.743  0.00  0.00    +0.046 A 
ATOM     36  C   UNL     1      -0.564   1.740  -1.584  0.00  0.00    +0.122 A 
ATOM     37  C   UNL     1      -0.613   3.124  -1.538  0.00  0.00    +0.069 A 
BRANCH  36  38
ATOM     38  O   UNL     1      -1.361   1.059  -2.449  0.00  0.00    -0.495 OA
ATOM     39  C   UNL     1      -1.261  -0.366  -2.439  0.00  0.00    +0.277 C 
ENDBRANCH  36  38
ENDBRANCH  30  32
ENDBRANCH  27  28
ENDBRANCH  26  27
ENDBRANCH   6  26
TORSDOF 9
