REMARK  Name = ZINC67193503
REMARK  9 active torsions:
REMARK  status: ('A' for Active; 'I' for Inactive)
REMARK    1  A    between atoms: C_1  and  C_2
REMARK    2  A    between atoms: C_2  and  C_4
REMARK    3  A    between atoms: C_2  and  N_20
REMARK    4  A    between atoms: C_4  and  C_5
REMARK    5  A    between atoms: N_7  and  N_8
REMARK    6  A    between atoms: N_8  and  C_9
REMARK    7  A    between atoms: C_9  and  N_11
REMARK    8  A    between atoms: N_11  and  C_12
REMARK    9  A    between atoms: C_21  and  C_23
REMARK                            x       y       z     vdW  Elec       q    Type
REMARK                         _______ _______ _______ _____ _____    ______ ____
ROOT
ATOM      1  C   UNL     1       0.724  -1.971   1.289  0.00  0.00    +0.231 C 
ATOM      2  O   UNL     1      -0.054  -2.525   0.542  0.00  0.00    -0.274 OA
ATOM      3  N   UNL     1       1.288  -2.657   2.303  0.00  0.00    -0.235 N 
ATOM      4  H   UNL     1       1.911  -2.214   2.901  0.00  0.00    +0.173 HD
ENDROOT
BRANCH   3   5
ATOM      5  N   UNL     1       0.977  -4.010   2.493  0.00  0.00    -0.246 N 
ATOM      6  H   UNL     1       0.354  -4.452   1.895  0.00  0.00    +0.172 HD
BRANCH   5   7
ATOM      7  C   UNL     1       1.541  -4.695   3.507  0.00  0.00    +0.151 C 
ATOM      8  S   UNL     1       1.160  -6.348   3.739  0.00  0.00    -0.017 S 
BRANCH   7   9
ATOM      9  N   UNL     1       2.406  -4.080   4.338  0.00  0.00    -0.294 N 
ATOM     10  H   UNL     1       2.670  -3.162   4.170  0.00  0.00    +0.154 HD
BRANCH   9  11
ATOM     11  C   UNL     1       2.922  -4.766   5.445  0.00  0.00    +0.068 A 
ATOM     12  C   UNL     1       3.424  -6.051   5.294  0.00  0.00    +0.029 A 
ATOM     13  C   UNL     1       3.934  -6.726   6.386  0.00  0.00    +0.040 A 
ATOM     14  C   UNL     1       3.945  -6.122   7.632  0.00  0.00    +0.126 A 
ATOM     15  C   UNL     1       3.445  -4.840   7.787  0.00  0.00    +0.078 A 
ATOM     16  C   UNL     1       2.939  -4.158   6.695  0.00  0.00    +0.147 A 
ATOM     17  F   UNL     1       2.456  -2.905   6.845  0.00  0.00    -0.203 F 
ATOM     18  F   UNL     1       4.443  -6.785   8.699  0.00  0.00    -0.205 F 
ENDBRANCH   9  11
ENDBRANCH   7   9
ENDBRANCH   5   7
ENDBRANCH   3   5
BRANCH   1  19
ATOM     19  C   UNL     1       1.060  -0.516   1.085  0.00  0.00    +0.119 C 
BRANCH  19  21
ATOM     20  C   UNL     1       0.533   1.524  -0.257  0.00  0.00    +0.028 C 
ATOM     21  C   UNL     1       0.290   0.019  -0.124  0.00  0.00    +0.079 C 
BRANCH  21  22
ATOM     22  N   UNL     1       0.753  -0.659  -1.337  0.00  0.00    -0.312 N 
ATOM     23  C   UNL     1      -0.060  -0.754  -2.408  0.00  0.00    +0.216 C 
ATOM     24  O   UNL     1      -1.175  -0.277  -2.368  0.00  0.00    -0.276 OA
ATOM     25  H   UNL     1       1.644  -1.041  -1.370  0.00  0.00    +0.149 HD
BRANCH  23  26
ATOM     26  C   UNL     1       0.416  -1.452  -3.656  0.00  0.00    +0.075 C 
ATOM     27  C   UNL     1       1.658  -0.740  -4.196  0.00  0.00    +0.013 C 
ATOM     28  C   UNL     1       2.141  -1.449  -5.463  0.00  0.00    +0.001 C 
ATOM     29  C   UNL     1       1.035  -1.416  -6.519  0.00  0.00    +0.000 C 
ATOM     30  C   UNL     1      -0.207  -2.128  -5.979  0.00  0.00    +0.001 C 
ATOM     31  C   UNL     1      -0.691  -1.419  -4.712  0.00  0.00    +0.013 C 
ENDBRANCH  23  26
ENDBRANCH  21  22
ENDBRANCH  19  21
ENDBRANCH   1  19
TORSDOF 8
