REMARK  Name = ZINC37129804
REMARK  5 active torsions:
REMARK  status: ('A' for Active; 'I' for Inactive)
REMARK    1  A    between atoms: C_1  and  C_2
REMARK    2  A    between atoms: C_5  and  C_7
REMARK    3  A    between atoms: C_7  and  C_9
REMARK    4  A    between atoms: C_7  and  N_10
REMARK    5  A    between atoms: N_10  and  C_11
REMARK                            x       y       z     vdW  Elec       q    Type
REMARK                         _______ _______ _______ _____ _____    ______ ____
ROOT
ATOM      1  C   UNL     1       2.566  -5.374   1.427  0.00  0.00    +0.044 A 
ATOM      2  C   UNL     1       1.817  -6.509   1.154  0.00  0.00    +0.051 A 
ATOM      3  C   UNL     1       2.172  -7.722   1.722  0.00  0.00    +0.069 A 
ATOM      4  C   UNL     1       3.282  -7.798   2.566  0.00  0.00    +0.068 A 
ATOM      5  C   UNL     1       4.027  -6.661   2.836  0.00  0.00    +0.045 A 
ATOM      6  C   UNL     1       3.674  -5.454   2.264  0.00  0.00    +0.041 A 
ATOM      7 BR   UNL     1       4.695  -3.904   2.627  0.00  0.00    -0.048 Br
ATOM      8  N   UNL     1       3.386  -9.128   2.976  0.00  0.00    -0.306 N 
ATOM      9  H   UNL     1       4.063  -9.488   3.569  0.00  0.00    +0.170 HD
ATOM     10  C   UNL     1       2.385  -9.826   2.406  0.00  0.00    +0.325 A 
ATOM     11  O   UNL     1       2.187 -11.017   2.556  0.00  0.00    -0.247 OA
ATOM     12  N   UNL     1       1.637  -9.006   1.644  0.00  0.00    -0.306 N 
ATOM     13  H   UNL     1       0.856  -9.265   1.129  0.00  0.00    +0.170 HD
ENDROOT
BRANCH   1  14
ATOM     14  N   UNL     1       2.210  -4.147   0.855  0.00  0.00    -0.336 N 
ATOM     15  H   UNL     1       2.735  -3.354   1.042  0.00  0.00    +0.147 HD
BRANCH  14  16
ATOM     16  C   UNL     1       1.043  -4.062  -0.027  0.00  0.00    +0.104 C 
ATOM     17  C   UNL     1       1.452  -4.441  -1.452  0.00  0.00    +0.033 C 
BRANCH  16  22
ATOM     18  C   UNL     1      -0.018   1.503   0.010  0.00  0.00    +0.051 C 
ATOM     19  C   UNL     1       0.002  -0.004   0.002  0.00  0.00    -0.013 A 
ATOM     20  C   UNL     1      -1.039  -0.872   0.002  0.00  0.00    +0.011 A 
ATOM     21  C   UNL     1      -0.780  -2.230  -0.007  0.00  0.00    +0.013 A 
ATOM     22  C   UNL     1       0.507  -2.653  -0.016  0.00  0.00    +0.010 A 
ATOM     23  S   UNL     1       1.404  -1.109  -0.018  0.00  0.00    -0.097 S 
ENDBRANCH  16  22
ENDBRANCH  14  16
ENDBRANCH   1  14
TORSDOF 3
