REMARK  Name = ZINC40797152
REMARK  6 active torsions:
REMARK  status: ('A' for Active; 'I' for Inactive)
REMARK    1  A    between atoms: C_3  and  O_24
REMARK    2  A    between atoms: C_6  and  N_7
REMARK    3  A    between atoms: C_9  and  N_23
REMARK    4  A    between atoms: C_10  and  N_14
REMARK    5  A    between atoms: N_14  and  C_15
REMARK    6  A    between atoms: O_24  and  C_25
REMARK                            x       y       z     vdW  Elec       q    Type
REMARK                         _______ _______ _______ _____ _____    ______ ____
ROOT
ATOM      1  N   UNL     1      -1.258  -0.729   0.297  0.00  0.00    -0.298 N 
ATOM      2  C   UNL     1      -1.228  -2.112   0.154  0.00  0.00    +0.149 A 
ATOM      3  C   UNL     1      -2.407  -2.828  -0.066  0.00  0.00    +0.106 A 
ATOM      4  C   UNL     1      -2.321  -4.214  -0.203  0.00  0.00    +0.149 A 
ATOM      5  N   UNL     1      -1.127  -4.797  -0.119  0.00  0.00    -0.219 NA
ATOM      6  C   UNL     1      -0.038  -4.084   0.090  0.00  0.00    +0.225 A 
ATOM      7  N   UNL     1      -0.075  -2.774   0.219  0.00  0.00    -0.219 NA
ATOM      8  H   UNL     1      -2.108  -0.262   0.319  0.00  0.00    +0.154 HD
ENDROOT
BRANCH   1  14
ATOM      9  C   UNL     1       1.072  -0.440  -0.271  0.00  0.00    +0.027 A 
ATOM     10  C   UNL     1       2.252   0.269  -0.161  0.00  0.00    +0.048 A 
ATOM     11  C   UNL     1       2.305   1.409   0.627  0.00  0.00    +0.130 A 
ATOM     12  C   UNL     1       1.174   1.838   1.306  0.00  0.00    +0.048 A 
ATOM     13  C   UNL     1      -0.007   1.130   1.197  0.00  0.00    +0.027 A 
ATOM     14  C   UNL     1      -0.061  -0.011   0.408  0.00  0.00    +0.033 A 
BRANCH  11  15
ATOM     15  O   UNL     1       3.468   2.107   0.736  0.00  0.00    -0.406 OA
BRANCH  15  16
ATOM     16  C   UNL     1       3.451   3.271   1.564  0.00  0.00    +0.575 C 
ATOM     17  F   UNL     1       3.107   2.909   2.871  0.00  0.00    -0.133 F 
ATOM     18  F   UNL     1       4.719   3.862   1.562  0.00  0.00    -0.133 F 
ATOM     19  F   UNL     1       2.511   4.181   1.070  0.00  0.00    -0.133 F 
ENDBRANCH  15  16
ENDBRANCH  11  15
ENDBRANCH   1  14
BRANCH   3  20
ATOM     20  N   UNL     1      -3.645  -2.171  -0.147  0.00  0.00    -0.353 N 
ATOM     21  H   UNL     1      -3.690  -1.206  -0.050  0.00  0.00    +0.143 HD
ATOM     22  H   UNL     1      -4.456  -2.681  -0.300  0.00  0.00    +0.143 HD
ENDBRANCH   3  20
BRANCH   4  23
ATOM     23  N   UNL     1      -3.463  -4.974  -0.423  0.00  0.00    -0.296 N 
ATOM     24  H   UNL     1      -4.316  -4.537  -0.572  0.00  0.00    +0.154 HD
BRANCH  23  25
ATOM     25  C   UNL     1      -3.384  -6.372  -0.428  0.00  0.00    +0.068 A 
ATOM     26  C   UNL     1      -2.304  -7.009   0.168  0.00  0.00    +0.027 A 
ATOM     27  C   UNL     1      -2.228  -8.389   0.161  0.00  0.00    +0.017 A 
ATOM     28  C   UNL     1      -3.226  -9.136  -0.439  0.00  0.00    +0.021 A 
ATOM     29  C   UNL     1      -4.304  -8.505  -1.035  0.00  0.00    +0.055 A 
ATOM     30  C   UNL     1      -4.389  -7.124  -1.026  0.00  0.00    +0.145 A 
ATOM     31  F   UNL     1      -5.444  -6.508  -1.602  0.00  0.00    -0.204 F 
ATOM     32 BR   UNL     1      -3.117 -11.024  -0.446  0.00  0.00    -0.050 Br
ENDBRANCH  23  25
ENDBRANCH   4  23
TORSDOF 6
