REMARK  Name = ZINC38337263
REMARK  10 active torsions:
REMARK  status: ('A' for Active; 'I' for Inactive)
REMARK    1  A    between atoms: C_1  and  C_2
REMARK    2  A    between atoms: C_2  and  O_32
REMARK    3  A    between atoms: C_6  and  O_31
REMARK    4  A    between atoms: C_8  and  O_30
REMARK    5  A    between atoms: C_12  and  O_17
REMARK    6  A    between atoms: C_14  and  C_15
REMARK    7  A    between atoms: C_14  and  C_16
REMARK    8  A    between atoms: C_18  and  C_28
REMARK    9  A    between atoms: C_18  and  O_29
REMARK   10  A    between atoms: C_25  and  O_27
REMARK                            x       y       z     vdW  Elec       q    Type
REMARK                         _______ _______ _______ _____ _____    ______ ____
ROOT
ATOM      1  C   UNL     1      -0.572   2.081   0.217  0.00  0.00    +0.041 C 
ATOM      2  C   UNL     1      -0.269   0.578   0.247  0.00  0.00    +0.069 C 
ATOM      3  C   UNL     1      -1.578  -0.226   0.295  0.00  0.00    +0.044 C 
ATOM      4  C   UNL     1      -1.592  -0.972   1.667  0.00  0.00    +0.008 C 
ATOM      5  C   UNL     1      -3.037  -0.976   2.129  0.00  0.00    +0.044 C 
ATOM      6  C   UNL     1      -3.197  -1.671   3.485  0.00  0.00    +0.148 C 
ATOM      7  C   UNL     1      -3.155  -3.118   3.363  0.00  0.00    +0.105 C 
ATOM      8  C   UNL     1      -1.840  -3.869   3.351  0.00  0.00    +0.058 C 
ATOM      9  C   UNL     1      -2.261  -5.228   2.755  0.00  0.00    +0.041 C 
ATOM     10  C   UNL     1      -3.668  -5.478   3.365  0.00  0.00    +0.123 C 
ATOM     11  C   UNL     1      -4.200  -4.096   3.839  0.00  0.00    +0.023 C 
ATOM     12  C   UNL     1      -4.318  -4.066   5.361  0.00  0.00    +0.016 C 
ATOM     13  C   UNL     1      -5.551  -3.810   3.182  0.00  0.00    +0.016 C 
ATOM     14  C   UNL     1      -0.690  -3.183   2.660  0.00  0.00    +0.072 C 
ATOM     15  C   UNL     1      -1.005  -2.366   1.424  0.00  0.00    +0.030 C 
ATOM     16  C   UNL     1       0.289  -2.132   0.611  0.00  0.00    +0.007 C 
ATOM     17  C   UNL     1       1.203  -1.126   1.300  0.00  0.00    +0.009 C 
ATOM     18  C   UNL     1       0.478   0.205   1.551  0.00  0.00    +0.050 C 
ATOM     19  C   UNL     1      -0.689  -0.093   2.538  0.00  0.00    +0.127 C 
ATOM     20  C   UNL     1       0.278  -4.336   2.271  0.00  0.00    +0.042 C 
ENDROOT
BRANCH  10  21
ATOM     21  O   UNL     1      -4.540  -6.025   2.376  0.00  0.00    -0.391 OA
ATOM     22  H   UNL     1      -4.251  -6.879   2.026  0.00  0.00    +0.210 HD
ENDBRANCH  10  21
BRANCH  19  23
ATOM     23  O   UNL     1      -1.367   1.128   2.890  0.00  0.00    -0.391 OA
ATOM     24  H   UNL     1      -0.842   1.724   3.442  0.00  0.00    +0.210 HD
ENDBRANCH  19  23
BRANCH  14  25
ATOM     25  O   UNL     1       0.026  -2.438   3.653  0.00  0.00    -0.388 OA
ATOM     26  H   UNL     1       0.383  -2.980   4.369  0.00  0.00    +0.210 HD
ENDBRANCH  14  25
BRANCH   7  27
ATOM     27  O   UNL     1      -3.459  -3.279   1.981  0.00  0.00    -0.385 OA
ATOM     28  H   UNL     1      -4.291  -2.867   1.711  0.00  0.00    +0.210 HD
ENDBRANCH   7  27
BRANCH   6  29
ATOM     29  O   UNL     1      -4.413  -1.240   4.098  0.00  0.00    -0.389 OA
ATOM     30  H   UNL     1      -4.457  -0.287   4.258  0.00  0.00    +0.210 HD
ENDBRANCH   6  29
BRANCH   2  31
ATOM     31  O   UNL     1       0.508   0.239  -0.902  0.00  0.00    -0.388 OA
ATOM     32  H   UNL     1       0.074   0.440  -1.743  0.00  0.00    +0.210 HD
ENDBRANCH   2  31
TORSDOF 6
