REMARK  Name = ZINC04234540
REMARK  3 active torsions:
REMARK  status: ('A' for Active; 'I' for Inactive)
REMARK    1  A    between atoms: C_3  and  C_6
REMARK    2  A    between atoms: C_9  and  C_15
REMARK    3  A    between atoms: C_9  and  O_19
REMARK                            x       y       z     vdW  Elec       q    Type
REMARK                         _______ _______ _______ _____ _____    ______ ____
ROOT
ATOM      1  C   UNL     1       1.479  -2.126  -0.024  0.00  0.00    +0.114 C 
ATOM      2  C   UNL     1       1.918  -2.618   1.382  0.00  0.00    +0.091 C 
ATOM      3  C   UNL     1       2.801  -3.834   1.011  0.00  0.00    +0.248 C 
ATOM      4  N   UNL     1       3.176  -3.630  -0.398  0.00  0.00    -0.181 N 
ATOM      5  N   UNL     1       2.680  -2.431  -0.843  0.00  0.00    -0.226 NA
ATOM      6  C   UNL     1       3.899  -4.492  -1.139  0.00  0.00    +0.316 C 
ATOM      7  O   UNL     1       4.294  -5.532  -0.650  0.00  0.00    -0.251 OA
ATOM      8  N   UNL     1       4.185  -4.201  -2.424  0.00  0.00    -0.312 N 
ATOM      9  H   UNL     1       2.446  -2.478  -1.823  0.00  0.00    +0.145 HD
ATOM     10  H   UNL     1       3.869  -3.371  -2.815  0.00  0.00    +0.147 HD
ATOM     11  H   UNL     1       4.705  -4.821  -2.958  0.00  0.00    +0.147 HD
ENDROOT
BRANCH   1  14
ATOM     12  C   UNL     1      -0.017   1.378   0.010  0.00  0.00    +0.008 A 
ATOM     13  C   UNL     1       0.002  -0.004   0.002  0.00  0.00    +0.013 A 
ATOM     14  C   UNL     1       1.196  -0.645  -0.013  0.00  0.00    +0.008 A 
ATOM     15  S   UNL     1       2.348   0.719  -0.017  0.00  0.00    -0.100 S 
ATOM     16  C   UNL     1       1.160   2.051   0.002  0.00  0.00    +0.045 A 
ENDBRANCH   1  14
BRANCH   3  17
ATOM     17  C   UNL     1       2.005  -5.132   1.164  0.00  0.00    +0.437 C 
ATOM     18  F   UNL     1       0.892  -5.099   0.318  0.00  0.00    -0.166 F 
ATOM     19  F   UNL     1       2.817  -6.219   0.825  0.00  0.00    -0.166 F 
ATOM     20  F   UNL     1       1.579  -5.264   2.490  0.00  0.00    -0.166 F 
ENDBRANCH   3  17
BRANCH   3  21
ATOM     21  O   UNL     1       3.968  -3.868   1.834  0.00  0.00    -0.363 OA
ATOM     22  H   UNL     1       4.560  -4.609   1.647  0.00  0.00    +0.212 HD
ENDBRANCH   3  21
TORSDOF 3
