REMARK  Name = ZINC09124566
REMARK  7 active torsions:
REMARK  status: ('A' for Active; 'I' for Inactive)
REMARK    1  A    between atoms: C_1  and  C_2
REMARK    2  A    between atoms: C_4  and  O_31
REMARK    3  A    between atoms: C_5  and  C_9
REMARK    4  A    between atoms: N_17  and  C_28
REMARK    5  A    between atoms: C_18  and  C_20
REMARK    6  A    between atoms: C_28  and  C_29
REMARK    7  A    between atoms: C_29  and  O_30
REMARK                            x       y       z     vdW  Elec       q    Type
REMARK                         _______ _______ _______ _____ _____    ______ ____
ROOT
ATOM      1  C   UNL     1      -0.230  -4.715  -0.091  0.00  0.00    +0.102 A 
ATOM      2  C   UNL     1       0.044  -5.343   1.129  0.00  0.00    +0.035 A 
ATOM      3  C   UNL     1       0.104  -6.696   0.852  0.00  0.00    +0.126 A 
ATOM      4  N   UNL     1      -0.130  -6.819  -0.489  0.00  0.00    -0.272 N 
ATOM      5  H   UNL     1      -0.150  -7.657  -0.976  0.00  0.00    +0.189 HD
ATOM      6  N   UNL     1      -0.325  -5.659  -1.007  0.00  0.00    -0.173 NA
ATOM      7  C   UNL     1       0.389  -7.416   2.098  0.00  0.00    +0.266 C 
ATOM      8  O   UNL     1       0.505  -8.623   2.191  0.00  0.00    -0.268 OA
ATOM      9  N   UNL     1       0.504  -6.551   3.122  0.00  0.00    -0.283 N 
ATOM     10  C   UNL     1       0.299  -5.193   2.604  0.00  0.00    +0.141 C 
ENDROOT
BRANCH   1  15
ATOM     11  C   UNL     1      -0.848   0.951  -0.945  0.00  0.00    +0.045 C 
ATOM     12  C   UNL     1      -0.688  -0.531  -0.723  0.00  0.00    -0.029 A 
ATOM     13  C   UNL     1      -1.598  -1.412  -1.278  0.00  0.00    +0.050 A 
ATOM     14  C   UNL     1      -1.455  -2.775  -1.077  0.00  0.00    +0.126 A 
ATOM     15  C   UNL     1      -0.389  -3.257  -0.311  0.00  0.00    +0.045 A 
ATOM     16  C   UNL     1       0.522  -2.362   0.243  0.00  0.00    +0.034 A 
ATOM     17  C   UNL     1       0.372  -1.005   0.030  0.00  0.00    +0.045 A 
ATOM     18 CL   UNL     1       1.512   0.110   0.717  0.00  0.00    -0.083 Cl
BRANCH  14  19
ATOM     19  O   UNL     1      -2.350  -3.641  -1.621  0.00  0.00    -0.506 OA
ATOM     20  H   UNL     1      -2.111  -3.948  -2.507  0.00  0.00    +0.292 HD
ENDBRANCH  14  19
ENDBRANCH   1  15
BRANCH  10  21
ATOM     21  C   UNL     1      -0.891  -4.556   3.274  0.00  0.00    -0.021 A 
ATOM     22  C   UNL     1      -2.046  -5.290   3.472  0.00  0.00    +0.007 A 
ATOM     23  C   UNL     1      -3.139  -4.707   4.086  0.00  0.00    +0.022 A 
ATOM     24  C   UNL     1      -3.076  -3.389   4.504  0.00  0.00    +0.059 A 
ATOM     25  C   UNL     1      -1.919  -2.655   4.306  0.00  0.00    +0.060 A 
ATOM     26  C   UNL     1      -0.825  -3.242   3.696  0.00  0.00    +0.027 A 
ATOM     27 CL   UNL     1      -1.840  -1.002   4.829  0.00  0.00    -0.082 Cl
ATOM     28 CL   UNL     1      -4.449  -2.657   5.275  0.00  0.00    -0.082 Cl
ENDBRANCH  10  21
BRANCH   9  29
ATOM     29  C   UNL     1       0.786  -6.905   4.516  0.00  0.00    +0.137 C 
BRANCH  29  30
ATOM     30  C   UNL     1       2.299  -6.912   4.744  0.00  0.00    +0.175 C 
BRANCH  30  31
ATOM     31  O   UNL     1       2.812  -5.588   4.579  0.00  0.00    -0.393 OA
ATOM     32  H   UNL     1       3.767  -5.518   4.710  0.00  0.00    +0.209 HD
ENDBRANCH  30  31
ENDBRANCH  29  30
ENDBRANCH   9  29
TORSDOF 6
