REMARK  Name = ZINC42439584
REMARK  4 active torsions:
REMARK  status: ('A' for Active; 'I' for Inactive)
REMARK    1  A    between atoms: C_1  and  C_2
REMARK    2  A    between atoms: C_6  and  C_21
REMARK    3  A    between atoms: N_12  and  C_13
REMARK    4  A    between atoms: C_13  and  C_18
REMARK                            x       y       z     vdW  Elec       q    Type
REMARK                         _______ _______ _______ _____ _____    ______ ____
ROOT
ATOM      1  C   UNL     1       0.014   1.529  -0.009  0.00  0.00    +0.028 C 
ATOM      2  C   UNL     1       0.021  -0.001  -0.011  0.00  0.00    +0.074 C 
ATOM      3  C   UNL     1       0.642  -0.510  -1.316  0.00  0.00    +0.023 C 
ATOM      4  C   UNL     1       0.774  -2.033  -1.253  0.00  0.00    +0.016 C 
ATOM      5  C   UNL     1       1.698  -2.420  -0.096  0.00  0.00    +0.092 C 
ATOM      6  C   UNL     1       1.089  -1.933   1.223  0.00  0.00    +0.122 C 
ATOM      7  N   UNL     1       0.822  -0.491   1.120  0.00  0.00    -0.282 N 
ATOM      8  C   UNL     1       1.304   0.365   2.042  0.00  0.00    +0.303 C 
ATOM      9  O   UNL     1       0.990   1.539   2.005  0.00  0.00    -0.253 OA
ATOM     10  N   UNL     1       2.134  -0.080   3.006  0.00  0.00    -0.283 N 
ATOM     11  H   UNL     1       2.440  -1.001   2.995  0.00  0.00    +0.151 HD
ENDROOT
BRANCH  10  12
ATOM     12  C   UNL     1       2.574   0.826   4.070  0.00  0.00    +0.137 C 
ATOM     13  C   UNL     1       1.361   1.295   4.899  0.00  0.00    +0.037 C 
ATOM     14  C   UNL     1       1.330   0.327   6.108  0.00  0.00    +0.003 C 
ATOM     15  C   UNL     1       2.833   0.128   6.426  0.00  0.00    +0.003 C 
ATOM     16  C   UNL     1       3.510   0.084   5.040  0.00  0.00    +0.037 C 
BRANCH  12  17
ATOM     17  C   UNL     1       3.285   2.014   3.474  0.00  0.00    +0.379 C 
ATOM     18  O   UNL     1       3.427   2.096   2.266  0.00  0.00    -0.244 OA
ATOM     19  O   UNL     1       3.717   2.893   4.201  0.00  0.00    -0.244 OA
ENDBRANCH  12  17
ENDBRANCH  10  12
BRANCH   5  20
ATOM     20  C   UNL     1       1.853  -3.918  -0.055  0.00  0.00    +0.215 C 
ATOM     21  O   UNL     1       1.282  -4.609  -0.872  0.00  0.00    -0.276 OA
ATOM     22  N   UNL     1       2.628  -4.490   0.888  0.00  0.00    -0.329 N 
ATOM     23  H   UNL     1       3.085  -3.937   1.541  0.00  0.00    +0.145 HD
ATOM     24  H   UNL     1       2.728  -5.455   0.914  0.00  0.00    +0.145 HD
ENDBRANCH   5  20
TORSDOF 3
