REMARK  Name = ZINC67268320
REMARK  3 active torsions:
REMARK  status: ('A' for Active; 'I' for Inactive)
REMARK    1  A    between atoms: C_1  and  C_2
REMARK    2  A    between atoms: C_6  and  C_24
REMARK    3  A    between atoms: C_10  and  C_12
REMARK                            x       y       z     vdW  Elec       q    Type
REMARK                         _______ _______ _______ _____ _____    ______ ____
ROOT
ATOM      1  C   UNL     1      -0.838   0.119   2.785  0.00  0.00    +0.028 C 
ATOM      2  C   UNL     1       0.612   0.453   2.431  0.00  0.00    +0.073 C 
ATOM      3  C   UNL     1       0.775   1.971   2.312  0.00  0.00    +0.023 C 
ATOM      4  C   UNL     1      -0.054   2.479   1.130  0.00  0.00    +0.016 C 
ATOM      5  C   UNL     1       0.451   1.836  -0.163  0.00  0.00    +0.092 C 
ATOM      6  C   UNL     1       0.284   0.316  -0.073  0.00  0.00    +0.120 C 
ATOM      7  N   UNL     1       0.959  -0.165   1.144  0.00  0.00    -0.298 N 
ATOM      8  C   UNL     1       1.879  -1.149   1.080  0.00  0.00    +0.219 C 
ATOM      9  O   UNL     1       2.089  -1.714   0.028  0.00  0.00    -0.275 OA
ENDROOT
BRANCH   8  10
ATOM     10  C   UNL     1       2.644  -1.546   2.316  0.00  0.00    +0.075 C 
ATOM     11  C   UNL     1       1.833  -2.571   3.111  0.00  0.00    +0.015 C 
ATOM     12  C   UNL     1       2.607  -2.965   4.371  0.00  0.00    +0.036 C 
ATOM     13  C   UNL     1       3.957  -3.555   3.977  0.00  0.00    +0.112 C 
ATOM     14  C   UNL     1       4.768  -2.551   3.165  0.00  0.00    +0.036 C 
ATOM     15  C   UNL     1       3.986  -2.158   1.909  0.00  0.00    +0.015 C 
ATOM     16  C   UNL     1       4.725  -3.984   5.205  0.00  0.00    +0.244 C 
ATOM     17  O   UNL     1       5.101  -3.280   6.119  0.00  0.00    -0.273 OA
ATOM     18  N   UNL     1       4.906  -5.314   5.071  0.00  0.00    -0.238 N 
ATOM     19  C   UNL     1       4.361  -5.774   3.938  0.00  0.00    +0.307 C 
ATOM     20  O   UNL     1       4.394  -6.940   3.597  0.00  0.00    -0.252 OA
ATOM     21  N   UNL     1       3.773  -4.799   3.219  0.00  0.00    -0.285 N 
ATOM     22  H   UNL     1       5.372  -5.869   5.716  0.00  0.00    +0.159 HD
ATOM     23  H   UNL     1       3.317  -4.899   2.369  0.00  0.00    +0.151 HD
ENDBRANCH   8  10
BRANCH   5  24
ATOM     24  C   UNL     1      -0.345   2.362  -1.330  0.00  0.00    +0.215 C 
ATOM     25  O   UNL     1      -0.981   1.597  -2.024  0.00  0.00    -0.276 OA
ATOM     26  N   UNL     1      -0.349   3.682  -1.603  0.00  0.00    -0.329 N 
ATOM     27  H   UNL     1       0.159   4.293  -1.048  0.00  0.00    +0.145 HD
ATOM     28  H   UNL     1      -0.862   4.020  -2.354  0.00  0.00    +0.145 HD
ENDBRANCH   5  24
TORSDOF 2
