REMARK  Name = ZINC04574880
REMARK  6 active torsions:
REMARK  status: ('A' for Active; 'I' for Inactive)
REMARK    1  A    between atoms: C_2  and  C_3
REMARK    2  A    between atoms: C_3  and  O_4
REMARK    3  A    between atoms: O_4  and  C_5
REMARK    4  A    between atoms: C_8  and  C_12
REMARK    5  A    between atoms: C_14  and  C_25
REMARK    6  A    between atoms: C_15  and  N_24
REMARK                            x       y       z     vdW  Elec       q    Type
REMARK                         _______ _______ _______ _____ _____    ______ ____
ROOT
ATOM      1  C   UNL     1      -0.937   5.276   0.075  0.00  0.00    +0.101 C 
ATOM      2  C   UNL     1      -1.372   5.778   1.423  0.00  0.00    +0.098 C 
ATOM      3  C   UNL     1      -1.274   4.982   2.516  0.00  0.00    +0.198 C 
ATOM      4  O   UNL     1      -0.786   3.735   2.430  0.00  0.00    -0.445 OA
ATOM      5  C   UNL     1      -0.797   3.093   1.246  0.00  0.00    +0.115 C 
ATOM      6  C   UNL     1      -0.858   3.768   0.084  0.00  0.00    +0.046 C 
ATOM      7  C   UNL     1      -0.854   3.097  -1.154  0.00  0.00    +0.163 C 
ATOM      8  O   UNL     1      -0.926   3.741  -2.181  0.00  0.00    -0.292 OA
ATOM      9  C   UNL     1      -0.762   1.597  -1.227  0.00  0.00    +0.080 C 
ATOM     10  C   UNL     1      -0.013   1.086   0.008  0.00  0.00    +0.016 C 
ATOM     11  C   UNL     1      -0.737   1.583   1.260  0.00  0.00    +0.075 C 
ENDROOT
BRANCH   1  15
ATOM     12  C   UNL     1       2.906   6.892  -0.868  0.00  0.00    +0.140 A 
ATOM     13  C   UNL     1       1.817   7.166  -1.683  0.00  0.00    +0.047 A 
ATOM     14  C   UNL     1       0.576   6.643  -1.376  0.00  0.00    +0.008 A 
ATOM     15  C   UNL     1       0.418   5.846  -0.257  0.00  0.00    -0.033 A 
ATOM     16  C   UNL     1       1.499   5.575   0.561  0.00  0.00    +0.028 A 
ATOM     17  C   UNL     1       2.745   6.092   0.255  0.00  0.00    +0.083 A 
ATOM     18 CL   UNL     1       4.104   5.747   1.278  0.00  0.00    -0.080 Cl
BRANCH  12  19
ATOM     19  O   UNL     1       4.128   7.406  -1.168  0.00  0.00    -0.478 OA
BRANCH  19  20
ATOM     20  C   UNL     1       4.219   8.221  -2.339  0.00  0.00    +0.317 C 
BRANCH  20  22
ATOM     21  C   UNL     1       6.711   9.058  -2.639  0.00  0.00    +0.007 C 
ATOM     22  C   UNL     1       5.605   8.687  -2.506  0.00  0.00    -0.065 C 
ENDBRANCH  20  22
ENDBRANCH  19  20
ENDBRANCH  12  19
ENDBRANCH   1  15
BRANCH   3  23
ATOM     23  N   UNL     1      -1.682   5.462   3.736  0.00  0.00    -0.328 N 
ATOM     24  H   UNL     1      -2.035   6.362   3.809  0.00  0.00    +0.145 HD
ATOM     25  H   UNL     1      -1.616   4.901   4.524  0.00  0.00    +0.145 HD
ENDBRANCH   3  23
BRANCH   2  26
ATOM     26  C   UNL     1      -1.894   7.106   1.554  0.00  0.00    +0.101 C 
ATOM     27  N   UNL     1      -2.308   8.158   1.658  0.00  0.00    -0.191 NA
ENDBRANCH   2  26
TORSDOF 6
