REMARK  Name = ZINC39443731
REMARK  11 active torsions:
REMARK  status: ('A' for Active; 'I' for Inactive)
REMARK    1  A    between atoms: C_1  and  C_2
REMARK    2  A    between atoms: C_5  and  N_8
REMARK    3  A    between atoms: C_11  and  C_16
REMARK    4  A    between atoms: C_12  and  C_15
REMARK    5  A    between atoms: C_16  and  C_18
REMARK    6  A    between atoms: C_16  and  C_25
REMARK    7  A    between atoms: C_23  and  O_24
REMARK    8  A    between atoms: C_26  and  C_39
REMARK    9  A    between atoms: N_28  and  C_32
REMARK   10  A    between atoms: C_29  and  O_31
REMARK   11  A    between atoms: C_35  and  C_38
REMARK                            x       y       z     vdW  Elec       q    Type
REMARK                         _______ _______ _______ _____ _____    ______ ____
ROOT
ATOM      1  C   UNL     1       0.103  -7.541   1.475  0.00  0.00    +0.091 C 
ENDROOT
BRANCH   1   5
ATOM      2  N   UNL     1       0.792  -4.403  -0.339  0.00  0.00    -0.219 N 
ATOM      3  C   UNL     1       1.165  -5.356   0.540  0.00  0.00    +0.276 A 
ATOM      4  O   UNL     1       2.214  -5.394   1.157  0.00  0.00    -0.266 OA
ATOM      5  C   UNL     1       0.117  -6.303   0.615  0.00  0.00    +0.051 A 
ATOM      6  C   UNL     1      -0.867  -5.906  -0.217  0.00  0.00    +0.039 A 
ATOM      7  N   UNL     1      -0.483  -4.738  -0.813  0.00  0.00    -0.294 N 
ATOM      8  H   UNL     1      -1.003  -4.229  -1.456  0.00  0.00    +0.187 HD
ATOM      9  C   UNL     1      -2.171  -6.625  -0.446  0.00  0.00    +0.065 C 
BRANCH   2  14
ATOM     10  C   UNL     1       3.827   0.153  -1.823  0.00  0.00    +0.044 C 
ATOM     11  C   UNL     1       3.021  -1.057  -1.429  0.00  0.00    -0.050 A 
ATOM     12  C   UNL     1       1.770  -1.263  -1.982  0.00  0.00    +0.005 A 
ATOM     13  C   UNL     1       1.028  -2.372  -1.622  0.00  0.00    +0.028 A 
ATOM     14  C   UNL     1       1.540  -3.280  -0.705  0.00  0.00    +0.067 A 
ATOM     15  C   UNL     1       2.797  -3.071  -0.152  0.00  0.00    +0.028 A 
ATOM     16  C   UNL     1       3.536  -1.963  -0.519  0.00  0.00    +0.005 A 
ENDBRANCH   2  14
ENDBRANCH   1   5
BRANCH   1  17
ATOM     17  C   UNL     1      -1.088  -7.497   2.398  0.00  0.00    +0.008 C 
ATOM     18  C   UNL     1      -2.010  -8.428   2.523  0.00  0.00    +0.023 C 
ATOM     19  N   UNL     1      -2.968  -8.082   3.456  0.00  0.00    -0.266 N 
ATOM     20  N   UNL     1      -2.680  -6.826   4.007  0.00  0.00    -0.221 N 
ATOM     21  C   UNL     1      -1.438  -6.379   3.354  0.00  0.00    +0.250 C 
ATOM     22  C   UNL     1      -2.019  -9.717   1.741  0.00  0.00    +0.062 C 
ATOM     23  H   UNL     1      -3.732  -8.630   3.695  0.00  0.00    +0.170 HD
BRANCH  20  24
ATOM     24  C   UNL     1      -3.415  -6.142   4.977  0.00  0.00    +0.051 A 
ATOM     25  C   UNL     1      -2.996  -4.892   5.416  0.00  0.00    +0.025 A 
ATOM     26  C   UNL     1      -3.726  -4.219   6.376  0.00  0.00    +0.005 A 
ATOM     27  C   UNL     1      -4.873  -4.787   6.900  0.00  0.00    -0.050 A 
ATOM     28  C   UNL     1      -5.293  -6.031   6.465  0.00  0.00    +0.005 A 
ATOM     29  C   UNL     1      -4.571  -6.707   5.501  0.00  0.00    +0.025 A 
ATOM     30  C   UNL     1      -5.667  -4.049   7.947  0.00  0.00    +0.044 C 
ENDBRANCH  20  24
BRANCH  21  31
ATOM     31  O   UNL     1      -1.664  -5.163   2.638  0.00  0.00    -0.369 OA
ATOM     32  H   UNL     1      -1.892  -4.411   3.201  0.00  0.00    +0.212 HD
ENDBRANCH  21  31
ENDBRANCH   1  17
BRANCH   1  33
ATOM     33  C   UNL     1       1.369  -7.600   2.290  0.00  0.00    +0.006 A 
ATOM     34  C   UNL     1       1.618  -6.639   3.251  0.00  0.00    +0.008 A 
ATOM     35  C   UNL     1       2.779  -6.693   3.999  0.00  0.00    +0.001 A 
ATOM     36  C   UNL     1       3.694  -7.709   3.789  0.00  0.00    +0.004 A 
ATOM     37  C   UNL     1       3.449  -8.672   2.830  0.00  0.00    +0.046 A 
ATOM     38  C   UNL     1       2.282  -8.623   2.081  0.00  0.00    +0.121 A 
BRANCH  38  39
ATOM     39  O   UNL     1       2.036  -9.573   1.141  0.00  0.00    -0.506 OA
ATOM     40  H   UNL     1       2.378  -9.356   0.263  0.00  0.00    +0.292 HD
ENDBRANCH  38  39
ENDBRANCH   1  33
TORSDOF 7
