REMARK  Name = ZINC12281475
REMARK  6 active torsions:
REMARK  status: ('A' for Active; 'I' for Inactive)
REMARK    1  A    between atoms: C_4  and  C_26
REMARK    2  A    between atoms: C_5  and  C_7
REMARK    3  A    between atoms: C_14  and  C_17
REMARK    4  A    between atoms: C_17  and  N_18
REMARK    5  A    between atoms: C_19  and  C_21
REMARK    6  A    between atoms: C_21  and  N_22
REMARK                            x       y       z     vdW  Elec       q    Type
REMARK                         _______ _______ _______ _____ _____    ______ ____
ROOT
ATOM      1  C   UNL     1     -10.567   2.596   2.464  0.00  0.00    +0.025 A 
ATOM      2  C   UNL     1     -11.922   2.425   2.729  0.00  0.00    +0.012 A 
ATOM      3  C   UNL     1     -12.612   1.373   2.162  0.00  0.00    +0.001 A 
ATOM      4  C   UNL     1     -11.955   0.488   1.323  0.00  0.00    +0.007 A 
ATOM      5  C   UNL     1     -10.614   0.653   1.053  0.00  0.00    -0.002 A 
ATOM      6  C   UNL     1      -9.898   1.699   1.619  0.00  0.00    +0.132 A 
ATOM      7  O   UNL     1      -8.594   1.669   1.233  0.00  0.00    -0.486 OA
ATOM      8  C   UNL     1      -8.468   0.866   0.047  0.00  0.00    +0.195 C 
ATOM      9  C   UNL     1      -9.649  -0.124   0.178  0.00  0.00    +0.085 C 
ENDROOT
BRANCH   1  14
ATOM     10  C   UNL     1      -8.974   4.845   5.021  0.00  0.00    +0.001 A 
ATOM     11  C   UNL     1      -8.453   5.843   4.217  0.00  0.00    +0.001 A 
ATOM     12  C   UNL     1      -8.618   5.788   2.845  0.00  0.00    +0.013 A 
ATOM     13  C   UNL     1      -9.298   4.734   2.270  0.00  0.00    +0.063 A 
ATOM     14  C   UNL     1      -9.829   3.729   3.076  0.00  0.00    -0.003 A 
ATOM     15  C   UNL     1      -9.661   3.789   4.458  0.00  0.00    +0.009 A 
BRANCH  13  16
ATOM     16  C   UNL     1      -9.471   4.673   0.774  0.00  0.00    +0.418 C 
ATOM     17  F   UNL     1      -8.856   5.784   0.188  0.00  0.00    -0.166 F 
ATOM     18  F   UNL     1      -8.883   3.502   0.284  0.00  0.00    -0.166 F 
ATOM     19  F   UNL     1     -10.835   4.676   0.462  0.00  0.00    -0.166 F 
ENDBRANCH  13  16
ENDBRANCH   1  14
BRANCH   8  20
ATOM     20  C   UNL     1      -7.133   0.119   0.036  0.00  0.00    +0.149 C 
BRANCH  20  21
ATOM     21  N   UNL     1      -6.032   1.087   0.037  0.00  0.00    -0.310 N 
ATOM     22  C   UNL     1      -4.756   0.654   0.028  0.00  0.00    +0.230 C 
ATOM     23  O   UNL     1      -4.518  -0.535   0.021  0.00  0.00    -0.274 OA
ATOM     24  H   UNL     1      -6.223   2.038   0.043  0.00  0.00    +0.149 HD
BRANCH  22  25
ATOM     25  C   UNL     1      -3.624   1.649   0.028  0.00  0.00    +0.201 C 
BRANCH  25  26
ATOM     26  N   UNL     1      -2.345   0.934   0.018  0.00  0.00    -0.291 N 
ATOM     27  C   UNL     1      -1.187   1.624   0.017  0.00  0.00    +0.297 C 
ATOM     28  O   UNL     1      -1.204   2.840   0.023  0.00  0.00    -0.253 OA
ATOM     29  N   UNL     1      -0.011   0.966   0.007  0.00  0.00    -0.313 N 
ATOM     30  H   UNL     1      -2.332  -0.036   0.013  0.00  0.00    +0.151 HD
ATOM     31  H   UNL     1       0.002  -0.004   0.002  0.00  0.00    +0.146 HD
ATOM     32  H   UNL     1       0.822   1.462   0.002  0.00  0.00    +0.146 HD
ENDBRANCH  25  26
ENDBRANCH  22  25
ENDBRANCH  20  21
ENDBRANCH   8  20
TORSDOF 6
