REMARK  Name = ZINC06868253
REMARK  5 active torsions:
REMARK  status: ('A' for Active; 'I' for Inactive)
REMARK    1  A    between atoms: C_1  and  C_2
REMARK    2  A    between atoms: C_7  and  C_8
REMARK    3  A    between atoms: C_10  and  C_13
REMARK    4  A    between atoms: C_14  and  N_26
REMARK    5  A    between atoms: N_15  and  C_18
REMARK                            x       y       z     vdW  Elec       q    Type
REMARK                         _______ _______ _______ _____ _____    ______ ____
ROOT
ATOM      1  C   UNL     1       5.712  -1.242  -0.410  0.00  0.00    +0.191 A 
ATOM      2  C   UNL     1       4.764  -0.265  -0.677  0.00  0.00    +0.153 A 
ATOM      3  N   UNL     1       3.625  -0.651  -0.037  0.00  0.00    -0.198 N 
ATOM      4  N   UNL     1       3.913  -1.867   0.599  0.00  0.00    -0.058 NA
ATOM      5  N   UNL     1       5.137  -2.183   0.361  0.00  0.00    -0.122 NA
ENDROOT
BRANCH   3   6
ATOM      6  C   UNL     1       2.400   0.032  -0.021  0.00  0.00    +0.071 A 
ATOM      7  C   UNL     1       2.379   1.420  -0.013  0.00  0.00    +0.031 A 
ATOM      8  C   UNL     1       1.172   2.092   0.002  0.00  0.00    +0.042 A 
ATOM      9  C   UNL     1      -0.017   1.381   0.010  0.00  0.00    +0.142 A 
ATOM     10  C   UNL     1       0.002  -0.004   0.002  0.00  0.00    +0.078 A 
ATOM     11  C   UNL     1       1.208  -0.679  -0.014  0.00  0.00    +0.050 A 
ATOM     12 CL   UNL     1      -1.490  -0.892   0.011  0.00  0.00    -0.081 Cl
ATOM     13  F   UNL     1      -1.196   2.040   0.019  0.00  0.00    -0.204 F 
ENDBRANCH   3   6
BRANCH   1  16
ATOM     14  C   UNL     1       9.127  -1.766  -1.291  0.00  0.00    +0.203 A 
ATOM     15  N   UNL     1       8.014  -2.179  -0.650  0.00  0.00    -0.186 NA
ATOM     16  C   UNL     1       7.102  -1.252  -0.892  0.00  0.00    +0.282 A 
ATOM     17  O   UNL     1       7.688  -0.324  -1.667  0.00  0.00    -0.331 OA
ATOM     18  N   UNL     1       8.841  -0.632  -1.879  0.00  0.00    -0.056 NA
BRANCH  14  25
ATOM     19  C   UNL     1      11.335  -0.616  -2.765  0.00  0.00    +0.044 C 
ATOM     20  C   UNL     1      11.503  -1.922  -2.031  0.00  0.00    -0.040 A 
ATOM     21  C   UNL     1      12.717  -2.579  -2.059  0.00  0.00    +0.004 A 
ATOM     22  C   UNL     1      12.873  -3.777  -1.386  0.00  0.00    +0.000 A 
ATOM     23  C   UNL     1      11.815  -4.323  -0.682  0.00  0.00    +0.001 A 
ATOM     24  C   UNL     1      10.598  -3.672  -0.644  0.00  0.00    +0.012 A 
ATOM     25  C   UNL     1      10.434  -2.468  -1.324  0.00  0.00    +0.025 A 
ENDBRANCH  14  25
ENDBRANCH   1  16
BRANCH   2  26
ATOM     26  N   UNL     1       4.941   0.875  -1.439  0.00  0.00    -0.341 N 
ATOM     27  H   UNL     1       4.206   1.497  -1.560  0.00  0.00    +0.144 HD
ATOM     28  H   UNL     1       5.800   1.054  -1.853  0.00  0.00    +0.144 HD
ENDBRANCH   2  26
TORSDOF 4
