REMARK  Name = ZINC51756366
REMARK  4 active torsions:
REMARK  status: ('A' for Active; 'I' for Inactive)
REMARK    1  A    between atoms: C_4  and  C_6
REMARK    2  A    between atoms: C_6  and  C_7
REMARK    3  A    between atoms: C_7  and  N_8
REMARK    4  A    between atoms: N_11  and  N_12
REMARK                            x       y       z     vdW  Elec       q    Type
REMARK                         _______ _______ _______ _____ _____    ______ ____
ROOT
ATOM      1  N   UNL     1       1.590  -4.112  -1.478  0.00  0.00    -0.298 N 
ATOM      2  C   UNL     1       1.671  -4.773  -2.649  0.00  0.00    +0.316 C 
ATOM      3  O   UNL     1       1.578  -4.165  -3.698  0.00  0.00    -0.251 OA
ATOM      4  N   UNL     1       1.854  -6.109  -2.658  0.00  0.00    -0.219 N 
ATOM      5  H   UNL     1       1.664  -4.597  -0.641  0.00  0.00    +0.150 HD
ATOM      6  H   UNL     1       1.912  -6.585  -3.502  0.00  0.00    +0.174 HD
ENDROOT
BRANCH   4   7
ATOM      7  N   UNL     1       1.961  -6.809  -1.450  0.00  0.00    -0.246 N 
ATOM      8  C   UNL     1       2.151  -8.187  -1.459  0.00  0.00    +0.155 A 
ATOM      9  C   UNL     1       2.250  -8.878  -0.254  0.00  0.00    +0.083 A 
ATOM     10  C   UNL     1       2.438 -10.249  -0.277  0.00  0.00    +0.046 A 
ATOM     11  C   UNL     1       2.520 -10.886  -1.509  0.00  0.00    +0.079 A 
ATOM     12  C   UNL     1       2.413 -10.137  -2.667  0.00  0.00    +0.150 A 
ATOM     13  N   UNL     1       2.229  -8.831  -2.613  0.00  0.00    -0.216 NA
ATOM     14 CL   UNL     1       2.515 -10.926  -4.210  0.00  0.00    -0.060 Cl
ATOM     15 CL   UNL     1       2.756 -12.604  -1.594  0.00  0.00    -0.080 Cl
ATOM     16 CL   UNL     1       2.141  -8.030   1.257  0.00  0.00    -0.080 Cl
ATOM     17  H   UNL     1       1.903  -6.333  -0.607  0.00  0.00    +0.172 HD
ENDBRANCH   4   7
BRANCH   1  18
ATOM     18  C   UNL     1       1.390  -2.661  -1.468  0.00  0.00    +0.112 C 
BRANCH  18  19
ATOM     19  C   UNL     1       1.335  -2.163  -0.022  0.00  0.00    +0.081 C 
BRANCH  19  23
ATOM     20  C   UNL     1      -0.016   1.314   0.009  0.00  0.00    +0.119 A 
ATOM     21  C   UNL     1       1.186   1.946   0.001  0.00  0.00    +0.066 A 
ATOM     22  S   UNL     1       2.294   0.545  -0.017  0.00  0.00    -0.081 S 
ATOM     23  C   UNL     1       1.129  -0.670  -0.012  0.00  0.00    +0.080 A 
ATOM     24  N   UNL     1       0.002  -0.004   0.002  0.00  0.00    -0.252 NA
ENDBRANCH  19  23
ENDBRANCH  18  19
ENDBRANCH   1  18
TORSDOF 4
