REMARK  Name = ZINC58300280
REMARK  7 active torsions:
REMARK  status: ('A' for Active; 'I' for Inactive)
REMARK    1  A    between atoms: C_5  and  S_7
REMARK    2  A    between atoms: S_7  and  C_8
REMARK    3  A    between atoms: C_8  and  C_9
REMARK    4  A    between atoms: N_11  and  C_12
REMARK    5  A    between atoms: C_15  and  C_18
REMARK    6  A    between atoms: C_18  and  N_19
REMARK    7  A    between atoms: C_23  and  C_26
REMARK                            x       y       z     vdW  Elec       q    Type
REMARK                         _______ _______ _______ _____ _____    ______ ____
ROOT
ATOM      1  C   UNL     1      -1.900  -6.387   0.074  0.00  0.00    +0.033 A 
ATOM      2  C   UNL     1      -0.727  -7.126   0.160  0.00  0.00    +0.023 A 
ATOM      3  C   UNL     1      -0.785  -8.504   0.242  0.00  0.00    +0.003 A 
ATOM      4  C   UNL     1      -2.009  -9.147   0.238  0.00  0.00    -0.064 A 
ATOM      5  C   UNL     1      -3.178  -8.415   0.152  0.00  0.00    +0.003 A 
ATOM      6  C   UNL     1      -3.128  -7.036   0.077  0.00  0.00    +0.023 A 
ENDROOT
BRANCH   1   9
ATOM      7  C   UNL     1      -2.792  -4.243   0.590  0.00  0.00    +0.227 C 
ATOM      8  O   UNL     1      -3.738  -4.779   1.129  0.00  0.00    -0.275 OA
ATOM      9  N   UNL     1      -1.845  -4.992  -0.009  0.00  0.00    -0.285 N 
ATOM     10  H   UNL     1      -1.125  -4.563  -0.497  0.00  0.00    +0.155 HD
BRANCH   7  11
ATOM     11  C   UNL     1      -2.677  -2.741   0.590  0.00  0.00    +0.170 C 
BRANCH  11  12
ATOM     12  S   UNL     1      -4.095  -2.026   1.467  0.00  0.00    -0.114 S 
BRANCH  12  17
ATOM     13  C   UNL     1      -2.477   1.569   0.668  0.00  0.00    +0.001 A 
ATOM     14  C   UNL     1      -3.380   2.442   1.246  0.00  0.00    +0.001 A 
ATOM     15  C   UNL     1      -4.502   1.955   1.891  0.00  0.00    +0.021 A 
ATOM     16  C   UNL     1      -4.724   0.593   1.961  0.00  0.00    +0.054 A 
ATOM     17  C   UNL     1      -3.817  -0.288   1.381  0.00  0.00    +0.027 A 
ATOM     18  C   UNL     1      -2.692   0.206   0.733  0.00  0.00    +0.016 A 
ATOM     19 CL   UNL     1      -6.131  -0.018   2.773  0.00  0.00    -0.082 Cl
ENDBRANCH  12  17
ENDBRANCH  11  12
ENDBRANCH   7  11
ENDBRANCH   1   9
BRANCH   4  20
ATOM     20  C   UNL     1      -2.068 -10.650   0.327  0.00  0.00    -0.043 C 
BRANCH  20  21
ATOM     21  N   UNL     1      -2.135 -11.055   1.738  0.00  0.00    +0.383 N 
ATOM     22  C   UNL     1      -3.392 -10.573   2.324  0.00  0.00    -0.078 C 
ATOM     23  C   UNL     1      -3.431 -10.921   3.814  0.00  0.00    -0.018 C 
ATOM     24  C   UNL     1      -3.338 -12.441   3.980  0.00  0.00    +0.009 C 
ATOM     25  C   UNL     1      -2.061 -12.942   3.300  0.00  0.00    +0.058 C 
ATOM     26  C   UNL     1      -2.072 -12.519   1.829  0.00  0.00    -0.066 C 
ATOM     27  H   UNL     1      -1.357 -10.654   2.239  0.00  0.00    -0.081 HD
BRANCH  25  28
ATOM     28  C   UNL     1      -1.998 -14.445   3.391  0.00  0.00    +0.212 C 
ATOM     29  O   UNL     1      -1.962 -15.113   2.380  0.00  0.00    -0.276 OA
ATOM     30  N   UNL     1      -1.982 -15.046   4.597  0.00  0.00    -0.329 N 
ATOM     31  H   UNL     1      -2.010 -14.512   5.406  0.00  0.00    +0.145 HD
ATOM     32  H   UNL     1      -1.941 -16.014   4.656  0.00  0.00    +0.145 HD
ENDBRANCH  25  28
ENDBRANCH  20  21
ENDBRANCH   4  20
TORSDOF 7
