REMARK  Name = ZINC28537134
REMARK  9 active torsions:
REMARK  status: ('A' for Active; 'I' for Inactive)
REMARK    1  A    between atoms: C_2  and  C_3
REMARK    2  A    between atoms: C_3  and  N_4
REMARK    3  A    between atoms: C_6  and  O_24
REMARK    4  A    between atoms: C_8  and  S_10
REMARK    5  A    between atoms: S_10  and  C_11
REMARK    6  A    between atoms: C_11  and  C_12
REMARK    7  A    between atoms: N_14  and  C_15
REMARK    8  A    between atoms: C_18  and  C_21
REMARK    9  A    between atoms: O_24  and  C_25
REMARK                            x       y       z     vdW  Elec       q    Type
REMARK                         _______ _______ _______ _____ _____    ______ ____
ROOT
ATOM      1  N   UNL     1       4.347   5.516  -1.011  0.00  0.00    -0.221 N 
ATOM      2  C   UNL     1       4.709   4.273  -0.309  0.00  0.00    +0.158 C 
ATOM      3  C   UNL     1       3.456   3.445  -0.157  0.00  0.00    +0.208 C 
ATOM      4  N   UNL     1       2.293   4.023  -0.129  0.00  0.00    -0.263 N 
ATOM      5  C   UNL     1       2.153   5.371  -0.227  0.00  0.00    +0.178 C 
ATOM      6  N   UNL     1       3.127   6.124  -0.660  0.00  0.00    -0.157 NA
ATOM      7  H   UNL     1       1.380   3.418  -0.022  0.00  0.00    +0.157 HD
ENDROOT
BRANCH   1   8
ATOM      8  C   UNL     1       5.222   6.097  -2.032  0.00  0.00    +0.158 C 
BRANCH   8  10
ATOM      9  C   UNL     1       4.561   6.348  -4.369  0.00  0.00    +0.005 C 
ATOM     10  C   UNL     1       4.857   5.538  -3.383  0.00  0.00    -0.014 C 
ENDBRANCH   8  10
ENDBRANCH   1   8
BRANCH   5  11
ATOM     11  S   UNL     1       0.625   6.118   0.234  0.00  0.00    -0.079 S 
BRANCH  11  12
ATOM     12  C   UNL     1       0.893   7.887  -0.063  0.00  0.00    +0.173 C 
BRANCH  12  13
ATOM     13  C   UNL     1      -0.355   8.652   0.295  0.00  0.00    +0.227 C 
ATOM     14  O   UNL     1      -1.330   8.061   0.711  0.00  0.00    -0.275 OA
ATOM     15  N   UNL     1      -0.389   9.992   0.155  0.00  0.00    -0.285 N 
ATOM     16  H   UNL     1       0.470  10.520  -0.286  0.00  0.00    +0.155 HD
BRANCH  15  17
ATOM     17  C   UNL     1      -1.511  10.708   0.567  0.00  0.00    +0.033 A 
ATOM     18  C   UNL     1      -2.780  10.156   0.422  0.00  0.00    +0.024 A 
ATOM     19  C   UNL     1      -3.890  10.859   0.833  0.00  0.00    +0.015 A 
ATOM     20  C   UNL     1      -3.742  12.133   1.387  0.00  0.00    +0.037 A 
ATOM     21  C   UNL     1      -2.467  12.687   1.527  0.00  0.00    +0.015 A 
ATOM     22  C   UNL     1      -1.361  11.977   1.119  0.00  0.00    +0.024 A 
BRANCH  20  23
ATOM     23  C   UNL     1      -4.930  12.892   1.824  0.00  0.00    +0.242 C 
ATOM     24  O   UNL     1      -4.800  14.000   2.306  0.00  0.00    -0.270 OA
ATOM     25  N   UNL     1      -6.160  12.356   1.688  0.00  0.00    -0.325 N 
ATOM     26  H   UNL     1      -7.045  12.921   2.014  0.00  0.00    +0.145 HD
ATOM     27  H   UNL     1      -6.277  11.353   1.251  0.00  0.00    +0.145 HD
ENDBRANCH  20  23
ENDBRANCH  15  17
ENDBRANCH  12  13
ENDBRANCH  11  12
ENDBRANCH   5  11
BRANCH   3  28
ATOM     28  O   UNL     1       3.544   2.103  -0.056  0.00  0.00    -0.440 OA
BRANCH  28  29
ATOM     29  C   UNL     1       2.376   1.408  -0.030  0.00  0.00    +0.130 A 
ATOM     30  C   UNL     1       2.004   0.716   1.113  0.00  0.00    +0.048 A 
ATOM     31  C   UNL     1       0.817   0.010   1.136  0.00  0.00    +0.023 A 
ATOM     32  C   UNL     1      -0.002  -0.006   0.021  0.00  0.00    +0.041 A 
ATOM     33  C   UNL     1       0.367   0.683  -1.121  0.00  0.00    +0.023 A 
ATOM     34  C   UNL     1       1.554   1.390  -1.148  0.00  0.00    +0.048 A 
ATOM     35 CL   UNL     1      -1.493  -0.894   0.053  0.00  0.00    -0.084 Cl
ENDBRANCH  28  29
ENDBRANCH   3  28
TORSDOF 9
