REMARK  Name = ZINC64628064
REMARK  7 active torsions:
REMARK  status: ('A' for Active; 'I' for Inactive)
REMARK    1  A    between atoms: C_4  and  C_7
REMARK    2  A    between atoms: C_7  and  N_8
REMARK    3  A    between atoms: C_12  and  C_14
REMARK    4  A    between atoms: C_14  and  N_15
REMARK    5  A    between atoms: N_18  and  C_19
REMARK    6  A    between atoms: C_19  and  C_20
REMARK    7  A    between atoms: N_22  and  C_23
REMARK                            x       y       z     vdW  Elec       q    Type
REMARK                         _______ _______ _______ _____ _____    ______ ____
ROOT
ATOM      1  N   UNL     1       7.901  -2.459   4.105  0.00  0.00    -0.299 N 
ATOM      2  C   UNL     1       9.119  -2.991   4.333  0.00  0.00    +0.300 C 
ATOM      3  O   UNL     1       9.779  -3.416   3.405  0.00  0.00    -0.253 OA
ATOM      4  N   UNL     1       9.604  -3.050   5.589  0.00  0.00    -0.291 N 
ATOM      5  H   UNL     1       7.374  -2.120   4.845  0.00  0.00    +0.150 HD
ATOM      6  H   UNL     1       9.077  -2.711   6.329  0.00  0.00    +0.151 HD
ENDROOT
BRANCH   1   7
ATOM      7  C   UNL     1       7.374  -2.394   2.740  0.00  0.00    +0.107 C 
BRANCH   7  12
ATOM      8  N   UNL     1       4.151  -0.961   1.341  0.00  0.00    +0.383 N 
ATOM      9  C   UNL     1       3.199  -1.855   2.012  0.00  0.00    -0.078 C 
ATOM     10  C   UNL     1       3.612  -2.043   3.473  0.00  0.00    -0.018 C 
ATOM     11  C   UNL     1       5.015  -2.656   3.526  0.00  0.00    +0.001 C 
ATOM     12  C   UNL     1       5.985  -1.752   2.760  0.00  0.00    -0.011 C 
ATOM     13  C   UNL     1       5.484  -1.575   1.325  0.00  0.00    -0.073 C 
ATOM     14  H   UNL     1       4.191  -0.084   1.837  0.00  0.00    -0.081 HD
BRANCH   8  15
ATOM     15  C   UNL     1       3.707  -0.722  -0.039  0.00  0.00    -0.043 C 
BRANCH  15  19
ATOM     16  C   UNL     1      -0.013   1.377   0.004  0.00  0.00    +0.000 A 
ATOM     17  C   UNL     1       1.177   2.080  -0.011  0.00  0.00    +0.000 A 
ATOM     18  C   UNL     1       2.381   1.401  -0.024  0.00  0.00    +0.002 A 
ATOM     19  C   UNL     1       2.394   0.018  -0.023  0.00  0.00    -0.064 A 
ATOM     20  C   UNL     1       1.204  -0.684  -0.008  0.00  0.00    +0.002 A 
ATOM     21  C   UNL     1       0.000  -0.005   0.005  0.00  0.00    +0.000 A 
ENDBRANCH  15  19
ENDBRANCH   8  15
ENDBRANCH   7  12
ENDBRANCH   1   7
BRANCH   4  22
ATOM     22  C   UNL     1      10.927  -3.628   5.836  0.00  0.00    +0.202 C 
BRANCH  22  23
ATOM     23  C   UNL     1      11.231  -3.575   7.311  0.00  0.00    +0.234 C 
ATOM     24  O   UNL     1      10.421  -3.102   8.080  0.00  0.00    -0.274 OA
ATOM     25  N   UNL     1      12.402  -4.054   7.776  0.00  0.00    -0.284 N 
ATOM     26  H   UNL     1      13.021  -4.493   7.171  0.00  0.00    +0.155 HD
BRANCH  25  27
ATOM     27  C   UNL     1      12.726  -3.918   9.131  0.00  0.00    +0.034 A 
ATOM     28  C   UNL     1      14.042  -3.696   9.513  0.00  0.00    +0.026 A 
ATOM     29  C   UNL     1      14.359  -3.562  10.851  0.00  0.00    +0.040 A 
ATOM     30  C   UNL     1      13.365  -3.649  11.811  0.00  0.00    +0.124 A 
ATOM     31  C   UNL     1      12.052  -3.870  11.432  0.00  0.00    +0.040 A 
ATOM     32  C   UNL     1      11.729  -3.999  10.095  0.00  0.00    +0.026 A 
ATOM     33  F   UNL     1      13.678  -3.519  13.119  0.00  0.00    -0.205 F 
ENDBRANCH  25  27
ENDBRANCH  22  23
ENDBRANCH   4  22
TORSDOF 7
