REMARK  Name = ZINC63746317
REMARK  9 active torsions:
REMARK  status: ('A' for Active; 'I' for Inactive)
REMARK    1  A    between atoms: C_1  and  C_2
REMARK    2  A    between atoms: C_5  and  C_29
REMARK    3  A    between atoms: C_6  and  C_22
REMARK    4  A    between atoms: C_10  and  N_12
REMARK    5  A    between atoms: N_15  and  C_16
REMARK    6  A    between atoms: N_24  and  C_25
REMARK    7  A    between atoms: C_25  and  C_26
REMARK    8  A    between atoms: C_26  and  O_27
REMARK    9  A    between atoms: O_27  and  C_28
REMARK                            x       y       z     vdW  Elec       q    Type
REMARK                         _______ _______ _______ _____ _____    ______ ____
ROOT
ATOM      1  C   UNL     1      -0.887   1.419  -0.122  0.00  0.00    +0.044 C 
ATOM      2  C   UNL     1      -0.667  -0.071  -0.094  0.00  0.00    -0.048 A 
ATOM      3  C   UNL     1      -0.602  -0.743  -1.266  0.00  0.00    +0.013 A 
ATOM      4  C   UNL     1      -0.397  -2.144  -1.279  0.00  0.00    +0.006 A 
ATOM      5  C   UNL     1      -0.291  -3.067  -2.304  0.00  0.00    -0.000 C 
ATOM      6  C   UNL     1      -0.076  -4.405  -1.630  0.00  0.00    +0.198 C 
ATOM      7  N   UNL     1      -0.074  -4.135  -0.189  0.00  0.00    -0.368 N 
ATOM      8  C   UNL     1      -0.257  -2.852   0.009  0.00  0.00    +0.065 A 
ATOM      9  C   UNL     1      -0.339  -2.051   1.241  0.00  0.00    +0.059 A 
ATOM     10  C   UNL     1      -0.534  -0.709   1.143  0.00  0.00    +0.028 A 
ATOM     11  H   UNL     1       0.043  -4.801   0.507  0.00  0.00    +0.161 HD
ENDROOT
BRANCH   9  12
ATOM     12  N   UNL     1      -0.214  -2.661   2.493  0.00  0.00    -0.267 N 
ATOM     13  C   UNL     1       0.211  -1.944   3.552  0.00  0.00    +0.308 C 
ATOM     14  O   UNL     1       0.587  -0.798   3.399  0.00  0.00    -0.252 OA
ATOM     15  N   UNL     1       0.219  -2.498   4.781  0.00  0.00    -0.269 N 
ATOM     16  H   UNL     1      -0.433  -3.600   2.599  0.00  0.00    +0.156 HD
ATOM     17  H   UNL     1      -0.007  -3.435   4.892  0.00  0.00    +0.156 HD
BRANCH  15  18
ATOM     18  C   UNL     1       0.553  -1.722   5.896  0.00  0.00    +0.035 A 
ATOM     19  C   UNL     1       1.254  -2.287   6.953  0.00  0.00    +0.023 A 
ATOM     20  C   UNL     1       1.582  -1.518   8.052  0.00  0.00    +0.002 A 
ATOM     21  C   UNL     1       1.212  -0.186   8.101  0.00  0.00    +0.000 A 
ATOM     22  C   UNL     1       0.513   0.380   7.051  0.00  0.00    +0.002 A 
ATOM     23  C   UNL     1       0.188  -0.383   5.946  0.00  0.00    +0.023 A 
ENDBRANCH  15  18
ENDBRANCH   9  12
BRANCH   5  24
ATOM     24  C   UNL     1      -0.370  -2.804  -3.743  0.00  0.00    -0.019 A 
ATOM     25  C   UNL     1      -0.042  -1.538  -4.247  0.00  0.00    +0.008 A 
ATOM     26  C   UNL     1      -0.120  -1.300  -5.602  0.00  0.00    +0.001 A 
ATOM     27  C   UNL     1      -0.520  -2.307  -6.465  0.00  0.00    +0.000 A 
ATOM     28  C   UNL     1      -0.847  -3.560  -5.975  0.00  0.00    +0.001 A 
ATOM     29  C   UNL     1      -0.770  -3.819  -4.624  0.00  0.00    +0.008 A 
ENDBRANCH   5  24
BRANCH   6  30
ATOM     30  C   UNL     1       1.247  -4.991  -2.052  0.00  0.00    +0.240 C 
ATOM     31  O   UNL     1       2.190  -4.970  -1.290  0.00  0.00    -0.273 OA
ATOM     32  N   UNL     1       1.382  -5.540  -3.275  0.00  0.00    -0.311 N 
ATOM     33  H   UNL     1       0.650  -5.494  -3.910  0.00  0.00    +0.149 HD
BRANCH  32  34
ATOM     34  C   UNL     1       2.633  -6.206  -3.646  0.00  0.00    +0.132 C 
BRANCH  34  35
ATOM     35  C   UNL     1       2.524  -6.737  -5.076  0.00  0.00    +0.178 C 
BRANCH  35  36
ATOM     36  O   UNL     1       2.396  -5.640  -5.983  0.00  0.00    -0.381 OA
ATOM     37  C   UNL     1       2.286  -6.029  -7.354  0.00  0.00    +0.194 C 
ENDBRANCH  35  36
ENDBRANCH  34  35
ENDBRANCH  32  34
ENDBRANCH   6  30
TORSDOF 7
