REMARK  Name = ZINC37205421
REMARK  7 active torsions:
REMARK  status: ('A' for Active; 'I' for Inactive)
REMARK    1  A    between atoms: C_1  and  C_2
REMARK    2  A    between atoms: C_7  and  N_12
REMARK    3  A    between atoms: C_9  and  C_11
REMARK    4  A    between atoms: C_13  and  C_15
REMARK    5  A    between atoms: C_15  and  S_16
REMARK    6  A    between atoms: S_16  and  C_17
REMARK    7  A    between atoms: C_22  and  N_23
REMARK                            x       y       z     vdW  Elec       q    Type
REMARK                         _______ _______ _______ _____ _____    ______ ____
ROOT
ATOM      1  N   UNL     1       0.735  -0.503   3.687  0.00  0.00    -0.312 N 
ATOM      2  C   UNL     1       0.634   0.166   4.853  0.00  0.00    +0.223 C 
ATOM      3  O   UNL     1      -0.044   1.170   4.919  0.00  0.00    -0.275 OA
ATOM      4  H   UNL     1       1.276  -1.306   3.634  0.00  0.00    +0.149 HD
ENDROOT
BRANCH   1  10
ATOM      5  C   UNL     1      -0.019   1.526   0.010  0.00  0.00    +0.008 C 
ATOM      6  C   UNL     1       0.002  -0.004   0.002  0.00  0.00    -0.009 C 
ATOM      7  C   UNL     1      -1.433  -0.534   0.013  0.00  0.00    +0.003 C 
ATOM      8  C   UNL     1      -2.149  -0.040   1.272  0.00  0.00    +0.002 C 
ATOM      9  C   UNL     1      -1.409  -0.547   2.511  0.00  0.00    +0.022 C 
ATOM     10  C   UNL     1       0.026  -0.018   2.500  0.00  0.00    +0.076 C 
ATOM     11  C   UNL     1       0.742  -0.511   1.242  0.00  0.00    +0.009 C 
ATOM     12  C   UNL     1       2.178   0.019   1.231  0.00  0.00    +0.009 C 
ENDBRANCH   1  10
BRANCH   2  13
ATOM     13  C   UNL     1       1.363  -0.333   6.074  0.00  0.00    +0.170 C 
BRANCH  13  14
ATOM     14  S   UNL     1       1.030   0.774   7.471  0.00  0.00    -0.114 S 
BRANCH  14  15
ATOM     15  C   UNL     1       1.939   0.065   8.803  0.00  0.00    +0.029 A 
ATOM     16  C   UNL     1       2.685  -1.087   8.601  0.00  0.00    +0.017 A 
ATOM     17  C   UNL     1       3.398  -1.643   9.647  0.00  0.00    +0.016 A 
ATOM     18  C   UNL     1       3.371  -1.052  10.898  0.00  0.00    +0.020 A 
ATOM     19  C   UNL     1       2.631   0.098  11.108  0.00  0.00    +0.039 A 
ATOM     20  C   UNL     1       1.917   0.664  10.063  0.00  0.00    +0.039 A 
ATOM     21 BR   UNL     1       4.349  -1.818  12.323  0.00  0.00    -0.050 Br
BRANCH  20  22
ATOM     22  N   UNL     1       1.171   1.830  10.273  0.00  0.00    -0.357 N 
ATOM     23  H   UNL     1       0.669   2.223   9.542  0.00  0.00    +0.142 HD
ATOM     24  H   UNL     1       1.156   2.245  11.149  0.00  0.00    +0.142 HD
ENDBRANCH  20  22
ENDBRANCH  14  15
ENDBRANCH  13  14
ENDBRANCH   2  13
TORSDOF 5
