REMARK  Name = ZINC06005023
REMARK  16 active torsions:
REMARK  status: ('A' for Active; 'I' for Inactive)
REMARK    1  A    between atoms: C_1  and  C_2
REMARK    2  A    between atoms: C_2  and  C_3
REMARK    3  A    between atoms: C_3  and  C_34
REMARK    4  A    between atoms: C_5  and  C_22
REMARK    5  A    between atoms: C_7  and  C_10
REMARK    6  A    between atoms: C_10  and  C_12
REMARK    7  A    between atoms: C_10  and  O_21
REMARK    8  A    between atoms: C_12  and  C_13
REMARK    9  A    between atoms: C_13  and  C_14
REMARK   10  A    between atoms: C_19  and  O_20
REMARK   11  A    between atoms: C_22  and  C_24
REMARK   12  A    between atoms: C_22  and  O_33
REMARK   13  A    between atoms: C_24  and  C_25
REMARK   14  A    between atoms: C_25  and  C_26
REMARK   15  A    between atoms: C_31  and  O_32
REMARK   16  A    between atoms: C_34  and  C_35
REMARK                            x       y       z     vdW  Elec       q    Type
REMARK                         _______ _______ _______ _____ _____    ______ ____
ROOT
ATOM      1  C   UNL     1      -0.797   3.125   1.155  0.00  0.00    +0.171 C 
ATOM      2  O   UNL     1      -1.525   3.530  -0.012  0.00  0.00    -0.340 OA
ATOM      3  C   UNL     1      -0.603   4.213  -0.880  0.00  0.00    +0.181 C 
ATOM      4  C   UNL     1       0.776   3.692  -0.405  0.00  0.00    +0.181 C 
ATOM      5  O   UNL     1       0.566   3.564   1.022  0.00  0.00    -0.340 OA
ENDROOT
BRANCH   1   7
ATOM      6  C   UNL     1      -2.287   1.138   1.426  0.00  0.00    +0.009 C 
ATOM      7  C   UNL     1      -0.836   1.601   1.282  0.00  0.00    +0.061 C 
ENDBRANCH   1   7
BRANCH   1   8
ATOM      8  C   UNL     1      -1.423   3.761   2.397  0.00  0.00    +0.061 C 
ATOM      9  C   UNL     1      -1.382   5.285   2.266  0.00  0.00    +0.009 C 
ENDBRANCH   1   8
BRANCH   4  10
ATOM     10  C   UNL     1       1.879   4.708  -0.706  0.00  0.00    +0.146 C 
BRANCH  10  11
ATOM     11  O   UNL     1       1.473   6.002  -0.254  0.00  0.00    -0.389 OA
ATOM     12  H   UNL     1       1.294   6.048   0.695  0.00  0.00    +0.210 HD
ENDBRANCH  10  11
BRANCH  10  13
ATOM     13  C   UNL     1       3.164   4.296   0.016  0.00  0.00    +0.039 C 
BRANCH  13  14
ATOM     14  C   UNL     1       4.299   5.240  -0.384  0.00  0.00    +0.041 C 
BRANCH  14  15
ATOM     15  C   UNL     1       5.564   4.833   0.327  0.00  0.00    -0.006 A 
ATOM     16  C   UNL     1       5.920   5.449   1.512  0.00  0.00    +0.007 A 
ATOM     17  C   UNL     1       7.078   5.074   2.167  0.00  0.00    +0.000 A 
ATOM     18  C   UNL     1       7.888   4.088   1.634  0.00  0.00    +0.004 A 
ATOM     19  C   UNL     1       7.540   3.473   0.447  0.00  0.00    +0.045 A 
ATOM     20  C   UNL     1       6.376   3.845  -0.210  0.00  0.00    +0.120 A 
BRANCH  20  21
ATOM     21  O   UNL     1       6.031   3.241  -1.377  0.00  0.00    -0.506 OA
ATOM     22  H   UNL     1       6.380   3.679  -2.165  0.00  0.00    +0.292 HD
ENDBRANCH  20  21
ENDBRANCH  14  15
ENDBRANCH  13  14
ENDBRANCH  10  13
ENDBRANCH   4  10
BRANCH   3  23
ATOM     23  C   UNL     1      -0.850   3.834  -2.342  0.00  0.00    +0.146 C 
BRANCH  23  24
ATOM     24  O   UNL     1      -0.768   2.414  -2.486  0.00  0.00    -0.389 OA
ATOM     25  H   UNL     1      -1.361   1.925  -1.899  0.00  0.00    +0.210 HD
ENDBRANCH  23  24
BRANCH  23  26
ATOM     26  C   UNL     1      -2.241   4.310  -2.765  0.00  0.00    +0.039 C 
BRANCH  26  27
ATOM     27  C   UNL     1      -2.439   4.043  -4.258  0.00  0.00    +0.041 C 
BRANCH  27  28
ATOM     28  C   UNL     1      -3.809   4.512  -4.675  0.00  0.00    -0.006 A 
ATOM     29  C   UNL     1      -4.862   3.619  -4.718  0.00  0.00    +0.007 A 
ATOM     30  C   UNL     1      -6.120   4.050  -5.096  0.00  0.00    +0.000 A 
ATOM     31  C   UNL     1      -6.326   5.373  -5.442  0.00  0.00    +0.004 A 
ATOM     32  C   UNL     1      -5.275   6.269  -5.406  0.00  0.00    +0.045 A 
ATOM     33  C   UNL     1      -4.012   5.840  -5.022  0.00  0.00    +0.120 A 
BRANCH  33  34
ATOM     34  O   UNL     1      -2.977   6.719  -4.985  0.00  0.00    -0.506 OA
ATOM     35  H   UNL     1      -2.486   6.783  -5.816  0.00  0.00    +0.292 HD
ENDBRANCH  33  34
ENDBRANCH  27  28
ENDBRANCH  26  27
ENDBRANCH  23  26
ENDBRANCH   3  23
TORSDOF 14
