REMARK  Name = ZINC36011474
REMARK  8 active torsions:
REMARK  status: ('A' for Active; 'I' for Inactive)
REMARK    1  A    between atoms: C_1  and  C_2
REMARK    2  A    between atoms: C_2  and  O_30
REMARK    3  A    between atoms: C_3  and  C_21
REMARK    4  A    between atoms: C_5  and  C_11
REMARK    5  A    between atoms: C_14  and  O_17
REMARK    6  A    between atoms: O_17  and  C_18
REMARK    7  A    between atoms: N_23  and  C_24
REMARK    8  A    between atoms: O_30  and  C_31
REMARK                            x       y       z     vdW  Elec       q    Type
REMARK                         _______ _______ _______ _____ _____    ______ ____
ROOT
ATOM      1  C   UNL     1      -0.168   2.551  -0.988  0.00  0.00    +0.064 C 
ATOM      2  C   UNL     1      -0.891   1.251  -1.346  0.00  0.00    +0.145 C 
ATOM      3  C   UNL     1       0.109   0.258  -1.949  0.00  0.00    +0.150 C 
ATOM      4  C   UNL     1       1.140  -0.107  -0.876  0.00  0.00    +0.118 C 
ATOM      5  N   UNL     1       0.443  -0.617   0.306  0.00  0.00    -0.319 N 
ATOM      6  C   UNL     1      -0.798  -0.211   0.613  0.00  0.00    +0.133 C 
ATOM      7  S   UNL     1      -1.544  -0.840   2.020  0.00  0.00    -0.019 S 
ATOM      8  N   UNL     1      -1.478   0.668  -0.139  0.00  0.00    -0.299 N 
ATOM      9  H   UNL     1       0.888  -1.261   0.879  0.00  0.00    +0.148 HD
ATOM     10  H   UNL     1      -2.376   0.922   0.123  0.00  0.00    +0.150 HD
ENDROOT
BRANCH   4  11
ATOM     11  C   UNL     1       2.069  -1.167  -1.411  0.00  0.00    -0.026 A 
ATOM     12  C   UNL     1       1.788  -2.504  -1.194  0.00  0.00    +0.009 A 
ATOM     13  C   UNL     1       2.638  -3.477  -1.682  0.00  0.00    +0.046 A 
ATOM     14  C   UNL     1       3.773  -3.113  -2.391  0.00  0.00    +0.127 A 
ATOM     15  C   UNL     1       4.052  -1.771  -2.608  0.00  0.00    +0.046 A 
ATOM     16  C   UNL     1       3.197  -0.802  -2.122  0.00  0.00    +0.009 A 
BRANCH  14  17
ATOM     17  O   UNL     1       4.611  -4.069  -2.873  0.00  0.00    -0.434 OA
BRANCH  17  18
ATOM     18  C   UNL     1       5.761  -3.620  -3.593  0.00  0.00    +0.541 C 
ATOM     19  F   UNL     1       5.353  -2.882  -4.709  0.00  0.00    -0.166 F 
ATOM     20  F   UNL     1       6.547  -2.815  -2.763  0.00  0.00    -0.166 F 
ENDBRANCH  17  18
ENDBRANCH  14  17
ENDBRANCH   4  11
BRANCH   3  21
ATOM     21  C   UNL     1      -0.619  -0.982  -2.401  0.00  0.00    +0.227 C 
ATOM     22  O   UNL     1      -1.538  -1.420  -1.742  0.00  0.00    -0.275 OA
ATOM     23  N   UNL     1      -0.248  -1.604  -3.537  0.00  0.00    -0.285 N 
ATOM     24  H   UNL     1       0.538  -1.304  -4.021  0.00  0.00    +0.155 HD
BRANCH  23  25
ATOM     25  C   UNL     1      -0.997  -2.683  -4.021  0.00  0.00    +0.033 A 
ATOM     26  C   UNL     1      -1.547  -3.600  -3.135  0.00  0.00    +0.023 A 
ATOM     27  C   UNL     1      -2.285  -4.664  -3.615  0.00  0.00    +0.002 A 
ATOM     28  C   UNL     1      -2.477  -4.816  -4.976  0.00  0.00    +0.000 A 
ATOM     29  C   UNL     1      -1.930  -3.905  -5.860  0.00  0.00    +0.002 A 
ATOM     30  C   UNL     1      -1.196  -2.835  -5.386  0.00  0.00    +0.023 A 
ENDBRANCH  23  25
ENDBRANCH   3  21
BRANCH   2  31
ATOM     31  O   UNL     1      -1.924   1.525  -2.295  0.00  0.00    -0.359 OA
ATOM     32  C   UNL     1      -2.915   2.442  -1.826  0.00  0.00    +0.196 C 
ENDBRANCH   2  31
TORSDOF 6
