REMARK  Name = ZINC36117939
REMARK  14 active torsions:
REMARK  status: ('A' for Active; 'I' for Inactive)
REMARK    1  A    between atoms: C_1  and  C_2
REMARK    2  A    between atoms: C_5  and  C_8
REMARK    3  A    between atoms: N_10  and  C_11
REMARK    4  A    between atoms: N_10  and  C_16
REMARK    5  A    between atoms: C_11  and  C_12
REMARK    6  A    between atoms: C_12  and  C_13
REMARK    7  A    between atoms: C_13  and  O_14
REMARK    8  A    between atoms: O_14  and  C_15
REMARK    9  A    between atoms: C_16  and  C_17
REMARK   10  A    between atoms: C_27  and  C_29
REMARK   11  A    between atoms: C_29  and  O_30
REMARK   12  A    between atoms: O_30  and  C_31
REMARK   13  A    between atoms: C_36  and  O_37
REMARK   14  A    between atoms: O_37  and  C_38
REMARK                            x       y       z     vdW  Elec       q    Type
REMARK                         _______ _______ _______ _____ _____    ______ ____
ROOT
ATOM      1  C   UNL     1       1.692  -6.632   0.970  0.00  0.00    +0.234 C 
ATOM      2  O   UNL     1       2.467  -5.702   0.900  0.00  0.00    -0.274 OA
ATOM      3  N   UNL     1       2.153  -7.898   0.920  0.00  0.00    -0.289 N 
ATOM      4  C   UNL     1       1.222  -9.034   0.997  0.00  0.00    +0.114 C 
ATOM      5  C   UNL     1       1.276  -9.793  -0.338  0.00  0.00    +0.061 C 
ATOM      6  C   UNL     1       2.704  -9.917  -0.761  0.00  0.00    -0.004 A 
ATOM      7  C   UNL     1       3.776  -9.216  -0.302  0.00  0.00    -0.014 A 
ATOM      8  C   UNL     1       5.012  -9.518  -0.871  0.00  0.00    +0.013 A 
ATOM      9  C   UNL     1       5.102 -10.472  -1.826  0.00  0.00    +0.046 A 
ATOM     10  S   UNL     1       3.403 -11.005  -1.975  0.00  0.00    -0.101 S 
ATOM     11  C   UNL     1       3.592  -8.162   0.782  0.00  0.00    +0.144 C 
ENDROOT
BRANCH   1  12
ATOM     12  C   UNL     1       0.214  -6.373   1.111  0.00  0.00    +0.204 C 
BRANCH  12  15
ATOM     13  C   UNL     1      -0.333  -4.273   0.003  0.00  0.00    +0.247 C 
ATOM     14  O   UNL     1      -0.472  -3.066   0.016  0.00  0.00    -0.270 OA
ATOM     15  N   UNL     1      -0.028  -4.929   1.140  0.00  0.00    -0.289 N 
BRANCH  13  20
ATOM     16  C   UNL     1      -0.977  -7.191  -4.915  0.00  0.00    +0.044 C 
ATOM     17  C   UNL     1      -0.808  -6.427  -3.627  0.00  0.00    -0.050 A 
ATOM     18  C   UNL     1       0.319  -6.627  -2.850  0.00  0.00    +0.004 A 
ATOM     19  C   UNL     1       0.480  -5.931  -1.670  0.00  0.00    +0.013 A 
ATOM     20  C   UNL     1      -0.498  -5.023  -1.261  0.00  0.00    +0.037 A 
ATOM     21  C   UNL     1      -1.633  -4.825  -2.049  0.00  0.00    +0.013 A 
ATOM     22  C   UNL     1      -1.778  -5.524  -3.230  0.00  0.00    +0.004 A 
ENDBRANCH  13  20
BRANCH  15  23
ATOM     23  C   UNL     1       0.061  -4.197   2.406  0.00  0.00    +0.111 C 
BRANCH  23  24
ATOM     24  C   UNL     1      -1.334  -4.071   3.022  0.00  0.00    +0.047 C 
BRANCH  24  25
ATOM     25  C   UNL     1      -1.241  -3.306   4.344  0.00  0.00    +0.161 C 
BRANCH  25  26
ATOM     26  O   UNL     1      -2.544  -3.188   4.918  0.00  0.00    -0.383 OA
ATOM     27  C   UNL     1      -2.569  -2.487   6.163  0.00  0.00    +0.193 C 
ENDBRANCH  25  26
ENDBRANCH  24  25
ENDBRANCH  23  24
ENDBRANCH  15  23
ENDBRANCH  12  15
ENDBRANCH   1  12
BRANCH  11  28
ATOM     28  C   UNL     1       4.152  -8.684   2.107  0.00  0.00    +0.256 C 
BRANCH  28  29
ATOM     29  O   UNL     1       3.565  -9.952   2.405  0.00  0.00    -0.486 OA
BRANCH  29  30
ATOM     30  C   UNL     1       3.958 -10.559   3.557  0.00  0.00    +0.162 A 
ATOM     31  C   UNL     1       4.883  -9.944   4.385  0.00  0.00    +0.049 A 
ATOM     32  C   UNL     1       5.281 -10.561   5.556  0.00  0.00    +0.004 A 
ATOM     33  C   UNL     1       4.758 -11.793   5.904  0.00  0.00    +0.004 A 
ATOM     34  C   UNL     1       3.835 -12.412   5.082  0.00  0.00    +0.049 A 
ATOM     35  C   UNL     1       3.427 -11.796   3.910  0.00  0.00    +0.161 A 
BRANCH  35  36
ATOM     36  O   UNL     1       2.515 -12.401   3.104  0.00  0.00    -0.491 OA
ATOM     37  C   UNL     1       2.013 -13.670   3.529  0.00  0.00    +0.277 C 
ENDBRANCH  35  36
ENDBRANCH  29  30
ENDBRANCH  28  29
ENDBRANCH  11  28
TORSDOF 11
