REMARK  Name = ZINC65763749
REMARK  6 active torsions:
REMARK  status: ('A' for Active; 'I' for Inactive)
REMARK    1  A    between atoms: C_1  and  C_2
REMARK    2  A    between atoms: C_2  and  C_3
REMARK    3  A    between atoms: C_2  and  C_4
REMARK    4  A    between atoms: C_8  and  C_9
REMARK    5  A    between atoms: N_11  and  S_12
REMARK    6  A    between atoms: S_12  and  C_15
REMARK                            x       y       z     vdW  Elec       q    Type
REMARK                         _______ _______ _______ _____ _____    ______ ____
ROOT
ATOM      1  C   UNL     1      -1.235  -1.807  -2.216  0.00  0.00    +0.302 C 
ATOM      2  O   UNL     1       0.053  -1.469  -2.454  0.00  0.00    -0.263 OA
ATOM      3  N   UNL     1      -1.879  -2.560  -3.064  0.00  0.00    -0.085 NA
ENDROOT
BRANCH   1   8
ATOM      4  C   UNL     1      -1.412  -0.526   0.013  0.00  0.00    -0.025 A 
ATOM      5  C   UNL     1      -2.292  -0.233   1.030  0.00  0.00    +0.012 A 
ATOM      6  C   UNL     1      -3.549  -0.734   0.976  0.00  0.00    +0.046 A 
ATOM      7  S   UNL     1      -3.579  -1.618  -0.452  0.00  0.00    -0.092 S 
ATOM      8  C   UNL     1      -1.909  -1.325  -1.002  0.00  0.00    +0.083 A 
BRANCH   4  10
ATOM      9  C   UNL     1      -0.019   1.526   0.010  0.00  0.00    +0.012 C 
ATOM     10  C   UNL     1       0.002  -0.004   0.002  0.00  0.00    +0.014 C 
ATOM     11  C   UNL     1       0.742  -0.511   1.242  0.00  0.00    +0.012 C 
ENDBRANCH   4  10
ENDBRANCH   1   8
BRANCH   3  12
ATOM     12  S   UNL     1      -1.120  -3.103  -4.432  0.00  0.00    +0.105 S 
ATOM     13  O   UNL     1      -0.853  -1.958  -5.230  0.00  0.00    -0.146 OA
ATOM     14  O   UNL     1      -0.095  -3.988  -4.003  0.00  0.00    -0.146 OA
BRANCH  12  15
ATOM     15  C   UNL     1      -2.287  -4.078  -5.323  0.00  0.00    +0.150 A 
ATOM     16  C   UNL     1      -2.724  -3.666  -6.568  0.00  0.00    +0.070 A 
ATOM     17  C   UNL     1      -3.640  -4.431  -7.268  0.00  0.00    +0.125 A 
ATOM     18  C   UNL     1      -4.118  -5.610  -6.722  0.00  0.00    +0.041 A 
ATOM     19  C   UNL     1      -3.681  -6.022  -5.478  0.00  0.00    +0.043 A 
ATOM     20  C   UNL     1      -2.761  -5.259  -4.779  0.00  0.00    +0.150 A 
ATOM     21  F   UNL     1      -2.330  -5.664  -3.565  0.00  0.00    -0.203 F 
ATOM     22  F   UNL     1      -4.068  -4.028  -8.485  0.00  0.00    -0.205 F 
ENDBRANCH  12  15
ENDBRANCH   3  12
TORSDOF 4
