REMARK  Name = ZINC44559684
REMARK  9 active torsions:
REMARK  status: ('A' for Active; 'I' for Inactive)
REMARK    1  A    between atoms: C_1  and  C_2
REMARK    2  A    between atoms: C_5  and  O_33
REMARK    3  A    between atoms: C_16  and  O_32
REMARK    4  A    between atoms: C_19  and  C_31
REMARK    5  A    between atoms: C_24  and  C_25
REMARK    6  A    between atoms: C_24  and  O_30
REMARK    7  A    between atoms: C_25  and  C_27
REMARK    8  A    between atoms: C_25  and  O_29
REMARK    9  A    between atoms: C_27  and  O_28
REMARK                            x       y       z     vdW  Elec       q    Type
REMARK                         _______ _______ _______ _____ _____    ______ ____
ROOT
ATOM      1  C   UNL     1       0.035   0.921  -0.576  0.00  0.00    +0.012 C 
ATOM      2  C   UNL     1      -0.074  -0.580  -0.299  0.00  0.00    -0.024 C 
ATOM      3  C   UNL     1       0.578  -1.359  -1.444  0.00  0.00    +0.010 C 
ATOM      4  C   UNL     1       0.463  -2.860  -1.168  0.00  0.00    +0.032 C 
ATOM      5  C   UNL     1       1.174  -3.193   0.145  0.00  0.00    +0.115 C 
ATOM      6  C   UNL     1       0.525  -2.412   1.289  0.00  0.00    +0.035 C 
ATOM      7  C   UNL     1       0.641  -0.911   1.013  0.00  0.00    -0.002 C 
ATOM      8  C   UNL     1      -0.007  -0.129   2.158  0.00  0.00    +0.004 C 
ATOM      9  C   UNL     1      -1.484  -0.512   2.268  0.00  0.00    +0.004 C 
ATOM     10  C   UNL     1      -2.196  -0.178   0.956  0.00  0.00    -0.001 C 
ATOM     11  C   UNL     1      -1.547  -0.974  -0.187  0.00  0.00    +0.027 C 
ATOM     12  C   UNL     1      -2.256  -0.729  -1.514  0.00  0.00    +0.119 C 
ATOM     13  C   UNL     1      -3.761  -1.026  -1.409  0.00  0.00    +0.041 C 
ATOM     14  C   UNL     1      -4.318  -0.148  -0.305  0.00  0.00    +0.005 C 
ATOM     15  C   UNL     1      -3.659  -0.573   1.034  0.00  0.00    +0.001 C 
ATOM     16  C   UNL     1      -4.501   0.182   2.069  0.00  0.00    +0.007 C 
ATOM     17  C   UNL     1      -5.947   0.022   1.523  0.00  0.00    +0.038 C 
ATOM     18  C   UNL     1      -5.809  -0.281  -0.014  0.00  0.00    +0.100 C 
ATOM     19  C   UNL     1      -3.974   1.316  -0.586  0.00  0.00    +0.014 C 
ENDROOT
BRANCH  18  20
ATOM     20  O   UNL     1      -6.265  -1.591  -0.353  0.00  0.00    -0.385 OA
ATOM     21  H   UNL     1      -7.207  -1.735  -0.190  0.00  0.00    +0.210 HD
ENDBRANCH  18  20
BRANCH  12  22
ATOM     22  O   UNL     1      -1.683  -1.575  -2.513  0.00  0.00    -0.391 OA
ATOM     23  H   UNL     1      -2.082  -1.476  -3.388  0.00  0.00    +0.210 HD
ENDBRANCH  12  22
BRANCH   5  24
ATOM     24  O   UNL     1       2.553  -2.834   0.044  0.00  0.00    -0.392 OA
ATOM     25  H   UNL     1       3.029  -3.292  -0.662  0.00  0.00    +0.210 HD
ENDBRANCH   5  24
BRANCH  18  26
ATOM     26  C   UNL     1      -6.597   0.774  -0.793  0.00  0.00    +0.172 C 
BRANCH  26  27
ATOM     27  O   UNL     1      -6.253   2.076  -0.314  0.00  0.00    -0.387 OA
ATOM     28  H   UNL     1      -6.443   2.213   0.624  0.00  0.00    +0.210 HD
ENDBRANCH  26  27
BRANCH  26  29
ATOM     29  C   UNL     1      -8.096   0.539  -0.597  0.00  0.00    +0.190 C 
BRANCH  29  30
ATOM     30  O   UNL     1      -8.832   1.450  -1.415  0.00  0.00    -0.392 OA
ATOM     31  H   UNL     1      -9.792   1.357  -1.342  0.00  0.00    +0.210 HD
ENDBRANCH  29  30
ENDBRANCH  26  29
ENDBRANCH  18  26
TORSDOF 7
