REMARK  Name = ZINC40174023
REMARK  2 active torsions:
REMARK  status: ('A' for Active; 'I' for Inactive)
REMARK    1  A    between atoms: C_1  and  C_2
REMARK    2  A    between atoms: C_2  and  N_4
REMARK                            x       y       z     vdW  Elec       q    Type
REMARK                         _______ _______ _______ _____ _____    ______ ____
ROOT
ATOM      1  N   UNL     1      -1.137  -0.683   0.009  0.00  0.00    -0.146 NA
ATOM      2  C   UNL     1      -1.119  -2.018   0.002  0.00  0.00    +0.201 A 
ATOM      3  N   UNL     1      -0.011  -2.800  -0.007  0.00  0.00    -0.310 N 
ATOM      4  H   UNL     1       0.907  -2.486  -0.009  0.00  0.00    +0.170 HD
ATOM      5  C   UNL     1      -0.420  -4.127  -0.013  0.00  0.00    +0.176 A 
ATOM      6  C   UNL     1      -1.760  -4.145  -0.007  0.00  0.00    +0.176 A 
ATOM      7  N   UNL     1      -2.206  -2.829   0.008  0.00  0.00    -0.310 N 
ATOM      8  N   UNL     1      -2.208  -5.478  -0.012  0.00  0.00    -0.222 N 
ATOM      9  O   UNL     1      -1.061  -6.312  -0.022  0.00  0.00    -0.153 OA
ATOM     10  N   UNL     1       0.063  -5.447  -0.022  0.00  0.00    -0.222 N 
ATOM     11  H   UNL     1      -3.132  -5.773  -0.010  0.00  0.00    +0.198 HD
ATOM     12  H   UNL     1       0.994  -5.717  -0.027  0.00  0.00    +0.198 HD
ATOM     13  H   UNL     1      -3.132  -2.541   0.018  0.00  0.00    +0.170 HD
ENDROOT
BRANCH   1  14
ATOM     14  C   UNL     1       0.002  -0.004   0.002  0.00  0.00    +0.254 C 
ATOM     15  O   UNL     1       1.064  -0.598  -0.011  0.00  0.00    -0.272 OA
BRANCH  14  16
ATOM     16  C   UNL     1      -0.018   1.503   0.010  0.00  0.00    +0.206 C 
ATOM     17 CL   UNL     1       1.673   2.127  -0.003  0.00  0.00    -0.116 Cl
ENDBRANCH  14  16
ENDBRANCH   1  14
TORSDOF 2
