REMARK  Name = ZINC39444716
REMARK  9 active torsions:
REMARK  status: ('A' for Active; 'I' for Inactive)
REMARK    1  A    between atoms: C_1  and  C_2
REMARK    2  A    between atoms: C_3  and  C_15
REMARK    3  A    between atoms: N_6  and  C_9
REMARK    4  A    between atoms: C_15  and  C_17
REMARK    5  A    between atoms: C_15  and  C_24
REMARK    6  A    between atoms: C_22  and  O_23
REMARK    7  A    between atoms: C_25  and  C_37
REMARK    8  A    between atoms: N_27  and  C_31
REMARK    9  A    between atoms: C_28  and  O_30
REMARK                            x       y       z     vdW  Elec       q    Type
REMARK                         _______ _______ _______ _____ _____    ______ ____
ROOT
ATOM      1  C   UNL     1      -2.518  -0.354   0.013  0.00  0.00    +0.091 C 
ENDROOT
BRANCH   1   4
ATOM      2  C   UNL     1      -0.198   1.658   0.526  0.00  0.00    +0.065 C 
ATOM      3  C   UNL     1      -0.042   0.188   0.230  0.00  0.00    +0.039 A 
ATOM      4  C   UNL     1      -1.047  -0.682   0.007  0.00  0.00    +0.051 A 
ATOM      5  C   UNL     1      -0.481  -1.956  -0.231  0.00  0.00    +0.276 A 
ATOM      6  O   UNL     1      -1.093  -2.981  -0.470  0.00  0.00    -0.266 OA
ATOM      7  N   UNL     1       0.859  -1.829  -0.148  0.00  0.00    -0.219 N 
ATOM      8  N   UNL     1       1.142  -0.486   0.135  0.00  0.00    -0.294 N 
ATOM      9  H   UNL     1       2.026  -0.102   0.247  0.00  0.00    +0.187 HD
BRANCH   7  10
ATOM     10  C   UNL     1       1.797  -2.852  -0.319  0.00  0.00    +0.067 A 
ATOM     11  C   UNL     1       1.374  -4.143  -0.609  0.00  0.00    +0.028 A 
ATOM     12  C   UNL     1       2.303  -5.151  -0.778  0.00  0.00    +0.002 A 
ATOM     13  C   UNL     1       3.653  -4.876  -0.658  0.00  0.00    +0.000 A 
ATOM     14  C   UNL     1       4.077  -3.592  -0.368  0.00  0.00    +0.002 A 
ATOM     15  C   UNL     1       3.154  -2.578  -0.204  0.00  0.00    +0.028 A 
ENDBRANCH   7  10
ENDBRANCH   1   4
BRANCH   1  16
ATOM     16  C   UNL     1      -3.144  -0.832  -1.272  0.00  0.00    +0.008 C 
ATOM     17  C   UNL     1      -3.615  -0.072  -2.238  0.00  0.00    +0.023 C 
ATOM     18  N   UNL     1      -4.123  -0.821  -3.282  0.00  0.00    -0.266 N 
ATOM     19  N   UNL     1      -3.990  -2.190  -3.009  0.00  0.00    -0.221 N 
ATOM     20  C   UNL     1      -3.340  -2.273  -1.690  0.00  0.00    +0.250 C 
ATOM     21  C   UNL     1      -3.602   1.434  -2.209  0.00  0.00    +0.062 C 
ATOM     22  H   UNL     1      -4.516  -0.453  -4.089  0.00  0.00    +0.170 HD
BRANCH  19  23
ATOM     23  C   UNL     1      -4.386  -3.254  -3.822  0.00  0.00    +0.051 A 
ATOM     24  C   UNL     1      -4.188  -4.563  -3.401  0.00  0.00    +0.025 A 
ATOM     25  C   UNL     1      -4.581  -5.613  -4.207  0.00  0.00    +0.002 A 
ATOM     26  C   UNL     1      -5.172  -5.363  -5.432  0.00  0.00    +0.000 A 
ATOM     27  C   UNL     1      -5.370  -4.061  -5.854  0.00  0.00    +0.002 A 
ATOM     28  C   UNL     1      -4.985  -3.006  -5.051  0.00  0.00    +0.025 A 
ENDBRANCH  19  23
BRANCH  20  29
ATOM     29  O   UNL     1      -4.188  -2.950  -0.761  0.00  0.00    -0.369 OA
ATOM     30  H   UNL     1      -4.348  -3.879  -0.980  0.00  0.00    +0.212 HD
ENDBRANCH  20  29
ENDBRANCH   1  16
BRANCH   1  31
ATOM     31  C   UNL     1      -3.181  -1.040   1.179  0.00  0.00    +0.006 A 
ATOM     32  C   UNL     1      -3.113  -2.414   1.304  0.00  0.00    +0.008 A 
ATOM     33  C   UNL     1      -3.721  -3.044   2.374  0.00  0.00    +0.001 A 
ATOM     34  C   UNL     1      -4.399  -2.300   3.322  0.00  0.00    +0.004 A 
ATOM     35  C   UNL     1      -4.470  -0.926   3.203  0.00  0.00    +0.046 A 
ATOM     36  C   UNL     1      -3.856  -0.291   2.132  0.00  0.00    +0.121 A 
BRANCH  36  37
ATOM     37  O   UNL     1      -3.920   1.061   2.015  0.00  0.00    -0.506 OA
ATOM     38  H   UNL     1      -4.683   1.377   1.513  0.00  0.00    +0.292 HD
ENDBRANCH  36  37
ENDBRANCH   1  31
TORSDOF 7
