REMARK  Name = ZINC43553341
REMARK  13 active torsions:
REMARK  status: ('A' for Active; 'I' for Inactive)
REMARK    1  A    between atoms: C_1  and  C_2
REMARK    2  A    between atoms: C_5  and  O_39
REMARK    3  A    between atoms: C_7  and  C_36
REMARK    4  A    between atoms: C_7  and  C_37
REMARK    5  A    between atoms: C_17  and  C_19
REMARK    6  A    between atoms: C_19  and  C_20
REMARK    7  A    between atoms: C_20  and  C_21
REMARK    8  A    between atoms: C_20  and  C_22
REMARK    9  A    between atoms: C_20  and  C_23
REMARK   10  A    between atoms: C_24  and  C_26
REMARK   11  A    between atoms: C_26  and  C_27
REMARK   12  A    between atoms: N_29  and  C_30
REMARK   13  A    between atoms: C_37  and  O_38
REMARK                            x       y       z     vdW  Elec       q    Type
REMARK                         _______ _______ _______ _____ _____    ______ ____
ROOT
ATOM      1  C   UNL     1       0.152   1.715   0.106  0.00  0.00    +0.012 C 
ATOM      2  C   UNL     1       0.133   0.183  -0.003  0.00  0.00    -0.019 C 
ATOM      3  C   UNL     1      -1.315  -0.290   0.025  0.00  0.00    +0.010 C 
ATOM      4  C   UNL     1      -1.970   0.176   1.326  0.00  0.00    +0.032 C 
ATOM      5  C   UNL     1      -1.241  -0.352   2.547  0.00  0.00    +0.123 C 
ATOM      6  C   UNL     1       0.268  -0.177   2.516  0.00  0.00    +0.021 C 
ATOM      7  C   UNL     1       0.890  -0.465   1.151  0.00  0.00    +0.011 C 
ATOM      8  C   UNL     1       0.916  -1.998   0.985  0.00  0.00    +0.049 C 
ATOM      9  C   UNL     1       1.018  -2.401  -0.441  0.00  0.00    +0.015 A 
ATOM     10  C   UNL     1       0.949  -1.607  -1.538  0.00  0.00    +0.058 A 
ATOM     11  N   UNL     1       1.044  -2.239  -2.702  0.00  0.00    -0.229 NA
ATOM     12  C   UNL     1       1.215  -3.541  -2.769  0.00  0.00    +0.165 A 
ATOM     13  S   UNL     1       1.256  -4.008  -1.151  0.00  0.00    -0.057 S 
ATOM     14  N   UNL     1       1.335  -4.338  -3.902  0.00  0.00    -0.265 N 
ATOM     15  C   UNL     1       1.506  -5.669  -3.774  0.00  0.00    +0.219 C 
ATOM     16  O   UNL     1       1.557  -6.171  -2.671  0.00  0.00    -0.275 OA
ATOM     17  C   UNL     1       0.805  -0.112  -1.348  0.00  0.00    +0.054 C 
ATOM     18  C   UNL     1       0.653   1.211   3.044  0.00  0.00    +0.016 C 
ATOM     19  H   UNL     1       1.294  -3.937  -4.784  0.00  0.00    +0.157 HD
ENDROOT
BRANCH   5  20
ATOM     20  O   UNL     1      -1.574  -1.730   2.752  0.00  0.00    -0.391 OA
ATOM     21  H   UNL     1      -2.517  -1.890   2.894  0.00  0.00    +0.210 HD
ENDBRANCH   5  20
BRANCH  15  22
ATOM     22  C   UNL     1       1.636  -6.533  -5.002  0.00  0.00    +0.102 C 
BRANCH  22  23
ATOM     23  C   UNL     1       1.821  -7.993  -4.581  0.00  0.00    -0.029 C 
ATOM     24  C   UNL     1       0.609  -8.445  -3.764  0.00  0.00    +0.011 C 
ATOM     25  C   UNL     1       1.952  -8.870  -5.828  0.00  0.00    +0.011 C 
ATOM     26  C   UNL     1       3.086  -8.122  -3.731  0.00  0.00    +0.011 C 
ENDBRANCH  22  23
ENDBRANCH  15  22
BRANCH  17  27
ATOM     27  C   UNL     1       0.008   0.500  -2.496  0.00  0.00    +0.106 C 
BRANCH  27  28
ATOM     28  C   UNL     1       0.755   0.300  -3.789  0.00  0.00    +0.218 C 
ATOM     29  O   UNL     1       1.823  -0.277  -3.789  0.00  0.00    -0.275 OA
ATOM     30  N   UNL     1       0.238   0.761  -4.945  0.00  0.00    -0.285 N 
ATOM     31  H   UNL     1      -0.582   1.279  -4.937  0.00  0.00    +0.155 HD
BRANCH  30  32
ATOM     32  C   UNL     1       0.885   0.493  -6.157  0.00  0.00    +0.033 A 
ATOM     33  C   UNL     1       0.141   0.276  -7.309  0.00  0.00    +0.023 A 
ATOM     34  C   UNL     1       0.781   0.011  -8.504  0.00  0.00    +0.002 A 
ATOM     35  C   UNL     1       2.163  -0.037  -8.553  0.00  0.00    +0.000 A 
ATOM     36  C   UNL     1       2.906   0.178  -7.407  0.00  0.00    +0.002 A 
ATOM     37  C   UNL     1       2.272   0.449  -6.211  0.00  0.00    +0.023 A 
ENDBRANCH  30  32
ENDBRANCH  27  28
ENDBRANCH  17  27
BRANCH   6  38
ATOM     38  C   UNL     1       0.861  -1.180   3.541  0.00  0.00    +0.165 C 
BRANCH  38  39
ATOM     39  O   UNL     1       0.346  -0.892   4.843  0.00  0.00    -0.394 OA
ATOM     40  H   UNL     1       0.675  -1.481   5.535  0.00  0.00    +0.209 HD
ENDBRANCH  38  39
ENDBRANCH   6  38
TORSDOF 8
