REMARK  Name = ZINC28119266
REMARK  11 active torsions:
REMARK  status: ('A' for Active; 'I' for Inactive)
REMARK    1  A    between atoms: C_1  and  C_2
REMARK    2  A    between atoms: C_2  and  C_3
REMARK    3  A    between atoms: C_2  and  C_4
REMARK    4  A    between atoms: C_2  and  C_5
REMARK    5  A    between atoms: C_8  and  S_11
REMARK    6  A    between atoms: S_11  and  N_14
REMARK    7  A    between atoms: N_14  and  C_15
REMARK    8  A    between atoms: C_18  and  O_21
REMARK    9  A    between atoms: O_21  and  C_22
REMARK   10  A    between atoms: C_22  and  C_24
REMARK   11  A    between atoms: C_30  and  C_32
REMARK                            x       y       z     vdW  Elec       q    Type
REMARK                         _______ _______ _______ _____ _____    ______ ____
ROOT
ATOM      1  N   UNL     1      -2.744   2.865   2.003  0.00  0.00    -0.135 N 
ATOM      2  C   UNL     1      -1.588   2.181   2.106  0.00  0.00    +0.270 C 
ATOM      3  O   UNL     1      -0.597   2.725   2.554  0.00  0.00    -0.268 OA
ENDROOT
BRANCH   1   4
ATOM      4  C   UNL     1      -2.739   4.181   1.525  0.00  0.00    +0.060 A 
ATOM      5  C   UNL     1      -2.481   4.432   0.183  0.00  0.00    +0.029 A 
ATOM      6  C   UNL     1      -2.481   5.729  -0.288  0.00  0.00    +0.048 A 
ATOM      7  C   UNL     1      -2.727   6.784   0.580  0.00  0.00    +0.132 A 
ATOM      8  C   UNL     1      -2.979   6.534   1.921  0.00  0.00    +0.048 A 
ATOM      9  C   UNL     1      -2.985   5.237   2.393  0.00  0.00    +0.029 A 
BRANCH   7  10
ATOM     10  O   UNL     1      -2.722   8.061   0.116  0.00  0.00    -0.422 OA
BRANCH  10  11
ATOM     11  C   UNL     1      -3.805   8.466  -0.574  0.00  0.00    +0.345 C 
ATOM     12  O   UNL     1      -4.671   7.667  -0.868  0.00  0.00    -0.245 OA
BRANCH  11  13
ATOM     13  C   UNL     1      -3.940   9.884  -0.976  0.00  0.00    +0.062 A 
ATOM     14  C   UNL     1      -2.957  10.822  -0.643  0.00  0.00    +0.034 A 
ATOM     15  C   UNL     1      -3.121  12.134  -1.042  0.00  0.00    +0.111 A 
ATOM     16  N   UNL     1      -4.190  12.508  -1.717  0.00  0.00    -0.263 NA
ATOM     17  C   UNL     1      -5.142  11.658  -2.046  0.00  0.00    +0.111 A 
ATOM     18  C   UNL     1      -5.057  10.325  -1.693  0.00  0.00    +0.034 A 
ENDBRANCH  11  13
ENDBRANCH  10  11
ENDBRANCH   7  10
ENDBRANCH   1   4
BRANCH   2  19
ATOM     19  C   UNL     1      -1.523   0.766   1.674  0.00  0.00    +0.042 A 
ATOM     20  C   UNL     1      -2.687   0.056   1.362  0.00  0.00    +0.033 A 
ATOM     21  C   UNL     1      -2.581  -1.260   0.958  0.00  0.00    +0.111 A 
ATOM     22  N   UNL     1      -1.405  -1.850   0.875  0.00  0.00    -0.263 NA
ATOM     23  C   UNL     1      -0.284  -1.220   1.165  0.00  0.00    +0.111 A 
ATOM     24  C   UNL     1      -0.298   0.101   1.572  0.00  0.00    +0.033 A 
ENDBRANCH   2  19
BRANCH   1  25
ATOM     25  S   UNL     1      -4.172   2.150   2.441  0.00  0.00    +0.081 S 
ATOM     26  O   UNL     1      -4.821   3.049   3.329  0.00  0.00    -0.149 OA
ATOM     27  O   UNL     1      -3.860   0.812   2.805  0.00  0.00    -0.149 OA
BRANCH  25  31
ATOM     28  C   UNL     1      -6.757   1.910  -1.267  0.00  0.00    -0.042 A 
ATOM     29  C   UNL     1      -5.980   0.829  -0.895  0.00  0.00    +0.006 A 
ATOM     30  C   UNL     1      -5.189   0.903   0.236  0.00  0.00    +0.029 A 
ATOM     31  C   UNL     1      -5.174   2.058   0.995  0.00  0.00    +0.109 A 
ATOM     32  C   UNL     1      -5.950   3.139   0.623  0.00  0.00    +0.029 A 
ATOM     33  C   UNL     1      -6.742   3.065  -0.508  0.00  0.00    +0.006 A 
BRANCH  28  35
ATOM     34  C   UNL     1      -8.625   0.687  -2.346  0.00  0.00    +0.015 C 
ATOM     35  C   UNL     1      -7.619   1.829  -2.500  0.00  0.00    -0.013 C 
ATOM     36  C   UNL     1      -8.371   3.149  -2.684  0.00  0.00    +0.015 C 
ATOM     37  C   UNL     1      -6.737   1.570  -3.723  0.00  0.00    +0.015 C 
ENDBRANCH  28  35
ENDBRANCH  25  31
ENDBRANCH   1  25
TORSDOF 8
