REMARK  Name = ZINC39083277
REMARK  4 active torsions:
REMARK  status: ('A' for Active; 'I' for Inactive)
REMARK    1  A    between atoms: C_1  and  C_2
REMARK    2  A    between atoms: C_4  and  C_13
REMARK    3  A    between atoms: C_8  and  C_9
REMARK    4  A    between atoms: C_8  and  N_12
REMARK                            x       y       z     vdW  Elec       q    Type
REMARK                         _______ _______ _______ _____ _____    ______ ____
ROOT
ATOM      1  C   UNL     1      -0.019   1.526   0.010  0.00  0.00    +0.007 C 
ATOM      2  C   UNL     1       0.002  -0.004   0.002  0.00  0.00    -0.001 C 
ATOM      3  C   UNL     1      -1.438  -0.552   0.066  0.00  0.00    +0.104 C 
ATOM      4  C   UNL     1      -1.326  -1.811   0.961  0.00  0.00    +0.014 C 
ATOM      5  C   UNL     1      -0.297  -1.377   2.034  0.00  0.00    -0.001 C 
ATOM      6  C   UNL     1       0.729  -0.528   1.253  0.00  0.00    +0.036 C 
ENDROOT
BRANCH   6   7
ATOM      7  N   UNL     1       1.184   0.598   2.079  0.00  0.00    +0.389 N 
ATOM      8  H   UNL     1       0.389   1.149   2.364  0.00  0.00    -0.088 HD
ATOM      9  H   UNL     1       1.659   0.245   2.896  0.00  0.00    -0.088 HD
ATOM     10  H   UNL     1       1.818   1.173   1.544  0.00  0.00    -0.088 HD
ENDBRANCH   6   7
BRANCH   6  11
ATOM     11  C   UNL     1       1.904  -1.381   0.848  0.00  0.00    +0.345 C 
ATOM     12  O   UNL     1       3.031  -1.068   1.191  0.00  0.00    -0.248 OA
ATOM     13  O   UNL     1       1.727  -2.383   0.177  0.00  0.00    -0.248 OA
ENDBRANCH   6  11
BRANCH   3  14
ATOM     14  C   UNL     1      -1.923  -0.923  -1.312  0.00  0.00    +0.359 C 
ATOM     15  O   UNL     1      -2.732  -1.825  -1.452  0.00  0.00    -0.246 OA
ATOM     16  O   UNL     1      -1.506  -0.322  -2.287  0.00  0.00    -0.246 OA
ENDBRANCH   3  14
TORSDOF 3
