REMARK  Name = ZINC06108757
REMARK  4 active torsions:
REMARK  status: ('A' for Active; 'I' for Inactive)
REMARK    1  A    between atoms: C_4  and  N_7
REMARK    2  A    between atoms: C_11  and  C_13
REMARK    3  A    between atoms: C_13  and  S_14
REMARK    4  A    between atoms: S_14  and  C_15
REMARK                            x       y       z     vdW  Elec       q    Type
REMARK                         _______ _______ _______ _____ _____    ______ ____
ROOT
ATOM      1  S   UNL     1      -0.032   1.728   0.422  0.00  0.00    -0.077 S 
ENDROOT
BRANCH   1   2
ATOM      2  C   UNL     1      -0.002  -0.017   0.179  0.00  0.00    +0.191 A 
ATOM      3  N   UNL     1       1.164  -0.651   0.153  0.00  0.00    -0.207 NA
ATOM      4  C   UNL     1       1.249  -1.959  -0.021  0.00  0.00    +0.129 A 
ATOM      5  C   UNL     1       0.056  -2.716  -0.197  0.00  0.00    +0.051 A 
ATOM      6  C   UNL     1      -0.089  -4.158  -0.408  0.00  0.00    -0.025 A 
ATOM      7  C   UNL     1      -1.343  -4.632  -0.548  0.00  0.00    -0.004 A 
ATOM      8  S   UNL     1      -2.393  -3.211  -0.411  0.00  0.00    -0.073 S 
ATOM      9  C   UNL     1      -1.143  -1.977  -0.164  0.00  0.00    +0.115 A 
ATOM     10  N   UNL     1      -1.145  -0.671   0.020  0.00  0.00    -0.214 NA
ATOM     11  C   UNL     1      -1.755  -6.056  -0.772  0.00  0.00    +0.043 C 
ATOM     12  C   UNL     1      -0.516  -6.860  -1.190  0.00  0.00    +0.005 C 
ATOM     13  C   UNL     1       0.631  -6.530  -0.230  0.00  0.00    +0.005 C 
ATOM     14  C   UNL     1       1.112  -5.098  -0.470  0.00  0.00    +0.037 C 
ATOM     15  N   UNL     1       2.482  -2.584  -0.037  0.00  0.00    -0.343 N 
ATOM     16  H   UNL     1       2.567  -3.481  -0.398  0.00  0.00    +0.144 HD
ATOM     17  H   UNL     1       3.263  -2.127   0.313  0.00  0.00    +0.144 HD
ENDBRANCH   1   2
BRANCH   1  18
ATOM     18  C   UNL     1       1.742   2.054   0.573  0.00  0.00    +0.173 C 
BRANCH  18  23
ATOM     19  N   UNL     1       4.668   5.804   1.272  0.00  0.00    -0.296 N 
ATOM     20  C   UNL     1       3.416   5.326   1.131  0.00  0.00    +0.306 C 
ATOM     21  O   UNL     1       2.467   6.083   1.181  0.00  0.00    -0.252 OA
ATOM     22  N   UNL     1       3.217   4.007   0.934  0.00  0.00    -0.239 N 
ATOM     23  C   UNL     1       1.965   3.529   0.793  0.00  0.00    +0.231 C 
ATOM     24  O   UNL     1       1.018   4.284   0.843  0.00  0.00    -0.274 OA
ATOM     25  H   UNL     1       5.426   5.200   1.231  0.00  0.00    +0.151 HD
ATOM     26  H   UNL     1       3.975   3.403   0.893  0.00  0.00    +0.159 HD
BRANCH  19  30
ATOM     27  C   UNL     1       6.476   9.664   1.083  0.00  0.00    +0.000 C 
ATOM     28  C   UNL     1       6.441   8.946   2.434  0.00  0.00    +0.002 C 
ATOM     29  C   UNL     1       6.215   7.449   2.211  0.00  0.00    +0.022 C 
ATOM     30  C   UNL     1       4.885   7.237   1.486  0.00  0.00    +0.074 C 
ATOM     31  C   UNL     1       4.919   7.955   0.135  0.00  0.00    +0.022 C 
ATOM     32  C   UNL     1       5.145   9.452   0.358  0.00  0.00    +0.002 C 
ENDBRANCH  19  30
ENDBRANCH  18  23
ENDBRANCH   1  18
TORSDOF 4
