REMARK  Name = ZINC03242122
REMARK  9 active torsions:
REMARK  status: ('A' for Active; 'I' for Inactive)
REMARK    1  A    between atoms: C_1  and  C_2
REMARK    2  A    between atoms: C_5  and  C_16
REMARK    3  A    between atoms: N_8  and  C_10
REMARK    4  A    between atoms: C_16  and  O_18
REMARK    5  A    between atoms: O_18  and  C_19
REMARK    6  A    between atoms: C_19  and  C_20
REMARK    7  A    between atoms: C_20  and  N_58
REMARK    8  A    between atoms: N_23  and  S_26
REMARK    9  A    between atoms: S_26  and  C_29
REMARK                            x       y       z     vdW  Elec       q    Type
REMARK                         _______ _______ _______ _____ _____    ______ ____
ROOT
ATOM      1  O   UNL     1       0.002   4.800  -6.074  0.00  0.00    -0.463 OA
ENDROOT
BRANCH   1   2
ATOM      2  C   UNL     1       0.234   5.958  -6.727  0.00  0.00    +0.346 C 
ATOM      3  O   UNL     1      -0.475   6.282  -7.660  0.00  0.00    -0.244 OA
BRANCH   2   8
ATOM      4  C   UNL     1       3.283  10.941  -7.546  0.00  0.00    +0.068 C 
ATOM      5  C   UNL     1       3.568   9.907  -6.487  0.00  0.00    +0.069 A 
ATOM      6  C   UNL     1       2.828   8.696  -6.287  0.00  0.00    +0.031 A 
ATOM      7  C   UNL     1       1.733   8.017  -6.842  0.00  0.00    +0.034 A 
ATOM      8  C   UNL     1       1.339   6.824  -6.311  0.00  0.00    +0.099 A 
ATOM      9  S   UNL     1       2.511   6.578  -4.988  0.00  0.00    -0.062 S 
ATOM     10  C   UNL     1       3.454   8.066  -5.201  0.00  0.00    +0.113 A 
ATOM     11  N   UNL     1       4.482   8.837  -4.790  0.00  0.00    -0.225 N 
ATOM     12  N   UNL     1       4.524   9.972  -5.609  0.00  0.00    -0.170 NA
BRANCH  11  13
ATOM     13  C   UNL     1       5.353   8.553  -3.730  0.00  0.00    +0.067 A 
ATOM     14  C   UNL     1       4.880   7.905  -2.596  0.00  0.00    +0.028 A 
ATOM     15  C   UNL     1       5.743   7.622  -1.555  0.00  0.00    +0.002 A 
ATOM     16  C   UNL     1       7.072   7.993  -1.636  0.00  0.00    +0.000 A 
ATOM     17  C   UNL     1       7.545   8.643  -2.762  0.00  0.00    +0.002 A 
ATOM     18  C   UNL     1       6.689   8.924  -3.809  0.00  0.00    +0.028 A 
ENDBRANCH  11  13
ENDBRANCH   2   8
ENDBRANCH   1   2
BRANCH   1  19
ATOM     19  C   UNL     1      -1.110   3.992  -6.541  0.00  0.00    +0.214 C 
BRANCH  19  20
ATOM     20  C   UNL     1      -1.216   2.728  -5.685  0.00  0.00    -0.037 C 
BRANCH  20  26
ATOM     21  C   UNL     1      -2.961   3.473  -4.180  0.00  0.00    -0.061 C 
ATOM     22  C   UNL     1      -3.221   4.024  -2.774  0.00  0.00    +0.091 C 
ATOM     23  N   UNL     1      -2.752   3.035  -1.791  0.00  0.00    -0.180 NA
ATOM     24  C   UNL     1      -1.384   2.513  -1.927  0.00  0.00    +0.091 C 
ATOM     25  C   UNL     1      -1.198   2.018  -3.370  0.00  0.00    -0.061 C 
ATOM     26  N   UNL     1      -1.528   3.123  -4.296  0.00  0.00    +0.384 N 
ATOM     27  H   UNL     1      -0.964   3.944  -4.048  0.00  0.00    -0.082 HD
BRANCH  23  28
ATOM     28  S   UNL     1      -3.737   2.528  -0.560  0.00  0.00    +0.067 S 
ATOM     29  O   UNL     1      -4.694   3.558  -0.355  0.00  0.00    -0.152 OA
ATOM     30  O   UNL     1      -2.884   2.063   0.477  0.00  0.00    -0.152 OA
BRANCH  28  31
ATOM     31  C   UNL     1      -4.626   1.125  -1.148  0.00  0.00    +0.143 A 
ATOM     32  C   UNL     1      -4.289  -0.186  -1.086  0.00  0.00    +0.036 A 
ATOM     33  C   UNL     1      -5.149  -1.125  -1.625  0.00  0.00    +0.010 A 
ATOM     34  C   UNL     1      -6.303  -0.707  -2.199  0.00  0.00    +0.047 A 
ATOM     35  S   UNL     1      -6.201   1.062  -1.987  0.00  0.00    -0.077 S 
ENDBRANCH  28  31
ENDBRANCH  23  28
ENDBRANCH  20  26
ENDBRANCH  19  20
ENDBRANCH   1  19
TORSDOF 8
