REMARK  Name = ZINC32753389
REMARK  12 active torsions:
REMARK  status: ('A' for Active; 'I' for Inactive)
REMARK    1  A    between atoms: C_1  and  C_2
REMARK    2  A    between atoms: C_2  and  C_3
REMARK    3  A    between atoms: C_3  and  C_28
REMARK    4  A    between atoms: N_6  and  N_10
REMARK    5  A    between atoms: C_11  and  C_13
REMARK    6  A    between atoms: C_13  and  N_14
REMARK    7  A    between atoms: N_14  and  C_15
REMARK    8  A    between atoms: N_14  and  C_16
REMARK    9  A    between atoms: C_16  and  C_17
REMARK   10  A    between atoms: N_19  and  C_20
REMARK   11  A    between atoms: C_23  and  O_26
REMARK   12  A    between atoms: O_26  and  C_27
REMARK                            x       y       z     vdW  Elec       q    Type
REMARK                         _______ _______ _______ _____ _____    ______ ____
ROOT
ATOM      1  N   UNL     1      -3.780   1.689  -2.654  0.00  0.00    -0.225 N 
ATOM      2  C   UNL     1      -3.815   0.585  -3.425  0.00  0.00    +0.213 C 
ATOM      3  O   UNL     1      -3.164  -0.391  -3.118  0.00  0.00    -0.276 OA
ATOM      4  H   UNL     1      -4.370   2.574  -2.933  0.00  0.00    +0.173 HD
ENDROOT
BRANCH   1   8
ATOM      5  C   UNL     1      -1.332   2.110   0.023  0.00  0.00    +0.139 C 
ATOM      6  C   UNL     1      -1.819   2.365  -1.390  0.00  0.00    +0.268 C 
ATOM      7  O   UNL     1      -1.268   3.023  -2.247  0.00  0.00    -0.271 OA
ATOM      8  N   UNL     1      -2.991   1.710  -1.496  0.00  0.00    -0.137 N 
ATOM      9  C   UNL     1      -3.310   1.082  -0.358  0.00  0.00    +0.327 C 
ATOM     10  O   UNL     1      -4.321   0.424  -0.210  0.00  0.00    -0.251 OA
ATOM     11  N   UNL     1      -2.386   1.260   0.603  0.00  0.00    -0.280 N 
ATOM     12  H   UNL     1      -2.300   0.909   1.643  0.00  0.00    +0.152 HD
BRANCH   5  13
ATOM     13  C   UNL     1      -0.013   1.381   0.005  0.00  0.00    -0.015 A 
ATOM     14  C   UNL     1       1.171   2.095  -0.003  0.00  0.00    +0.006 A 
ATOM     15  C   UNL     1       2.381   1.427  -0.027  0.00  0.00    +0.000 A 
ATOM     16  C   UNL     1       2.407   0.045  -0.039  0.00  0.00    +0.000 A 
ATOM     17  C   UNL     1       1.223  -0.669  -0.030  0.00  0.00    +0.000 A 
ATOM     18  C   UNL     1       0.013  -0.001  -0.008  0.00  0.00    +0.006 A 
ENDBRANCH   5  13
BRANCH   5  20
ATOM     19  C   UNL     1      -2.586   4.082   0.906  0.00  0.00    +0.007 C 
ATOM     20  C   UNL     1      -1.209   3.424   0.796  0.00  0.00    +0.037 C 
ENDBRANCH   5  20
ENDBRANCH   1   8
BRANCH   2  21
ATOM     21  C   UNL     1      -4.663   0.562  -4.671  0.00  0.00    +0.020 C 
BRANCH  21  22
ATOM     22  N   UNL     1      -4.530  -0.744  -5.330  0.00  0.00    +0.389 N 
ATOM     23  C   UNL     1      -3.164  -0.943  -5.834  0.00  0.00    -0.095 C 
ATOM     24  H   UNL     1      -4.731  -1.523  -4.580  0.00  0.00    -0.081 HD
BRANCH  22  25
ATOM     25  C   UNL     1      -5.516  -0.891  -6.410  0.00  0.00    +0.019 C 
BRANCH  25  26
ATOM     26  C   UNL     1      -5.518  -2.317  -6.897  0.00  0.00    +0.201 C 
ATOM     27  O   UNL     1      -4.771  -3.131  -6.395  0.00  0.00    -0.278 OA
ATOM     28  N   UNL     1      -6.349  -2.688  -7.891  0.00  0.00    -0.287 N 
ATOM     29  H   UNL     1      -7.078  -1.971  -8.294  0.00  0.00    +0.155 HD
BRANCH  28  30
ATOM     30  C   UNL     1      -6.283  -3.988  -8.410  0.00  0.00    +0.034 A 
ATOM     31  C   UNL     1      -6.519  -4.210  -9.760  0.00  0.00    +0.027 A 
ATOM     32  C   UNL     1      -6.449  -5.490 -10.272  0.00  0.00    +0.047 A 
ATOM     33  C   UNL     1      -6.154  -6.557  -9.436  0.00  0.00    +0.120 A 
ATOM     34  C   UNL     1      -5.924  -6.337  -8.085  0.00  0.00    +0.047 A 
ATOM     35  C   UNL     1      -5.988  -5.056  -7.573  0.00  0.00    +0.027 A 
BRANCH  33  36
ATOM     36  O   UNL     1      -6.091  -7.818  -9.939  0.00  0.00    -0.495 OA
ATOM     37  C   UNL     1      -6.339  -7.971 -11.338  0.00  0.00    +0.277 C 
ENDBRANCH  33  36
ENDBRANCH  28  30
ENDBRANCH  25  26
ENDBRANCH  22  25
ENDBRANCH  21  22
ENDBRANCH   2  21
TORSDOF 9
