REMARK  Name = ZINC22875176
REMARK  11 active torsions:
REMARK  status: ('A' for Active; 'I' for Inactive)
REMARK    1  A    between atoms: C_1  and  C_2
REMARK    2  A    between atoms: C_2  and  O_3
REMARK    3  A    between atoms: O_3  and  C_4
REMARK    4  A    between atoms: C_4  and  C_6
REMARK    5  A    between atoms: C_7  and  C_14
REMARK    6  A    between atoms: C_8  and  C_12
REMARK    7  A    between atoms: C_9  and  N_11
REMARK    8  A    between atoms: C_14  and  S_15
REMARK    9  A    between atoms: S_15  and  C_16
REMARK   10  A    between atoms: C_19  and  C_22
REMARK   11  A    between atoms: N_20  and  N_21
REMARK                            x       y       z     vdW  Elec       q    Type
REMARK                         _______ _______ _______ _____ _____    ______ ____
ROOT
ATOM      1  C   UNL     1       3.971   2.716  -0.064  0.00  0.00    +0.115 C 
ENDROOT
BRANCH   1   3
ATOM      2  C   UNL     1       6.017   3.386  -1.369  0.00  0.00    +0.103 A 
ATOM      3  C   UNL     1       5.428   3.086  -0.156  0.00  0.00    +0.003 A 
ATOM      4  C   UNL     1       6.229   3.144   0.972  0.00  0.00    +0.084 A 
ATOM      5  C   UNL     1       7.574   3.492   0.803  0.00  0.00    +0.082 A 
ATOM      6  S   UNL     1       7.702   3.742  -0.908  0.00  0.00    -0.066 S 
BRANCH   5   7
ATOM      7  N   UNL     1       8.555   3.611   1.761  0.00  0.00    -0.352 N 
ATOM      8  H   UNL     1       9.577   3.895   1.470  0.00  0.00    +0.143 HD
ATOM      9  H   UNL     1       8.317   3.422   2.818  0.00  0.00    +0.143 HD
ENDBRANCH   5   7
BRANCH   2  10
ATOM     10  C   UNL     1       5.428   3.407  -2.658  0.00  0.00    +0.346 C 
ATOM     11  O   UNL     1       4.250   3.135  -2.794  0.00  0.00    -0.244 OA
BRANCH  10  12
ATOM     12  O   UNL     1       6.174   3.728  -3.736  0.00  0.00    -0.461 OA
BRANCH  12  14
ATOM     13  C   UNL     1       6.515   4.114  -6.097  0.00  0.00    +0.048 C 
ATOM     14  C   UNL     1       5.516   3.729  -5.004  0.00  0.00    +0.229 C 
ENDBRANCH  12  14
ENDBRANCH  10  12
ENDBRANCH   2  10
BRANCH   4  15
ATOM     15  C   UNL     1       5.699   2.854   2.270  0.00  0.00    +0.102 C 
ATOM     16  N   UNL     1       5.278   2.624   3.300  0.00  0.00    -0.191 NA
ENDBRANCH   4  15
ENDBRANCH   1   3
BRANCH   1  17
ATOM     17  S   UNL     1       3.791   0.923  -0.237  0.00  0.00    -0.080 S 
BRANCH  17  18
ATOM     18  C   UNL     1       2.041   0.776  -0.095  0.00  0.00    +0.209 A 
ATOM     19  N   UNL     1       1.188   1.760   0.085  0.00  0.00    -0.121 NA
ATOM     20  N   UNL     1      -0.010   1.299   0.144  0.00  0.00    -0.127 NA
ATOM     21  C   UNL     1       0.004  -0.006   0.005  0.00  0.00    +0.183 A 
ATOM     22  N   UNL     1       1.318  -0.381  -0.152  0.00  0.00    -0.224 N 
BRANCH  21  23
ATOM     23  C   UNL     1      -1.171  -0.904   0.016  0.00  0.00    +0.035 A 
ATOM     24  C   UNL     1      -1.157  -2.068   0.787  0.00  0.00    +0.013 A 
ATOM     25  C   UNL     1      -2.256  -2.901   0.792  0.00  0.00    +0.001 A 
ATOM     26  C   UNL     1      -3.372  -2.586   0.037  0.00  0.00    +0.001 A 
ATOM     27  C   UNL     1      -3.393  -1.434  -0.730  0.00  0.00    +0.016 A 
ATOM     28  C   UNL     1      -2.301  -0.588  -0.740  0.00  0.00    +0.029 A 
ATOM     29 BR   UNL     1      -2.335   0.990  -1.781  0.00  0.00    -0.050 Br
ENDBRANCH  21  23
BRANCH  22  30
ATOM     30  N   UNL     1       1.800  -1.647  -0.329  0.00  0.00    -0.295 N 
ATOM     31  H   UNL     1       1.106  -2.501  -0.357  0.00  0.00    +0.163 HD
ATOM     32  H   UNL     1       2.881  -1.813  -0.444  0.00  0.00    +0.163 HD
ENDBRANCH  22  30
ENDBRANCH  17  18
ENDBRANCH   1  17
TORSDOF 10
