REMARK  Name = ZINC40558395
REMARK  2 active torsions:
REMARK  status: ('A' for Active; 'I' for Inactive)
REMARK    1  A    between atoms: C_5  and  C_8
REMARK    2  A    between atoms: C_17  and  C_19
REMARK                            x       y       z     vdW  Elec       q    Type
REMARK                         _______ _______ _______ _____ _____    ______ ____
ROOT
ATOM      1  C   UNL     1       0.759   1.953  -0.750  0.00  0.00    +0.004 C 
ATOM      2  C   UNL     1       1.689   2.191  -1.943  0.00  0.00    +0.019 C 
ATOM      3  C   UNL     1       1.400   1.147  -3.026  0.00  0.00    +0.110 C 
ATOM      4  N   UNL     1       1.510  -0.192  -2.433  0.00  0.00    -0.272 N 
ATOM      5  C   UNL     1       0.727  -0.498  -1.228  0.00  0.00    +0.190 C 
ATOM      6  C   UNL     1       1.024   0.564  -0.165  0.00  0.00    +0.034 C 
ATOM      7  C   UNL     1       2.314  -1.123  -2.985  0.00  0.00    +0.306 C 
ATOM      8  O   UNL     1       2.273  -2.272  -2.590  0.00  0.00    -0.252 OA
ATOM      9  N   UNL     1       3.162  -0.780  -3.974  0.00  0.00    -0.274 N 
ATOM     10  C   UNL     1       3.572   0.594  -4.317  0.00  0.00    +0.110 C 
ATOM     11  C   UNL     1       4.940   0.434  -5.026  0.00  0.00    +0.021 C 
ATOM     12  C   UNL     1       4.723  -0.875  -5.830  0.00  0.00    +0.033 C 
ATOM     13  C   UNL     1       3.837  -1.715  -4.886  0.00  0.00    +0.163 C 
ENDROOT
BRANCH  13  14
ATOM     14  C   UNL     1       4.691  -2.675  -4.098  0.00  0.00    +0.231 C 
ATOM     15  O   UNL     1       4.736  -2.593  -2.888  0.00  0.00    -0.274 OA
ATOM     16  N   UNL     1       5.403  -3.624  -4.736  0.00  0.00    -0.328 N 
ATOM     17  H   UNL     1       5.367  -3.690  -5.703  0.00  0.00    +0.145 HD
ATOM     18  H   UNL     1       5.952  -4.242  -4.228  0.00  0.00    +0.145 HD
ENDBRANCH  13  14
BRANCH   5  19
ATOM     19  C   UNL     1       1.112  -1.859  -0.708  0.00  0.00    +0.376 C 
ATOM     20  O   UNL     1       2.171  -2.011  -0.122  0.00  0.00    -0.244 OA
ATOM     21  O   UNL     1       0.364  -2.808  -0.872  0.00  0.00    -0.244 OA
ENDBRANCH   5  19
TORSDOF 2
