REMARK  Name = ZINC00989052
REMARK  6 active torsions:
REMARK  status: ('A' for Active; 'I' for Inactive)
REMARK    1  A    between atoms: C_1  and  C_2
REMARK    2  A    between atoms: C_5  and  N_8
REMARK    3  A    between atoms: C_11  and  C_13
REMARK    4  A    between atoms: C_14  and  C_22
REMARK    5  A    between atoms: C_16  and  C_20
REMARK    6  A    between atoms: C_17  and  N_19
REMARK                            x       y       z     vdW  Elec       q    Type
REMARK                         _______ _______ _______ _____ _____    ______ ____
ROOT
ATOM      1  N   UNL     1       0.057  -4.172  -0.021  0.00  0.00    -0.200 N 
ATOM      2  C   UNL     1       0.693  -4.966   0.868  0.00  0.00    +0.230 A 
ATOM      3  C   UNL     1       0.460  -6.262   0.502  0.00  0.00    +0.050 A 
ATOM      4  C   UNL     1      -0.337  -6.252  -0.635  0.00  0.00    +0.068 A 
ATOM      5  N   UNL     1      -0.588  -5.003  -0.951  0.00  0.00    -0.168 NA
ATOM      6  C   UNL     1      -0.835  -7.467  -1.375  0.00  0.00    +0.068 C 
ATOM      7  C   UNL     1       1.018  -7.435   1.266  0.00  0.00    +0.101 C 
ATOM      8  C   UNL     1       1.562  -6.926   2.578  0.00  0.00    +0.098 C 
ATOM      9  C   UNL     1       1.736  -5.610   2.830  0.00  0.00    +0.200 C 
ATOM     10  O   UNL     1       1.442  -4.632   1.949  0.00  0.00    -0.423 OA
ENDROOT
BRANCH   1  15
ATOM     11  C   UNL     1      -0.018   1.503   0.010  0.00  0.00    +0.044 C 
ATOM     12  C   UNL     1       0.002  -0.004   0.002  0.00  0.00    -0.050 A 
ATOM     13  C   UNL     1       0.006  -0.688  -1.200  0.00  0.00    +0.005 A 
ATOM     14  C   UNL     1       0.024  -2.068  -1.211  0.00  0.00    +0.028 A 
ATOM     15  C   UNL     1       0.039  -2.771  -0.013  0.00  0.00    +0.069 A 
ATOM     16  C   UNL     1       0.036  -2.082   1.192  0.00  0.00    +0.028 A 
ATOM     17  C   UNL     1       0.023  -0.700   1.196  0.00  0.00    +0.005 A 
ENDBRANCH   1  15
BRANCH   7  18
ATOM     18  C   UNL     1       2.124  -8.080   0.471  0.00  0.00    -0.034 A 
ATOM     19  C   UNL     1       3.247  -7.348   0.131  0.00  0.00    +0.007 A 
ATOM     20  C   UNL     1       4.263  -7.939  -0.597  0.00  0.00    +0.038 A 
ATOM     21  C   UNL     1       4.155  -9.263  -0.986  0.00  0.00    +0.123 A 
ATOM     22  C   UNL     1       3.030  -9.995  -0.645  0.00  0.00    +0.038 A 
ATOM     23  C   UNL     1       2.018  -9.404   0.088  0.00  0.00    +0.007 A 
ATOM     24  F   UNL     1       5.147  -9.841  -1.699  0.00  0.00    -0.205 F 
ENDBRANCH   7  18
BRANCH   9  25
ATOM     25  N   UNL     1       2.242  -5.247   4.053  0.00  0.00    -0.328 N 
ATOM     26  H   UNL     1       2.463  -5.928   4.708  0.00  0.00    +0.145 HD
ATOM     27  H   UNL     1       2.377  -4.310   4.263  0.00  0.00    +0.145 HD
ENDBRANCH   9  25
BRANCH   8  28
ATOM     28  C   UNL     1       1.908  -7.874   3.595  0.00  0.00    +0.101 C 
ATOM     29  N   UNL     1       2.182  -8.626   4.401  0.00  0.00    -0.191 NA
ENDBRANCH   8  28
TORSDOF 4
