REMARK  Name = ZINC04530851
REMARK  10 active torsions:
REMARK  status: ('A' for Active; 'I' for Inactive)
REMARK    1  A    between atoms: C_1  and  C_2
REMARK    2  A    between atoms: C_5  and  S_8
REMARK    3  A    between atoms: S_8  and  O_11
REMARK    4  A    between atoms: O_11  and  C_12
REMARK    5  A    between atoms: C_12  and  C_13
REMARK    6  A    between atoms: C_15  and  O_28
REMARK    7  A    between atoms: C_17  and  O_27
REMARK    8  A    between atoms: C_19  and  O_26
REMARK    9  A    between atoms: C_21  and  O_24
REMARK   10  A    between atoms: O_24  and  C_25
REMARK                            x       y       z     vdW  Elec       q    Type
REMARK                         _______ _______ _______ _____ _____    ______ ____
ROOT
ATOM      1  C   UNL     1       0.002  -0.004   0.002  0.00  0.00    +0.180 C 
ATOM      2  C   UNL     1       0.718  -0.510   1.257  0.00  0.00    +0.177 C 
ATOM      3  C   UNL     1       2.133   0.073   1.299  0.00  0.00    +0.179 C 
ATOM      4  C   UNL     1       2.046   1.601   1.256  0.00  0.00    +0.201 C 
ATOM      5  C   UNL     1       1.279   2.026   0.001  0.00  0.00    +0.281 C 
ATOM      6  O   UNL     1      -0.017   1.425   0.010  0.00  0.00    -0.340 OA
ENDROOT
BRANCH   5   7
ATOM      7  O   UNL     1       1.145   3.449  -0.017  0.00  0.00    -0.352 OA
ATOM      8  C   UNL     1       0.539   3.960  -1.206  0.00  0.00    +0.197 C 
ENDBRANCH   5   7
BRANCH   4   9
ATOM      9  O   UNL     1       1.361   2.073   2.418  0.00  0.00    -0.384 OA
ATOM     10  H   UNL     1       1.269   3.035   2.457  0.00  0.00    +0.210 HD
ENDBRANCH   4   9
BRANCH   3  11
ATOM     11  O   UNL     1       2.784  -0.337   2.503  0.00  0.00    -0.386 OA
ATOM     12  H   UNL     1       3.687  -0.003   2.596  0.00  0.00    +0.210 HD
ENDBRANCH   3  11
BRANCH   2  13
ATOM     13  O   UNL     1      -0.004  -0.095   2.419  0.00  0.00    -0.386 OA
ATOM     14  H   UNL     1       0.393  -0.381   3.252  0.00  0.00    +0.210 HD
ENDBRANCH   2  13
BRANCH   1  15
ATOM     15  C   UNL     1      -1.433  -0.534  -0.016  0.00  0.00    +0.228 C 
BRANCH  15  16
ATOM     16  O   UNL     1      -2.064  -0.158  -1.242  0.00  0.00    -0.232 OA
BRANCH  16  17
ATOM     17  S   UNL     1      -3.504  -0.634  -1.369  0.00  0.00    +0.112 S 
ATOM     18  O   UNL     1      -3.905  -0.364  -2.705  0.00  0.00    -0.142 OA
ATOM     19  O   UNL     1      -3.550  -1.940  -0.809  0.00  0.00    -0.142 OA
BRANCH  17  24
ATOM     20  C   UNL     1      -6.870   2.889   2.189  0.00  0.00    +0.044 C 
ATOM     21  C   UNL     1      -6.030   2.009   1.300  0.00  0.00    -0.050 A 
ATOM     22  C   UNL     1      -5.815   2.362  -0.018  0.00  0.00    +0.005 A 
ATOM     23  C   UNL     1      -5.043   1.555  -0.834  0.00  0.00    +0.030 A 
ATOM     24  C   UNL     1      -4.487   0.394  -0.330  0.00  0.00    +0.117 A 
ATOM     25  C   UNL     1      -4.707   0.038   0.988  0.00  0.00    +0.030 A 
ATOM     26  C   UNL     1      -5.475   0.847   1.804  0.00  0.00    +0.005 A 
ENDBRANCH  17  24
ENDBRANCH  16  17
ENDBRANCH  15  16
ENDBRANCH   1  15
TORSDOF 8
