REMARK  Name = ZINC40980745
REMARK  16 active torsions:
REMARK  status: ('A' for Active; 'I' for Inactive)
REMARK    1  A    between atoms: C_1  and  C_2
REMARK    2  A    between atoms: C_2  and  C_3
REMARK    3  A    between atoms: C_3  and  S_4
REMARK    4  A    between atoms: S_4  and  C_5
REMARK    5  A    between atoms: C_10  and  C_21
REMARK    6  A    between atoms: C_12  and  C_16
REMARK    7  A    between atoms: C_13  and  C_15
REMARK    8  A    between atoms: C_16  and  O_18
REMARK    9  A    between atoms: O_18  and  C_19
REMARK   10  A    between atoms: C_19  and  C_20
REMARK   11  A    between atoms: C_24  and  O_29
REMARK   12  A    between atoms: C_25  and  O_27
REMARK   13  A    between atoms: O_27  and  C_28
REMARK   14  A    between atoms: O_29  and  C_30
REMARK   15  A    between atoms: C_30  and  C_31
REMARK   16  A    between atoms: C_36  and  C_37
REMARK                            x       y       z     vdW  Elec       q    Type
REMARK                         _______ _______ _______ _____ _____    ______ ____
ROOT
ATOM      1  C   UNL     1       1.998  -2.518  -2.614  0.00  0.00    +0.210 A 
ATOM      2  N   UNL     1       2.455  -1.704  -3.576  0.00  0.00    -0.187 NA
ATOM      3  C   UNL     1       2.836  -2.413  -4.603  0.00  0.00    +0.219 A 
ATOM      4  N   UNL     1       2.631  -3.721  -4.311  0.00  0.00    -0.220 N 
ATOM      5  N   UNL     1       2.092  -3.764  -3.026  0.00  0.00    -0.141 NA
ATOM      6  C   UNL     1       2.951  -4.814  -5.226  0.00  0.00    +0.179 C 
ATOM      7  C   UNL     1       3.242  -4.253  -6.593  0.00  0.00    +0.082 C 
ATOM      8  C   UNL     1       3.433  -2.945  -6.823  0.00  0.00    +0.020 C 
ATOM      9  N   UNL     1       3.366  -2.009  -5.821  0.00  0.00    -0.287 N 
ATOM     10  C   UNL     1       3.731  -2.488  -8.228  0.00  0.00    +0.061 C 
ATOM     11  H   UNL     1       3.677  -1.101  -5.958  0.00  0.00    +0.155 HD
ENDROOT
BRANCH   6  12
ATOM     12  C   UNL     1       4.162  -5.555  -4.720  0.00  0.00    -0.015 A 
ATOM     13  C   UNL     1       5.361  -4.887  -4.555  0.00  0.00    +0.010 A 
ATOM     14  C   UNL     1       6.474  -5.562  -4.090  0.00  0.00    +0.050 A 
ATOM     15  C   UNL     1       6.389  -6.912  -3.788  0.00  0.00    +0.162 A 
ATOM     16  C   UNL     1       5.182  -7.584  -3.953  0.00  0.00    +0.162 A 
ATOM     17  C   UNL     1       4.069  -6.900  -4.415  0.00  0.00    +0.055 A 
BRANCH  16  18
ATOM     18  O   UNL     1       5.093  -8.909  -3.658  0.00  0.00    -0.491 OA
ATOM     19  C   UNL     1       3.823  -9.534  -3.852  0.00  0.00    +0.277 C 
ENDBRANCH  16  18
BRANCH  15  20
ATOM     20  O   UNL     1       7.483  -7.578  -3.331  0.00  0.00    -0.484 OA
BRANCH  20  21
ATOM     21  C   UNL     1       8.688  -6.824  -3.187  0.00  0.00    +0.265 C 
BRANCH  21  22
ATOM     22  C   UNL     1       9.784  -7.722  -2.673  0.00  0.00    -0.007 A 
ATOM     23  C   UNL     1       9.525  -9.058  -2.428  0.00  0.00    +0.007 A 
ATOM     24  C   UNL     1      10.530  -9.882  -1.957  0.00  0.00    +0.000 A 
ATOM     25  C   UNL     1      11.795  -9.370  -1.732  0.00  0.00    +0.000 A 
ATOM     26  C   UNL     1      12.054  -8.035  -1.979  0.00  0.00    +0.004 A 
ATOM     27  C   UNL     1      11.050  -7.212  -2.454  0.00  0.00    -0.044 A 
ATOM     28  C   UNL     1      11.334  -5.757  -2.728  0.00  0.00    +0.044 C 
ENDBRANCH  21  22
ENDBRANCH  20  21
ENDBRANCH  15  20
ENDBRANCH   6  12
BRANCH   7  29
ATOM     29  C   UNL     1       3.317  -5.147  -7.685  0.00  0.00    +0.339 C 
ATOM     30  O   UNL     1       2.298  -5.540  -8.221  0.00  0.00    -0.245 OA
BRANCH  29  31
ATOM     31  O   UNL     1       4.520  -5.564  -8.133  0.00  0.00    -0.462 OA
BRANCH  31  32
ATOM     32  C   UNL     1       4.521  -6.467  -9.241  0.00  0.00    +0.229 C 
ATOM     33  C   UNL     1       5.964  -6.826  -9.604  0.00  0.00    +0.048 C 
ENDBRANCH  31  32
ENDBRANCH  29  31
ENDBRANCH   7  29
BRANCH   1  34
ATOM     34  S   UNL     1       1.376  -2.003  -1.048  0.00  0.00    -0.084 S 
BRANCH  34  35
ATOM     35  C   UNL     1       1.508  -0.195  -1.096  0.00  0.00    +0.077 C 
BRANCH  35  37
ATOM     36  C   UNL     1       1.106   1.915   0.181  0.00  0.00    +0.004 C 
ATOM     37  C   UNL     1       0.995   0.390   0.222  0.00  0.00    +0.008 C 
ENDBRANCH  35  37
ENDBRANCH  34  35
ENDBRANCH   1  34
TORSDOF 11
