REMARK  Name = ZINC44919060
REMARK  5 active torsions:
REMARK  status: ('A' for Active; 'I' for Inactive)
REMARK    1  A    between atoms: C_1  and  O_2
REMARK    2  A    between atoms: O_2  and  C_3
REMARK    3  A    between atoms: C_6  and  C_10
REMARK    4  A    between atoms: C_8  and  O_9
REMARK    5  A    between atoms: C_20  and  C_21
REMARK                            x       y       z     vdW  Elec       q    Type
REMARK                         _______ _______ _______ _____ _____    ______ ____
ROOT
ATOM      1  C   UNL     1      -4.791  -2.477   0.123  0.00  0.00    +0.068 C 
ATOM      2  C   UNL     1      -5.474  -1.949  -1.145  0.00  0.00    +0.109 C 
ATOM      3  C   UNL     1      -6.048  -0.580  -0.911  0.00  0.00    +0.218 C 
ATOM      4  O   UNL     1      -5.981   0.237  -1.806  0.00  0.00    -0.275 OA
ATOM      5  N   UNL     1      -6.634  -0.221   0.246  0.00  0.00    -0.283 N 
ATOM      6  C   UNL     1      -6.526  -1.095   1.359  0.00  0.00    +0.072 A 
ATOM      7  C   UNL     1      -5.664  -2.156   1.295  0.00  0.00    +0.039 A 
ATOM      8  S   UNL     1      -5.834  -2.926   2.757  0.00  0.00    +0.010 S 
ATOM      9  N   UNL     1      -6.959  -1.919   3.483  0.00  0.00    -0.208 NA
ATOM     10  C   UNL     1      -7.205  -0.993   2.573  0.00  0.00    +0.101 A 
ATOM     11  H   UNL     1      -7.118   0.617   0.318  0.00  0.00    +0.155 HD
ENDROOT
BRANCH  10  12
ATOM     12  C   UNL     1      -8.164   0.109   2.832  0.00  0.00    +0.003 A 
ATOM     13  C   UNL     1      -9.062   0.501   1.841  0.00  0.00    +0.011 A 
ATOM     14  C   UNL     1      -9.951   1.527   2.086  0.00  0.00    +0.020 A 
ATOM     15  C   UNL     1      -9.953   2.166   3.315  0.00  0.00    +0.041 A 
ATOM     16  C   UNL     1      -9.063   1.779   4.302  0.00  0.00    +0.020 A 
ATOM     17  C   UNL     1      -8.173   0.751   4.069  0.00  0.00    +0.011 A 
ATOM     18 CL   UNL     1     -11.075   3.455   3.618  0.00  0.00    -0.084 Cl
ENDBRANCH  10  12
BRANCH   1  22
ATOM     19  C   UNL     1      -0.985  -0.589   0.602  0.00  0.00    +0.161 A 
ATOM     20  C   UNL     1      -2.140   0.175   0.565  0.00  0.00    +0.049 A 
ATOM     21  C   UNL     1      -3.369  -0.439   0.409  0.00  0.00    +0.008 A 
ATOM     22  C   UNL     1      -3.449  -1.814   0.292  0.00  0.00    -0.035 A 
ATOM     23  C   UNL     1      -2.300  -2.581   0.329  0.00  0.00    +0.053 A 
ATOM     24  C   UNL     1      -1.064  -1.972   0.478  0.00  0.00    +0.159 A 
BRANCH  19  26
ATOM     25  C   UNL     1       0.231   1.437   0.876  0.00  0.00    +0.277 C 
ATOM     26  O   UNL     1       0.225   0.013   0.754  0.00  0.00    -0.491 OA
ENDBRANCH  19  26
BRANCH  24  27
ATOM     27  O   UNL     1       0.068  -2.725   0.509  0.00  0.00    -0.503 OA
ATOM     28  H   UNL     1       0.322  -3.018   1.395  0.00  0.00    +0.292 HD
ENDBRANCH  24  27
ENDBRANCH   1  22
TORSDOF 4
