REMARK  Name = ZINC18063836
REMARK  6 active torsions:
REMARK  status: ('A' for Active; 'I' for Inactive)
REMARK    1  A    between atoms: C_1  and  C_2
REMARK    2  A    between atoms: C_5  and  N_8
REMARK    3  A    between atoms: C_14  and  C_19
REMARK    4  A    between atoms: C_19  and  S_20
REMARK    5  A    between atoms: S_20  and  C_21
REMARK    6  A    between atoms: C_24  and  C_27
REMARK                            x       y       z     vdW  Elec       q    Type
REMARK                         _______ _______ _______ _____ _____    ______ ____
ROOT
ATOM      1  N   UNL     1       0.172  -4.192   2.347  0.00  0.00    -0.328 N 
ATOM      2  C   UNL     1       0.024  -4.875   1.161  0.00  0.00    +0.180 C 
ATOM      3  N   UNL     1       0.025  -4.226   0.032  0.00  0.00    -0.371 N 
ATOM      4  N   UNL     1      -0.127  -6.246   1.169  0.00  0.00    -0.298 N 
ATOM      5  C   UNL     1      -0.008  -6.944   2.346  0.00  0.00    +0.211 A 
ATOM      6  N   UNL     1       0.094  -6.285   3.482  0.00  0.00    -0.218 NA
ATOM      7  C   UNL     1       0.211  -6.921   4.645  0.00  0.00    +0.060 A 
ATOM      8  C   UNL     1       0.227  -8.285   4.680  0.00  0.00    +0.094 A 
ATOM      9  C   UNL     1       0.118  -8.997   3.471  0.00  0.00    +0.253 A 
ATOM     10  N   UNL     1      -0.003  -8.304   2.319  0.00  0.00    -0.293 N 
ATOM     11  O   UNL     1       0.129 -10.217   3.465  0.00  0.00    -0.268 OA
ATOM     12  H   UNL     1       0.256  -4.681   3.181  0.00  0.00    +0.169 HD
ATOM     13  H   UNL     1      -0.144  -4.697  -0.798  0.00  0.00    +0.159 HD
ATOM     14  H   UNL     1      -0.317  -6.718   0.343  0.00  0.00    +0.172 HD
ATOM     15  H   UNL     1       0.195  -3.271   0.022  0.00  0.00    +0.159 HD
ATOM     16  H   UNL     1      -0.083  -8.774   1.474  0.00  0.00    +0.172 HD
ENDROOT
BRANCH   1  21
ATOM     17  C   UNL     1       0.293   1.479   2.360  0.00  0.00    +0.044 C 
ATOM     18  C   UNL     1       0.261  -0.028   2.357  0.00  0.00    -0.050 A 
ATOM     19  C   UNL     1       1.060  -0.733   1.475  0.00  0.00    +0.005 A 
ATOM     20  C   UNL     1       1.033  -2.114   1.470  0.00  0.00    +0.026 A 
ATOM     21  C   UNL     1       0.202  -2.794   2.351  0.00  0.00    +0.042 A 
ATOM     22  C   UNL     1      -0.599  -2.083   3.235  0.00  0.00    +0.026 A 
ATOM     23  C   UNL     1      -0.564  -0.702   3.239  0.00  0.00    +0.005 A 
ENDBRANCH   1  21
BRANCH   7  24
ATOM     24  C   UNL     1       0.326  -6.135   5.925  0.00  0.00    +0.130 C 
BRANCH  24  25
ATOM     25  S   UNL     1       1.991  -5.427   6.052  0.00  0.00    -0.119 S 
BRANCH  25  26
ATOM     26  C   UNL     1       1.966  -4.550   7.580  0.00  0.00    +0.008 A 
ATOM     27  C   UNL     1       0.816  -4.542   8.360  0.00  0.00    +0.015 A 
ATOM     28  C   UNL     1       0.800  -3.853   9.557  0.00  0.00    +0.004 A 
ATOM     29  C   UNL     1       1.926  -3.172   9.980  0.00  0.00    -0.050 A 
ATOM     30  C   UNL     1       3.073  -3.177   9.206  0.00  0.00    +0.004 A 
ATOM     31  C   UNL     1       3.098  -3.868   8.011  0.00  0.00    +0.015 A 
ATOM     32  C   UNL     1       1.905  -2.422  11.286  0.00  0.00    +0.044 C 
ENDBRANCH  25  26
ENDBRANCH  24  25
ENDBRANCH   7  24
TORSDOF 4
