REMARK  Name = ZINC38734739
REMARK  6 active torsions:
REMARK  status: ('A' for Active; 'I' for Inactive)
REMARK    1  A    between atoms: C_6  and  C_7
REMARK    2  A    between atoms: C_11  and  S_13
REMARK    3  A    between atoms: S_13  and  C_14
REMARK    4  A    between atoms: C_14  and  C_15
REMARK    5  A    between atoms: N_17  and  C_18
REMARK    6  A    between atoms: C_20  and  C_28
REMARK                            x       y       z     vdW  Elec       q    Type
REMARK                         _______ _______ _______ _____ _____    ______ ____
ROOT
ATOM      1  C   UNL     1      -6.859   1.108   0.054  0.00  0.00    +0.224 C 
ATOM      2  O   UNL     1      -7.671   0.207   0.059  0.00  0.00    -0.275 OA
ATOM      3  N   UNL     1      -7.275   2.390   0.058  0.00  0.00    -0.302 N 
ATOM      4  H   UNL     1      -6.625   3.111   0.054  0.00  0.00    +0.150 HD
ENDROOT
BRANCH   3   5
ATOM      5  C   UNL     1      -8.708   2.695   0.069  0.00  0.00    +0.151 C 
ATOM      6  C   UNL     1      -9.028   3.883   1.004  0.00  0.00    +0.132 C 
ATOM      7  C   UNL     1      -9.014   5.202   0.255  0.00  0.00    -0.046 C 
ATOM      8  C   UNL     1      -9.133   5.158  -1.060  0.00  0.00    -0.013 C 
ATOM      9  S   UNL     1      -9.253   3.438  -1.524  0.00  0.00    -0.106 S 
ATOM     10  C   UNL     1      -9.127   6.534  -1.683  0.00  0.00    +0.042 C 
ATOM     11  C   UNL     1      -9.405   7.493  -0.506  0.00  0.00    +0.009 C 
ATOM     12  C   UNL     1      -8.884   6.668   0.686  0.00  0.00    +0.033 C 
BRANCH   6  13
ATOM     13  C   UNL     1      -8.000   3.934   2.106  0.00  0.00    +0.220 C 
ATOM     14  O   UNL     1      -7.287   4.908   2.224  0.00  0.00    -0.275 OA
ATOM     15  N   UNL     1      -7.874   2.898   2.958  0.00  0.00    -0.329 N 
ATOM     16  H   UNL     1      -8.444   2.120   2.863  0.00  0.00    +0.145 HD
ATOM     17  H   UNL     1      -7.212   2.931   3.667  0.00  0.00    +0.145 HD
ENDBRANCH   6  13
ENDBRANCH   3   5
BRANCH   1  18
ATOM     18  C   UNL     1      -5.385   0.794   0.043  0.00  0.00    +0.173 C 
BRANCH  18  19
ATOM     19  S   UNL     1      -5.150  -1.005   0.039  0.00  0.00    -0.079 S 
BRANCH  19  24
ATOM     20  C   UNL     1      -1.271  -0.766   0.011  0.00  0.00    +0.090 A 
ATOM     21  C   UNL     1      -1.392  -2.116   0.010  0.00  0.00    +0.113 A 
ATOM     22  N   UNL     1      -2.738  -2.396   0.020  0.00  0.00    -0.339 N 
ATOM     23  H   UNL     1      -3.141  -3.278   0.022  0.00  0.00    +0.167 HD
ATOM     24  C   UNL     1      -3.400  -1.206   0.026  0.00  0.00    +0.167 A 
ATOM     25  N   UNL     1      -2.519  -0.234   0.026  0.00  0.00    -0.222 NA
BRANCH  20  31
ATOM     26  C   UNL     1      -0.017   1.390   0.010  0.00  0.00    +0.011 A 
ATOM     27  C   UNL     1       1.170   2.093   0.002  0.00  0.00    +0.016 A 
ATOM     28  C   UNL     1       2.378   1.418  -0.013  0.00  0.00    +0.018 A 
ATOM     29  C   UNL     1       2.402   0.034  -0.021  0.00  0.00    +0.016 A 
ATOM     30  C   UNL     1       1.221  -0.680  -0.014  0.00  0.00    +0.011 A 
ATOM     31  C   UNL     1       0.002  -0.004   0.002  0.00  0.00    +0.002 A 
ATOM     32 BR   UNL     1       4.001   2.389  -0.025  0.00  0.00    -0.050 Br
ENDBRANCH  20  31
ENDBRANCH  19  24
ENDBRANCH  18  19
ENDBRANCH   1  18
TORSDOF 6
