REMARK  Name = ZINC31168909
REMARK  16 active torsions:
REMARK  status: ('A' for Active; 'I' for Inactive)
REMARK    1  A    between atoms: C_1  and  C_2
REMARK    2  A    between atoms: C_3  and  C_4
REMARK    3  A    between atoms: C_3  and  C_5
REMARK    4  A    between atoms: C_5  and  O_7
REMARK    5  A    between atoms: O_7  and  C_8
REMARK    6  A    between atoms: C_10  and  O_40
REMARK    7  A    between atoms: C_12  and  O_39
REMARK    8  A    between atoms: C_14  and  C_38
REMARK    9  A    between atoms: C_17  and  O_19
REMARK   10  A    between atoms: O_19  and  C_20
REMARK   11  A    between atoms: C_20  and  C_37
REMARK   12  A    between atoms: C_23  and  O_36
REMARK   13  A    between atoms: C_25  and  C_35
REMARK   14  A    between atoms: C_29  and  C_32
REMARK   15  A    between atoms: C_32  and  C_33
REMARK   16  A    between atoms: C_32  and  C_34
REMARK                            x       y       z     vdW  Elec       q    Type
REMARK                         _______ _______ _______ _____ _____    ______ ____
ROOT
ATOM      1  C   UNL     1       0.167  -0.139   3.156  0.00  0.00    +0.263 C 
ATOM      2  C   UNL     1      -0.806  -0.020   1.979  0.00  0.00    +0.191 C 
ATOM      3  C   UNL     1      -0.206  -0.730   0.761  0.00  0.00    +0.175 C 
ATOM      4  C   UNL     1       1.162  -0.121   0.447  0.00  0.00    +0.149 C 
ATOM      5  O   UNL     1       2.008  -0.237   1.593  0.00  0.00    -0.342 OA
ATOM      6  C   UNL     1       1.522   0.448   2.749  0.00  0.00    +0.295 C 
ATOM      7  C   UNL     1       0.993   1.356   0.086  0.00  0.00    +0.041 C 
ENDROOT
BRANCH   3   8
ATOM      8  O   UNL     1      -1.072  -0.565  -0.364  0.00  0.00    -0.387 OA
ATOM      9  H   UNL     1      -0.805  -1.009  -1.334  0.00  0.00    +0.210 HD
ENDBRANCH   3   8
BRANCH   2  10
ATOM     10  O   UNL     1      -2.051  -0.631   2.324  0.00  0.00    -0.385 OA
ATOM     11  H   UNL     1      -2.877  -0.643   1.598  0.00  0.00    +0.210 HD
ENDBRANCH   2  10
BRANCH   1  12
ATOM     12  O   UNL     1      -0.356   0.593   4.295  0.00  0.00    -0.450 OA
BRANCH  12  13
ATOM     13  C   UNL     1      -1.143  -0.089   5.151  0.00  0.00    +0.335 C 
ATOM     14  O   UNL     1      -1.386  -1.263   4.950  0.00  0.00    -0.245 OA
BRANCH  13  17
ATOM     15  C   UNL     1      -2.786  -1.541   6.923  0.00  0.00    +0.036 C 
ATOM     16  C   UNL     1      -2.486  -0.086   7.172  0.00  0.00    -0.020 C 
ATOM     17  C   UNL     1      -1.708   0.587   6.327  0.00  0.00    +0.029 C 
ATOM     18  C   UNL     1      -1.408   2.043   6.576  0.00  0.00    +0.051 C 
ENDBRANCH  13  17
ENDBRANCH  12  13
ENDBRANCH   1  12
BRANCH   6  19
ATOM     19  O   UNL     1       2.451   0.289   3.823  0.00  0.00    -0.341 OA
BRANCH  19  20
ATOM     20  C   UNL     1       3.647   1.100   3.692  0.00  0.00    +0.074 C 
ATOM     21  C   UNL     1       3.192   2.549   3.595  0.00  0.00    +0.037 C 
ATOM     22  C   UNL     1       4.345   3.532   3.757  0.00  0.00    +0.035 C 
ATOM     23  C   UNL     1       5.053   3.300   5.090  0.00  0.00    +0.121 C 
ATOM     24  C   UNL     1       5.589   1.875   5.155  0.00  0.00    +0.003 C 
ATOM     25  C   UNL     1       4.498   0.844   4.939  0.00  0.00    +0.033 C 
ATOM     26  C   UNL     1       3.511   0.801   6.113  0.00  0.00    +0.037 C 
ATOM     27  C   UNL     1       4.165   0.963   7.443  0.00  0.00    -0.070 C 
ATOM     28  C   UNL     1       5.389   1.339   7.609  0.00  0.00    -0.027 C 
ATOM     29  C   UNL     1       6.318   1.650   6.485  0.00  0.00    +0.036 C 
ATOM     30  C   UNL     1       6.690   1.729   4.080  0.00  0.00    +0.014 C 
ATOM     31  C   UNL     1       4.337   0.652   2.407  0.00  0.00    +0.042 C 
BRANCH  27  32
ATOM     32  C   UNL     1       3.348   0.670   8.677  0.00  0.00    +0.008 C 
ATOM     33  C   UNL     1       2.133   1.599   8.717  0.00  0.00    +0.012 C 
ATOM     34  C   UNL     1       2.876  -0.785   8.642  0.00  0.00    +0.012 C 
ENDBRANCH  27  32
BRANCH  23  35
ATOM     35  O   UNL     1       4.154   3.552   6.169  0.00  0.00    -0.391 OA
ATOM     36  H   UNL     1       4.495   3.435   7.208  0.00  0.00    +0.210 HD
ENDBRANCH  23  35
ENDBRANCH  19  20
ENDBRANCH   6  19
TORSDOF 9
