REMARK  Name = ZINC20912694
REMARK  9 active torsions:
REMARK  status: ('A' for Active; 'I' for Inactive)
REMARK    1  A    between atoms: C_1  and  C_2
REMARK    2  A    between atoms: C_7  and  N_8
REMARK    3  A    between atoms: C_9  and  C_11
REMARK    4  A    between atoms: C_11  and  C_12
REMARK    5  A    between atoms: C_12  and  S_13
REMARK    6  A    between atoms: S_13  and  C_14
REMARK    7  A    between atoms: N_18  and  N_19
REMARK    8  A    between atoms: N_20  and  N_21
REMARK    9  A    between atoms: C_22  and  C_23
REMARK                            x       y       z     vdW  Elec       q    Type
REMARK                         _______ _______ _______ _____ _____    ______ ____
ROOT
ATOM      1  C   UNL     1      -2.151  -2.483  -0.017  0.00  0.00    +0.210 A 
ATOM      2  N   UNL     1      -2.856  -1.377  -0.014  0.00  0.00    -0.119 NA
ATOM      3  N   UNL     1      -1.965  -0.296  -0.001  0.00  0.00    -0.109 NA
ATOM      4  C   UNL     1      -0.745  -0.776  -0.005  0.00  0.00    +0.254 A 
ATOM      5  N   UNL     1      -0.829  -2.141  -0.011  0.00  0.00    -0.211 N 
ATOM      6  N   UNL     1       0.424  -0.031   0.002  0.00  0.00    -0.204 N 
ATOM      7  H   UNL     1       1.400  -0.538   0.004  0.00  0.00    +0.177 HD
ENDROOT
BRANCH   5   8
ATOM      8  N   UNL     1       0.226  -3.010  -0.013  0.00  0.00    -0.294 N 
ATOM      9  H   UNL     1       1.256  -2.624  -0.008  0.00  0.00    +0.163 HD
ATOM     10  H   UNL     1       0.044  -4.095  -0.019  0.00  0.00    +0.163 HD
ENDBRANCH   5   8
BRANCH   6  11
ATOM     11  N   UNL     1       0.363   1.369   0.008  0.00  0.00    -0.187 NA
ATOM     12  C   UNL     1       1.460   2.068   0.015  0.00  0.00    +0.139 C 
BRANCH  12  13
ATOM     13  C   UNL     1       1.395   3.537   0.022  0.00  0.00    +0.002 A 
ATOM     14  C   UNL     1       2.554   4.298  -0.080  0.00  0.00    +0.010 A 
ATOM     15  C   UNL     1       2.489   5.685  -0.081  0.00  0.00    +0.001 A 
ATOM     16  C   UNL     1       1.305   6.349   0.030  0.00  0.00    +0.008 A 
ATOM     17  C   UNL     1       0.095   5.643   0.143  0.00  0.00    -0.017 A 
ATOM     18  C   UNL     1       0.112   4.227   0.141  0.00  0.00    -0.009 A 
ATOM     19  C   UNL     1      -1.091   3.521   0.252  0.00  0.00    +0.009 A 
ATOM     20  C   UNL     1      -2.266   4.204   0.362  0.00  0.00    +0.001 A 
ATOM     21  C   UNL     1      -2.286   5.597   0.364  0.00  0.00    +0.001 A 
ATOM     22  C   UNL     1      -1.134   6.315   0.257  0.00  0.00    +0.008 A 
ENDBRANCH  12  13
ENDBRANCH   6  11
BRANCH   1  23
ATOM     23  S   UNL     1      -2.796  -4.123  -0.026  0.00  0.00    -0.084 S 
BRANCH  23  24
ATOM     24  C   UNL     1      -4.570  -3.763  -0.030  0.00  0.00    +0.086 C 
BRANCH  24  25
ATOM     25  C   UNL     1      -5.357  -5.075  -0.038  0.00  0.00    +0.107 C 
BRANCH  25  27
ATOM     26  N   UNL     1      -7.726  -5.785  -0.049  0.00  0.00    -0.285 N 
ATOM     27  C   UNL     1      -6.833  -4.775  -0.042  0.00  0.00    +0.218 C 
ATOM     28  O   UNL     1      -7.219  -3.625  -0.038  0.00  0.00    -0.275 OA
ATOM     29  H   UNL     1      -7.380  -6.824  -0.145  0.00  0.00    +0.155 HD
BRANCH  26  36
ATOM     30  C   UNL     1      -9.569  -7.682  -1.098  0.00  0.00    +0.045 C 
ATOM     31  C   UNL     1     -10.027  -6.409  -0.433  0.00  0.00    -0.029 A 
ATOM     32  C   UNL     1     -11.376  -6.136  -0.319  0.00  0.00    +0.005 A 
ATOM     33  C   UNL     1     -11.797  -4.969   0.292  0.00  0.00    +0.000 A 
ATOM     34  C   UNL     1     -10.870  -4.072   0.790  0.00  0.00    +0.002 A 
ATOM     35  C   UNL     1      -9.520  -4.342   0.683  0.00  0.00    +0.023 A 
ATOM     36  C   UNL     1      -9.093  -5.511   0.066  0.00  0.00    +0.036 A 
ENDBRANCH  26  36
ENDBRANCH  25  27
ENDBRANCH  24  25
ENDBRANCH  23  24
ENDBRANCH   1  23
TORSDOF 8
