REMARK  Name = ZINC28228416
REMARK  9 active torsions:
REMARK  status: ('A' for Active; 'I' for Inactive)
REMARK    1  A    between atoms: C_1  and  C_2
REMARK    2  A    between atoms: C_4  and  C_27
REMARK    3  A    between atoms: C_8  and  C_26
REMARK    4  A    between atoms: C_9  and  C_11
REMARK    5  A    between atoms: N_13  and  C_14
REMARK    6  A    between atoms: C_14  and  C_15
REMARK    7  A    between atoms: C_15  and  C_16
REMARK    8  A    between atoms: C_19  and  S_22
REMARK    9  A    between atoms: S_22  and  N_25
REMARK                            x       y       z     vdW  Elec       q    Type
REMARK                         _______ _______ _______ _____ _____    ______ ____
ROOT
ATOM      1  C   UNL     1      -5.301   3.361   4.753  0.00  0.00    +0.280 C 
ATOM      2  O   UNL     1      -6.392   3.373   4.214  0.00  0.00    -0.267 OA
ATOM      3  N   UNL     1      -5.184   3.732   6.044  0.00  0.00    -0.309 N 
ATOM      4  H   UNL     1      -4.198   3.721   6.532  0.00  0.00    +0.149 HD
ENDROOT
BRANCH   1  13
ATOM      5  C   UNL     1      -0.013   1.086   0.008  0.00  0.00    +0.044 C 
ATOM      6  C   UNL     1      -0.718   1.572   1.248  0.00  0.00    -0.049 A 
ATOM      7  C   UNL     1       0.008   1.805   2.408  0.00  0.00    +0.010 A 
ATOM      8  C   UNL     1      -0.616   2.250   3.553  0.00  0.00    -0.007 A 
ATOM      9  C   UNL     1      -1.989   2.469   3.552  0.00  0.00    +0.139 A 
ATOM     10  C   UNL     1      -2.721   2.230   2.373  0.00  0.00    +0.024 A 
ATOM     11  C   UNL     1      -2.067   1.785   1.221  0.00  0.00    +0.015 A 
ATOM     12  C   UNL     1      -4.110   2.550   2.698  0.00  0.00    +0.008 A 
ATOM     13  C   UNL     1      -4.112   2.942   3.998  0.00  0.00    +0.193 A 
ATOM     14  O   UNL     1      -2.857   2.891   4.491  0.00  0.00    -0.450 OA
ATOM     15  C   UNL     1      -5.299   2.462   1.776  0.00  0.00    +0.048 C 
ATOM     16  C   UNL     1       0.187   2.498   4.803  0.00  0.00    +0.047 C 
ENDBRANCH   1  13
BRANCH   3  17
ATOM     17  C   UNL     1      -6.370   4.149   6.797  0.00  0.00    +0.109 C 
BRANCH  17  18
ATOM     18  C   UNL     1      -5.963   4.515   8.226  0.00  0.00    +0.054 C 
BRANCH  18  19
ATOM     19  C   UNL     1      -7.183   4.944   9.000  0.00  0.00    -0.046 A 
ATOM     20  C   UNL     1      -7.557   6.275   9.018  0.00  0.00    +0.005 A 
ATOM     21  C   UNL     1      -8.678   6.668   9.725  0.00  0.00    +0.029 A 
ATOM     22  C   UNL     1      -9.420   5.731  10.422  0.00  0.00    +0.105 A 
ATOM     23  C   UNL     1      -9.042   4.402  10.408  0.00  0.00    +0.029 A 
ATOM     24  C   UNL     1      -7.923   4.008   9.697  0.00  0.00    +0.005 A 
BRANCH  22  25
ATOM     25  S   UNL     1     -10.846   6.233  11.326  0.00  0.00    +0.056 S 
ATOM     26  O   UNL     1     -11.298   7.443  10.734  0.00  0.00    -0.153 OA
ATOM     27  O   UNL     1     -11.677   5.086  11.444  0.00  0.00    -0.153 OA
BRANCH  25  28
ATOM     28  N   UNL     1     -10.345   6.614  12.858  0.00  0.00    -0.204 NA
ATOM     29  H   UNL     1     -11.211   6.933  13.458  0.00  0.00    +0.144 HD
ATOM     30  H   UNL     1      -9.610   7.431  12.811  0.00  0.00    +0.144 HD
ENDBRANCH  25  28
ENDBRANCH  22  25
ENDBRANCH  18  19
ENDBRANCH  17  18
ENDBRANCH   3  17
TORSDOF 6
