REMARK  Name = ZINC00042490
REMARK  7 active torsions:
REMARK  status: ('A' for Active; 'I' for Inactive)
REMARK    1  A    between atoms: C_1  and  O_2
REMARK    2  A    between atoms: O_2  and  C_3
REMARK    3  A    between atoms: C_6  and  C_9
REMARK    4  A    between atoms: C_18  and  C_26
REMARK    5  A    between atoms: C_19  and  N_25
REMARK    6  A    between atoms: C_20  and  C_21
REMARK    7  A    between atoms: C_20  and  C_23
REMARK                            x       y       z     vdW  Elec       q    Type
REMARK                         _______ _______ _______ _____ _____    ______ ____
ROOT
ATOM      1  C   UNL     1      -1.636   0.503  -1.829  0.00  0.00    +0.066 C 
ATOM      2  C   UNL     1      -0.805   1.503  -1.023  0.00  0.00    +0.030 C 
ATOM      3  C   UNL     1      -0.285   0.899   0.261  0.00  0.00    +0.009 C 
ATOM      4  C   UNL     1      -1.147   1.288   1.461  0.00  0.00    +0.005 C 
ATOM      5  C   UNL     1      -1.152   2.819   1.576  0.00  0.00    +0.027 C 
ATOM      6  C   UNL     1      -1.762   3.371   0.314  0.00  0.00    -0.022 C 
ATOM      7  C   UNL     1      -1.615   2.752  -0.840  0.00  0.00    -0.029 C 
ATOM      8  C   UNL     1      -2.324   3.274  -2.038  0.00  0.00    +0.074 C 
ATOM      9  C   UNL     1      -2.459   2.480  -3.130  0.00  0.00    +0.054 C 
ATOM     10  C   UNL     1      -1.908   1.089  -3.215  0.00  0.00    +0.188 C 
ENDROOT
BRANCH   1  14
ATOM     11  C   UNL     1       0.518  -3.167  -2.214  0.00  0.00    +0.120 A 
ATOM     12  C   UNL     1      -0.832  -3.184  -1.892  0.00  0.00    +0.046 A 
ATOM     13  C   UNL     1      -1.526  -1.996  -1.768  0.00  0.00    +0.007 A 
ATOM     14  C   UNL     1      -0.877  -0.791  -1.964  0.00  0.00    -0.041 A 
ATOM     15  C   UNL     1       0.467  -0.772  -2.291  0.00  0.00    +0.007 A 
ATOM     16  C   UNL     1       1.166  -1.957  -2.411  0.00  0.00    +0.046 A 
BRANCH  11  18
ATOM     17  C   UNL     1       2.589  -4.242  -2.670  0.00  0.00    +0.277 C 
ATOM     18  O   UNL     1       1.203  -4.335  -2.336  0.00  0.00    -0.495 OA
ENDBRANCH  11  18
ENDBRANCH   1  14
BRANCH   9  19
ATOM     19  N   UNL     1      -3.135   2.974  -4.210  0.00  0.00    -0.358 N 
ATOM     20  H   UNL     1      -3.262   2.355  -5.110  0.00  0.00    +0.142 HD
ATOM     21  H   UNL     1      -3.552   3.992  -4.179  0.00  0.00    +0.142 HD
ENDBRANCH   9  19
BRANCH  10  22
ATOM     22  C   UNL     1      -0.650   1.117  -3.979  0.00  0.00    +0.091 C 
ATOM     23  N   UNL     1       0.321   1.139  -4.569  0.00  0.00    -0.194 NA
ENDBRANCH  10  22
BRANCH  10  24
ATOM     24  C   UNL     1      -2.877   0.231  -3.917  0.00  0.00    +0.091 C 
ATOM     25  N   UNL     1      -3.624  -0.430  -4.458  0.00  0.00    -0.194 NA
ENDBRANCH  10  24
BRANCH   8  26
ATOM     26  C   UNL     1      -2.859   4.603  -2.040  0.00  0.00    +0.101 C 
ATOM     27  N   UNL     1      -3.284   5.656  -2.041  0.00  0.00    -0.191 NA
ENDBRANCH   8  26
TORSDOF 6
