REMARK  Name = ZINC42407006
REMARK  2 active torsions:
REMARK  status: ('A' for Active; 'I' for Inactive)
REMARK    1  A    between atoms: C_5  and  C_8
REMARK    2  A    between atoms: C_17  and  C_20
REMARK                            x       y       z     vdW  Elec       q    Type
REMARK                         _______ _______ _______ _____ _____    ______ ____
ROOT
ATOM      1  C   UNL     1       0.046   0.452  -0.984  0.00  0.00    +0.004 C 
ATOM      2  C   UNL     1       1.366   1.218  -1.089  0.00  0.00    +0.019 C 
ATOM      3  C   UNL     1       1.848   1.591   0.316  0.00  0.00    +0.110 C 
ATOM      4  N   UNL     1       1.922   0.371   1.131  0.00  0.00    -0.274 N 
ATOM      5  C   UNL     1       0.734  -0.488   1.226  0.00  0.00    +0.163 C 
ATOM      6  C   UNL     1       0.264  -0.838  -0.190  0.00  0.00    +0.032 C 
ATOM      7  C   UNL     1       3.058   0.045   1.778  0.00  0.00    +0.305 C 
ATOM      8  O   UNL     1       3.175  -1.054   2.285  0.00  0.00    -0.252 OA
ATOM      9  N   UNL     1       4.065   0.937   1.864  0.00  0.00    -0.285 N 
ATOM     10  C   UNL     1       3.800   2.377   1.744  0.00  0.00    +0.109 C 
ATOM     11  C   UNL     1       4.392   3.091   2.964  0.00  0.00    +0.020 C 
ATOM     12  C   UNL     1       5.875   2.732   3.090  0.00  0.00    +0.018 C 
ATOM     13  C   UNL     1       6.020   1.222   3.296  0.00  0.00    +0.119 C 
ATOM     14  C   UNL     1       5.446   0.488   2.086  0.00  0.00    +0.124 C 
ENDROOT
BRANCH   5  15
ATOM     15  C   UNL     1       1.081  -1.750   1.972  0.00  0.00    +0.231 C 
ATOM     16  O   UNL     1       1.834  -2.561   1.476  0.00  0.00    -0.274 OA
ATOM     17  N   UNL     1       0.554  -1.978   3.192  0.00  0.00    -0.328 N 
ATOM     18  H   UNL     1      -0.049  -1.330   3.589  0.00  0.00    +0.145 HD
ATOM     19  H   UNL     1       0.777  -2.790   3.673  0.00  0.00    +0.145 HD
ENDBRANCH   5  15
BRANCH  13  20
ATOM     20  C   UNL     1       7.478   0.874   3.453  0.00  0.00    +0.361 C 
ATOM     21  O   UNL     1       8.126   1.359   4.365  0.00  0.00    -0.246 OA
ATOM     22  O   UNL     1       8.010   0.108   2.668  0.00  0.00    -0.246 OA
ENDBRANCH  13  20
TORSDOF 2
