REMARK  Name = ZINC40825168
REMARK  7 active torsions:
REMARK  status: ('A' for Active; 'I' for Inactive)
REMARK    1  A    between atoms: C_1  and  C_2
REMARK    2  A    between atoms: C_6  and  C_7
REMARK    3  A    between atoms: N_9  and  C_10
REMARK    4  A    between atoms: N_20  and  N_21
REMARK    5  A    between atoms: N_21  and  C_22
REMARK    6  A    between atoms: C_22  and  N_24
REMARK    7  A    between atoms: N_24  and  C_25
REMARK                            x       y       z     vdW  Elec       q    Type
REMARK                         _______ _______ _______ _____ _____    ______ ____
ROOT
ATOM      1  C   UNL     1       0.977   1.489  -0.302  0.00  0.00    +0.048 C 
ATOM      2  C   UNL     1       0.819  -0.009  -0.237  0.00  0.00    +0.009 A 
ATOM      3  C   UNL     1       0.382  -0.853  -1.264  0.00  0.00    +0.042 A 
ATOM      4  C   UNL     1       0.387  -2.137  -0.773  0.00  0.00    +0.115 A 
ATOM      5  O   UNL     1       0.807  -2.094   0.489  0.00  0.00    -0.454 OA
ATOM      6  C   UNL     1       1.079  -0.815   0.836  0.00  0.00    +0.193 A 
ATOM      7  C   UNL     1      -0.030  -3.331  -1.594  0.00  0.00    +0.075 C 
ATOM      8  C   UNL     1      -0.900  -2.864  -2.765  0.00  0.00    +0.014 C 
ATOM      9  C   UNL     1      -0.191  -1.762  -3.559  0.00  0.00    +0.058 C 
ATOM     10  C   UNL     1      -0.032  -0.550  -2.652  0.00  0.00    +0.070 C 
ATOM     11  N   UNL     1      -0.244   0.661  -3.067  0.00  0.00    -0.185 NA
ENDROOT
BRANCH   6  12
ATOM     12  C   UNL     1       1.568  -0.368   2.145  0.00  0.00    +0.280 C 
ATOM     13  O   UNL     1       1.777   0.814   2.346  0.00  0.00    -0.267 OA
ATOM     14  N   UNL     1       1.787  -1.267   3.126  0.00  0.00    -0.306 N 
ATOM     15  H   UNL     1       1.621  -2.209   2.966  0.00  0.00    +0.149 HD
BRANCH  14  16
ATOM     16  C   UNL     1       2.275  -0.821   4.433  0.00  0.00    +0.073 C 
ATOM     17  C   UNL     1       3.801  -0.709   4.396  0.00  0.00    +0.022 C 
ATOM     18  C   UNL     1       4.311  -0.243   5.762  0.00  0.00    +0.002 C 
ATOM     19  C   UNL     1       3.899  -1.255   6.832  0.00  0.00    +0.000 C 
ATOM     20  C   UNL     1       2.374  -1.367   6.869  0.00  0.00    +0.002 C 
ATOM     21  C   UNL     1       1.864  -1.833   5.504  0.00  0.00    +0.022 C 
ENDBRANCH  14  16
ENDBRANCH   6  12
BRANCH  11  22
ATOM     22  N   UNL     1      -0.634   0.890  -4.393  0.00  0.00    -0.218 N 
ATOM     23  H   UNL     1      -0.746   0.143  -5.001  0.00  0.00    +0.176 HD
BRANCH  22  24
ATOM     24  C   UNL     1      -0.854   2.148  -4.823  0.00  0.00    +0.154 C 
ATOM     25  S   UNL     1      -1.331   2.428  -6.443  0.00  0.00    -0.017 S 
BRANCH  24  26
ATOM     26  N   UNL     1      -0.699   3.186  -3.977  0.00  0.00    -0.296 N 
ATOM     27  H   UNL     1      -0.489   3.025  -3.044  0.00  0.00    +0.154 HD
BRANCH  26  28
ATOM     28  C   UNL     1      -0.840   4.497  -4.446  0.00  0.00    +0.033 A 
ATOM     29  C   UNL     1      -1.910   4.831  -5.266  0.00  0.00    +0.023 A 
ATOM     30  C   UNL     1      -2.047   6.126  -5.726  0.00  0.00    +0.002 A 
ATOM     31  C   UNL     1      -1.120   7.089  -5.372  0.00  0.00    +0.000 A 
ATOM     32  C   UNL     1      -0.053   6.759  -4.556  0.00  0.00    +0.002 A 
ATOM     33  C   UNL     1       0.086   5.468  -4.087  0.00  0.00    +0.023 A 
ENDBRANCH  26  28
ENDBRANCH  24  26
ENDBRANCH  22  24
ENDBRANCH  11  22
TORSDOF 6
