REMARK  Name = ZINC45700042
REMARK  7 active torsions:
REMARK  status: ('A' for Active; 'I' for Inactive)
REMARK    1  A    between atoms: C_1  and  C_2
REMARK    2  A    between atoms: C_2  and  C_4
REMARK    3  A    between atoms: C_2  and  N_11
REMARK    4  A    between atoms: N_14  and  C_15
REMARK    5  A    between atoms: C_18  and  O_21
REMARK    6  A    between atoms: O_21  and  C_22
REMARK    7  A    between atoms: C_22  and  C_23
REMARK                            x       y       z     vdW  Elec       q    Type
REMARK                         _______ _______ _______ _____ _____    ______ ____
ROOT
ATOM      1  N   UNL     1      -1.375  -0.506   0.012  0.00  0.00    -0.293 N 
ATOM      2  C   UNL     1      -2.028  -0.657   1.181  0.00  0.00    +0.304 C 
ATOM      3  O   UNL     1      -1.476  -0.374   2.227  0.00  0.00    -0.252 OA
ATOM      4  N   UNL     1      -3.293  -1.122   1.190  0.00  0.00    -0.269 N 
ATOM      5  H   UNL     1      -1.815  -0.731  -0.823  0.00  0.00    +0.151 HD
ATOM      6  H   UNL     1      -3.756  -1.284   0.354  0.00  0.00    +0.156 HD
ENDROOT
BRANCH   4   7
ATOM      7  C   UNL     1      -3.939  -1.371   2.409  0.00  0.00    +0.035 A 
ATOM      8  C   UNL     1      -4.821  -2.437   2.522  0.00  0.00    +0.027 A 
ATOM      9  C   UNL     1      -5.456  -2.682   3.724  0.00  0.00    +0.047 A 
ATOM     10  C   UNL     1      -5.214  -1.863   4.817  0.00  0.00    +0.121 A 
ATOM     11  C   UNL     1      -4.333  -0.798   4.704  0.00  0.00    +0.047 A 
ATOM     12  C   UNL     1      -3.693  -0.555   3.505  0.00  0.00    +0.027 A 
BRANCH  10  13
ATOM     13  O   UNL     1      -5.840  -2.105   5.999  0.00  0.00    -0.483 OA
BRANCH  13  14
ATOM     14  C   UNL     1      -5.544  -1.222   7.083  0.00  0.00    +0.324 C 
BRANCH  14  15
ATOM     15  C   UNL     1      -6.324  -1.643   8.302  0.00  0.00    +0.248 C 
ATOM     16  O   UNL     1      -7.062  -2.604   8.247  0.00  0.00    -0.272 OA
ATOM     17  N   UNL     1      -6.203  -0.951   9.452  0.00  0.00    -0.327 N 
ATOM     18  H   UNL     1      -5.613  -0.182   9.495  0.00  0.00    +0.145 HD
ATOM     19  H   UNL     1      -6.705  -1.222  10.236  0.00  0.00    +0.145 HD
ENDBRANCH  14  15
ENDBRANCH  13  14
ENDBRANCH  10  13
ENDBRANCH   4   7
BRANCH   1  21
ATOM     20  C   UNL     1      -0.018   1.529   0.020  0.00  0.00    +0.033 C 
ATOM     21  C   UNL     1       0.001  -0.001   0.001  0.00  0.00    +0.102 C 
BRANCH  21  22
ATOM     22  C   UNL     1       0.702  -0.479  -1.244  0.00  0.00    -0.027 A 
ATOM     23  C   UNL     1       0.029  -0.501  -2.451  0.00  0.00    +0.006 A 
ATOM     24  C   UNL     1       0.672  -0.939  -3.593  0.00  0.00    +0.015 A 
ATOM     25  C   UNL     1       1.990  -1.356  -3.528  0.00  0.00    +0.018 A 
ATOM     26  C   UNL     1       2.663  -1.333  -2.320  0.00  0.00    +0.015 A 
ATOM     27  C   UNL     1       2.020  -0.890  -1.179  0.00  0.00    +0.006 A 
ATOM     28 BR   UNL     1       2.870  -1.956  -5.090  0.00  0.00    -0.050 Br
ENDBRANCH  21  22
ENDBRANCH   1  21
TORSDOF 6
