REMARK  Name = ZINC04723372
REMARK  7 active torsions:
REMARK  status: ('A' for Active; 'I' for Inactive)
REMARK    1  A    between atoms: C_1  and  C_2
REMARK    2  A    between atoms: N_5  and  C_7
REMARK    3  A    between atoms: P_14  and  N_20
REMARK    4  A    between atoms: C_17  and  S_18
REMARK    5  A    between atoms: S_18  and  C_19
REMARK    6  A    between atoms: N_20  and  N_21
REMARK    7  A    between atoms: N_21  and  C_22
REMARK                            x       y       z     vdW  Elec       q    Type
REMARK                         _______ _______ _______ _____ _____    ______ ____
ROOT
ATOM      1  C   UNL     1      -0.018   1.503   0.010  0.00  0.00    +0.068 C 
ATOM      2  C   UNL     1       0.002  -0.004   0.002  0.00  0.00    +0.072 A 
ATOM      3  C   UNL     1       0.008  -0.821  -1.140  0.00  0.00    +0.069 A 
ATOM      4  C   UNL     1       0.023  -2.145  -0.691  0.00  0.00    +0.138 A 
ATOM      5  N   UNL     1       0.034  -2.119   0.646  0.00  0.00    -0.217 N 
ATOM      6  N   UNL     1       0.023  -0.777   1.057  0.00  0.00    -0.169 NA
ATOM      7  N   UNL     1       0.015  -3.209  -1.583  0.00  0.00    -0.274 N 
ATOM      8  P   UNL     1      -0.634  -2.884  -3.068  0.00  0.00    +0.200 P 
ATOM      9  S   UNL     1       0.073  -4.058  -4.330  0.00  0.00    -0.005 S 
ATOM     10  N   UNL     1      -0.256  -1.339  -3.478  0.00  0.00    -0.215 NA
ATOM     11  C   UNL     1       0.007  -0.443  -2.561  0.00  0.00    +0.111 C 
ATOM     12  H   UNL     1       0.367  -4.083  -1.351  0.00  0.00    +0.155 HD
ENDROOT
BRANCH   5  13
ATOM     13  C   UNL     1       0.057  -3.238   1.490  0.00  0.00    +0.067 A 
ATOM     14  C   UNL     1      -0.615  -4.397   1.127  0.00  0.00    +0.028 A 
ATOM     15  C   UNL     1      -0.590  -5.498   1.960  0.00  0.00    +0.002 A 
ATOM     16  C   UNL     1       0.102  -5.447   3.156  0.00  0.00    +0.000 A 
ATOM     17  C   UNL     1       0.772  -4.293   3.521  0.00  0.00    +0.002 A 
ATOM     18  C   UNL     1       0.756  -3.191   2.689  0.00  0.00    +0.028 A 
ENDBRANCH   5  13
BRANCH  11  19
ATOM     19  S   UNL     1       0.358   1.219  -3.029  0.00  0.00    -0.109 S 
ATOM     20  C   UNL     1       0.242   1.199  -4.839  0.00  0.00    +0.091 C 
ENDBRANCH  11  19
BRANCH   8  21
ATOM     21  N   UNL     1      -2.263  -3.058  -3.006  0.00  0.00    -0.182 NA
ATOM     22  H   UNL     1      -2.692  -3.317  -2.175  0.00  0.00    +0.153 HD
BRANCH  21  23
ATOM     23  N   UNL     1      -3.036  -2.833  -4.153  0.00  0.00    -0.274 N 
ATOM     24  H   UNL     1      -2.968  -1.988  -4.625  0.00  0.00    +0.167 HD
BRANCH  23  25
ATOM     25  C   UNL     1      -3.903  -3.824  -4.617  0.00  0.00    +0.042 A 
ATOM     26  C   UNL     1      -4.006  -5.032  -3.938  0.00  0.00    +0.024 A 
ATOM     27  C   UNL     1      -4.865  -6.010  -4.399  0.00  0.00    +0.002 A 
ATOM     28  C   UNL     1      -5.623  -5.788  -5.534  0.00  0.00    +0.000 A 
ATOM     29  C   UNL     1      -5.523  -4.587  -6.212  0.00  0.00    +0.002 A 
ATOM     30  C   UNL     1      -4.670  -3.603  -5.754  0.00  0.00    +0.024 A 
ENDBRANCH  23  25
ENDBRANCH  21  23
ENDBRANCH   8  21
TORSDOF 5
