REMARK  Name = ZINC05645059
REMARK  14 active torsions:
REMARK  status: ('A' for Active; 'I' for Inactive)
REMARK    1  A    between atoms: C_1  and  C_2
REMARK    2  A    between atoms: C_2  and  O_32
REMARK    3  A    between atoms: C_5  and  O_31
REMARK    4  A    between atoms: C_7  and  C_29
REMARK    5  A    between atoms: C_7  and  C_30
REMARK    6  A    between atoms: C_8  and  C_10
REMARK    7  A    between atoms: C_10  and  C_11
REMARK    8  A    between atoms: C_11  and  C_12
REMARK    9  A    between atoms: C_12  and  C_13
REMARK   10  A    between atoms: C_12  and  C_14
REMARK   11  A    between atoms: C_12  and  O_28
REMARK   12  A    between atoms: C_14  and  C_15
REMARK   13  A    between atoms: C_15  and  O_16
REMARK   14  A    between atoms: O_16  and  C_17
REMARK                            x       y       z     vdW  Elec       q    Type
REMARK                         _______ _______ _______ _____ _____    ______ ____
ROOT
ATOM      1  C   UNL     1      -1.606   0.823   3.964  0.00  0.00    +0.066 C 
ATOM      2  C   UNL     1      -1.357   2.312   3.716  0.00  0.00    +0.041 C 
ENDROOT
BRANCH   1   3
ATOM      3  O   UNL     1      -0.843   0.394   5.094  0.00  0.00    -0.389 OA
ATOM      4  H   UNL     1      -0.952  -0.542   5.310  0.00  0.00    +0.210 HD
ENDBRANCH   1   3
BRANCH   1   5
ATOM      5  C   UNL     1      -1.184   0.023   2.730  0.00  0.00    +0.035 C 
BRANCH   5   6
ATOM      6  C   UNL     1       0.304   0.253   2.458  0.00  0.00    +0.010 C 
BRANCH   6  13
ATOM      7  C   UNL     1      -0.019   1.526   0.010  0.00  0.00    +0.041 C 
ATOM      8  C   UNL     1       0.002  -0.004   0.002  0.00  0.00    +0.067 C 
ATOM      9  C   UNL     1       0.584  -0.514  -1.311  0.00  0.00    +0.037 C 
ATOM     10  C   UNL     1       2.092  -0.287  -1.361  0.00  0.00    +0.034 C 
ATOM     11  C   UNL     1       2.754  -1.053  -0.219  0.00  0.00    +0.121 C 
ATOM     12  C   UNL     1       2.245  -0.561   1.131  0.00  0.00    -0.004 C 
ATOM     13  C   UNL     1       0.729  -0.552   1.217  0.00  0.00    +0.029 C 
ATOM     14  C   UNL     1       2.776  -1.529   2.212  0.00  0.00    +0.014 C 
ATOM     15  C   UNL     1       2.822   0.824   1.436  0.00  0.00    +0.014 C 
BRANCH  11  16
ATOM     16  O   UNL     1       2.478  -2.450  -0.355  0.00  0.00    -0.391 OA
ATOM     17  H   UNL     1       2.801  -2.836  -1.181  0.00  0.00    +0.210 HD
ENDBRANCH  11  16
BRANCH   8  18
ATOM     18  O   UNL     1      -1.371  -0.450   0.071  0.00  0.00    -0.389 OA
ATOM     19  H   UNL     1      -1.920  -0.147  -0.665  0.00  0.00    +0.210 HD
ENDBRANCH   8  18
ENDBRANCH   6  13
ENDBRANCH   5   6
ENDBRANCH   1   5
BRANCH   1  20
ATOM     20  C   UNL     1      -3.094   0.593   4.237  0.00  0.00    +0.075 C 
BRANCH  20  21
ATOM     21  C   UNL     1      -3.545   1.488   5.393  0.00  0.00    +0.232 C 
BRANCH  21  22
ATOM     22  O   UNL     1      -4.935   1.273   5.647  0.00  0.00    -0.492 OA
BRANCH  22  23
ATOM     23  C   UNL     1      -5.497   1.994   6.650  0.00  0.00    +0.124 A 
ATOM     24  C   UNL     1      -4.718   2.898   7.371  0.00  0.00    +0.046 A 
ATOM     25  C   UNL     1      -5.268   3.631   8.382  0.00  0.00    +0.015 A 
ATOM     26  C   UNL     1      -6.623   3.474   8.698  0.00  0.00    +0.018 A 
ATOM     27  C   UNL     1      -7.240   4.248   9.777  0.00  0.00    +0.018 A 
ATOM     28  C   UNL     1      -8.559   4.051  10.035  0.00  0.00    +0.092 A 
ATOM     29  C   UNL     1      -9.292   3.121   9.269  0.00  0.00    +0.337 A 
ATOM     30  O   UNL     1     -10.474   2.954   9.510  0.00  0.00    -0.245 OA
ATOM     31  O   UNL     1      -8.720   2.416   8.280  0.00  0.00    -0.422 OA
ATOM     32  C   UNL     1      -7.414   2.564   7.973  0.00  0.00    +0.143 A 
ATOM     33  C   UNL     1      -6.840   1.831   6.945  0.00  0.00    +0.092 A 
ENDBRANCH  22  23
ENDBRANCH  21  22
ENDBRANCH  20  21
ENDBRANCH   1  20
TORSDOF 10
