REMARK  Name = ZINC36593173
REMARK  12 active torsions:
REMARK  status: ('A' for Active; 'I' for Inactive)
REMARK    1  A    between atoms: C_1  and  C_2
REMARK    2  A    between atoms: C_2  and  C_3
REMARK    3  A    between atoms: C_2  and  C_4
REMARK    4  A    between atoms: C_2  and  N_5
REMARK    5  A    between atoms: N_5  and  C_6
REMARK    6  A    between atoms: C_6  and  C_8
REMARK    7  A    between atoms: C_6  and  C_17
REMARK    8  A    between atoms: C_9  and  O_16
REMARK    9  A    between atoms: C_11  and  O_15
REMARK   10  A    between atoms: C_13  and  O_14
REMARK   11  A    between atoms: N_19  and  C_20
REMARK   12  A    between atoms: C_26  and  C_28
REMARK                            x       y       z     vdW  Elec       q    Type
REMARK                         _______ _______ _______ _____ _____    ______ ____
ROOT
ATOM      1  C   UNL     1       2.898  -0.498   0.116  0.00  0.00    +0.200 C 
ENDROOT
BRANCH   1   2
ATOM      2  C   UNL     1       1.805   0.536   0.192  0.00  0.00    +0.065 A 
ATOM      3  C   UNL     1       2.086   1.864  -0.095  0.00  0.00    +0.129 A 
ATOM      4  C   UNL     1       1.080   2.816  -0.025  0.00  0.00    +0.091 A 
ATOM      5  C   UNL     1      -0.207   2.440   0.332  0.00  0.00    +0.124 A 
ATOM      6  C   UNL     1      -0.487   1.113   0.618  0.00  0.00    +0.091 A 
ATOM      7  C   UNL     1       0.518   0.160   0.543  0.00  0.00    +0.129 A 
BRANCH   7   8
ATOM      8  O   UNL     1       0.242  -1.142   0.819  0.00  0.00    -0.506 OA
ATOM      9  H   UNL     1       0.353  -1.379   1.750  0.00  0.00    +0.292 HD
ENDBRANCH   7   8
BRANCH   5  10
ATOM     10  O   UNL     1      -1.192   3.373   0.401  0.00  0.00    -0.507 OA
ATOM     11  H   UNL     1      -1.672   3.501  -0.429  0.00  0.00    +0.292 HD
ENDBRANCH   5  10
BRANCH   3  12
ATOM     12  O   UNL     1       3.346   2.232  -0.445  0.00  0.00    -0.506 OA
ATOM     13  H   UNL     1       3.492   2.278  -1.400  0.00  0.00    +0.292 HD
ENDBRANCH   3  12
ENDBRANCH   1   2
BRANCH   1  14
ATOM     14  C   UNL     1       3.940  -0.056  -0.879  0.00  0.00    +0.239 C 
ATOM     15  O   UNL     1       4.965   0.466  -0.493  0.00  0.00    -0.273 OA
ATOM     16  N   UNL     1       3.733  -0.240  -2.198  0.00  0.00    -0.311 N 
ATOM     17  H   UNL     1       2.914  -0.657  -2.507  0.00  0.00    +0.149 HD
BRANCH  16  18
ATOM     18  C   UNL     1       4.746   0.190  -3.166  0.00  0.00    +0.073 C 
ATOM     19  C   UNL     1       4.545   1.672  -3.490  0.00  0.00    +0.022 C 
ATOM     20  C   UNL     1       5.603   2.121  -4.500  0.00  0.00    +0.002 C 
ATOM     21  C   UNL     1       5.468   1.296  -5.781  0.00  0.00    +0.000 C 
ATOM     22  C   UNL     1       5.669  -0.186  -5.457  0.00  0.00    +0.002 C 
ATOM     23  C   UNL     1       4.611  -0.635  -4.447  0.00  0.00    +0.022 C 
ENDBRANCH  16  18
ENDBRANCH   1  14
BRANCH   1  24
ATOM     24  N   UNL     1       3.517  -0.653   1.435  0.00  0.00    -0.277 N 
ATOM     25  C   UNL     1       3.090   0.095   2.471  0.00  0.00    +0.248 C 
ATOM     26  O   UNL     1       1.931   0.456   2.523  0.00  0.00    -0.270 OA
BRANCH  25  27
ATOM     27  C   UNL     1       4.031   0.475   3.545  0.00  0.00    +0.037 A 
ATOM     28  C   UNL     1       5.405   0.309   3.363  0.00  0.00    +0.016 A 
ATOM     29  C   UNL     1       6.279   0.666   4.368  0.00  0.00    +0.039 A 
ATOM     30  C   UNL     1       5.795   1.188   5.558  0.00  0.00    +0.123 A 
ATOM     31  C   UNL     1       4.431   1.355   5.743  0.00  0.00    +0.039 A 
ATOM     32  C   UNL     1       3.549   1.008   4.742  0.00  0.00    +0.016 A 
ATOM     33  F   UNL     1       6.655   1.535   6.540  0.00  0.00    -0.205 F 
ENDBRANCH  25  27
BRANCH  24  35
ATOM     34  C   UNL     1       4.196  -2.966   1.021  0.00  0.00    +0.031 C 
ATOM     35  C   UNL     1       4.601  -1.620   1.627  0.00  0.00    +0.030 C 
ATOM     36  C   UNL     1       4.869  -1.795   3.123  0.00  0.00    +0.031 C 
ATOM     37  C   UNL     1       5.867  -1.111   0.936  0.00  0.00    +0.031 C 
ENDBRANCH  24  35
ENDBRANCH   1  24
TORSDOF 9
