REMARK  Name = ZINC12560770
REMARK  10 active torsions:
REMARK  status: ('A' for Active; 'I' for Inactive)
REMARK    1  A    between atoms: C_4  and  N_22
REMARK    2  A    between atoms: C_5  and  C_7
REMARK    3  A    between atoms: N_9  and  S_10
REMARK    4  A    between atoms: S_10  and  C_13
REMARK    5  A    between atoms: C_16  and  C_19
REMARK    6  A    between atoms: C_19  and  C_20
REMARK    7  A    between atoms: C_20  and  N_21
REMARK    8  A    between atoms: N_22  and  C_23
REMARK    9  A    between atoms: C_26  and  S_29
REMARK   10  A    between atoms: S_29  and  C_30
REMARK                            x       y       z     vdW  Elec       q    Type
REMARK                         _______ _______ _______ _____ _____    ______ ____
ROOT
ATOM      1  C   UNL     1      -0.064  -4.469  -0.180  0.00  0.00    +0.001 A 
ATOM      2  C   UNL     1      -1.300  -5.096  -0.120  0.00  0.00    +0.002 A 
ATOM      3  C   UNL     1      -2.452  -4.354   0.041  0.00  0.00    +0.024 A 
ATOM      4  C   UNL     1      -2.380  -2.970   0.150  0.00  0.00    +0.044 A 
ATOM      5  C   UNL     1      -1.131  -2.333   0.085  0.00  0.00    +0.064 A 
ATOM      6  C   UNL     1       0.027  -3.099  -0.078  0.00  0.00    +0.015 A 
ENDROOT
BRANCH   5   7
ATOM      7  C   UNL     1      -1.040  -0.866   0.194  0.00  0.00    +0.297 C 
ATOM      8  O   UNL     1      -2.036  -0.211   0.436  0.00  0.00    -0.264 OA
ATOM      9  N   UNL     1       0.146  -0.249   0.025  0.00  0.00    -0.086 NA
BRANCH   9  10
ATOM     10  S   UNL     1       0.248   1.399   0.148  0.00  0.00    +0.102 S 
ATOM     11  O   UNL     1       1.613   1.738  -0.051  0.00  0.00    -0.146 OA
ATOM     12  O   UNL     1      -0.794   1.931  -0.659  0.00  0.00    -0.146 OA
BRANCH  10  13
ATOM     13  C   UNL     1      -0.139   1.823   1.814  0.00  0.00    +0.113 A 
ATOM     14  C   UNL     1      -1.447   2.087   2.174  0.00  0.00    +0.029 A 
ATOM     15  C   UNL     1      -1.752   2.415   3.482  0.00  0.00    +0.005 A 
ATOM     16  C   UNL     1      -0.746   2.487   4.428  0.00  0.00    -0.049 A 
ATOM     17  C   UNL     1       0.563   2.228   4.067  0.00  0.00    +0.005 A 
ATOM     18  C   UNL     1       0.866   1.896   2.760  0.00  0.00    +0.029 A 
BRANCH  16  19
ATOM     19  C   UNL     1      -1.077   2.848   5.853  0.00  0.00    +0.015 C 
BRANCH  19  20
ATOM     20  C   UNL     1      -0.998   4.367   6.026  0.00  0.00    -0.082 C 
BRANCH  20  21
ATOM     21  N   UNL     1      -1.321   4.718   7.415  0.00  0.00    +0.378 N 
ATOM     22  H   UNL     1      -1.264   5.810   7.540  0.00  0.00    -0.090 HD
ATOM     23  H   UNL     1      -0.602   4.234   8.093  0.00  0.00    -0.090 HD
ATOM     24  H   UNL     1      -2.338   4.375   7.654  0.00  0.00    -0.090 HD
ENDBRANCH  20  21
ENDBRANCH  19  20
ENDBRANCH  16  19
ENDBRANCH  10  13
ENDBRANCH   9  10
ENDBRANCH   5   7
BRANCH   4  25
ATOM     25  N   UNL     1      -3.538  -2.222   0.318  0.00  0.00    -0.314 N 
ATOM     26  H   UNL     1      -3.985  -2.117   1.317  0.00  0.00    +0.152 HD
BRANCH  25  27
ATOM     27  C   UNL     1      -4.136  -1.601  -0.786  0.00  0.00    +0.031 A 
ATOM     28  C   UNL     1      -3.573  -1.737  -2.048  0.00  0.00    +0.024 A 
ATOM     29  C   UNL     1      -4.165  -1.129  -3.137  0.00  0.00    +0.017 A 
ATOM     30  C   UNL     1      -5.318  -0.372  -2.968  0.00  0.00    +0.013 A 
ATOM     31  C   UNL     1      -5.878  -0.233  -1.704  0.00  0.00    +0.017 A 
ATOM     32  C   UNL     1      -5.288  -0.845  -0.616  0.00  0.00    +0.024 A 
BRANCH  30  33
ATOM     33  S   UNL     1      -6.071   0.408  -4.356  0.00  0.00    -0.056 S 
BRANCH  33  34
ATOM     34  C   UNL     1      -5.006  -0.052  -5.750  0.00  0.00    +0.404 C 
ATOM     35  F   UNL     1      -3.708   0.418  -5.521  0.00  0.00    -0.197 F 
ATOM     36  F   UNL     1      -4.981  -1.445  -5.878  0.00  0.00    -0.197 F 
ENDBRANCH  33  34
ENDBRANCH  30  33
ENDBRANCH  25  27
ENDBRANCH   4  25
TORSDOF 10
