REMARK  Name = ZINC67193341
REMARK  9 active torsions:
REMARK  status: ('A' for Active; 'I' for Inactive)
REMARK    1  A    between atoms: C_1  and  C_2
REMARK    2  A    between atoms: C_2  and  C_4
REMARK    3  A    between atoms: C_2  and  N_19
REMARK    4  A    between atoms: C_4  and  C_5
REMARK    5  A    between atoms: N_7  and  N_8
REMARK    6  A    between atoms: N_8  and  C_9
REMARK    7  A    between atoms: C_9  and  N_11
REMARK    8  A    between atoms: N_11  and  C_12
REMARK    9  A    between atoms: C_20  and  C_22
REMARK                            x       y       z     vdW  Elec       q    Type
REMARK                         _______ _______ _______ _____ _____    ______ ____
ROOT
ATOM      1  C   UNL     1       0.568  -2.077  -1.313  0.00  0.00    +0.231 C 
ATOM      2  O   UNL     1      -0.285  -2.640  -0.662  0.00  0.00    -0.274 OA
ATOM      3  N   UNL     1       1.158  -2.712  -2.346  0.00  0.00    -0.235 N 
ATOM      4  H   UNL     1       1.841  -2.261  -2.867  0.00  0.00    +0.173 HD
ENDROOT
BRANCH   3   5
ATOM      5  N   UNL     1       0.784  -4.024  -2.666  0.00  0.00    -0.246 N 
ATOM      6  H   UNL     1       0.101  -4.475  -2.146  0.00  0.00    +0.172 HD
BRANCH   5   7
ATOM      7  C   UNL     1       1.373  -4.659  -3.699  0.00  0.00    +0.151 C 
ATOM      8  S   UNL     1       0.916  -6.262  -4.091  0.00  0.00    -0.017 S 
BRANCH   7   9
ATOM      9  N   UNL     1       2.322  -4.033  -4.423  0.00  0.00    -0.296 N 
ATOM     10  H   UNL     1       2.537  -3.104  -4.241  0.00  0.00    +0.154 HD
BRANCH   9  11
ATOM     11  C   UNL     1       2.998  -4.722  -5.437  0.00  0.00    +0.033 A 
ATOM     12  C   UNL     1       2.288  -5.503  -6.338  0.00  0.00    +0.026 A 
ATOM     13  C   UNL     1       2.956  -6.182  -7.338  0.00  0.00    +0.040 A 
ATOM     14  C   UNL     1       4.333  -6.083  -7.442  0.00  0.00    +0.124 A 
ATOM     15  C   UNL     1       5.043  -5.305  -6.544  0.00  0.00    +0.040 A 
ATOM     16  C   UNL     1       4.378  -4.620  -5.546  0.00  0.00    +0.026 A 
ATOM     17  F   UNL     1       4.985  -6.748  -8.421  0.00  0.00    -0.205 F 
ENDBRANCH   9  11
ENDBRANCH   7   9
ENDBRANCH   5   7
ENDBRANCH   3   5
BRANCH   1  18
ATOM     18  C   UNL     1       0.970  -0.666  -0.969  0.00  0.00    +0.119 C 
BRANCH  18  20
ATOM     19  C   UNL     1       0.473   1.289   0.506  0.00  0.00    +0.028 C 
ATOM     20  C   UNL     1       0.156  -0.183   0.233  0.00  0.00    +0.079 C 
BRANCH  20  21
ATOM     21  N   UNL     1       0.501  -0.983   1.411  0.00  0.00    -0.312 N 
ATOM     22  C   UNL     1      -0.382  -1.114   2.420  0.00  0.00    +0.216 C 
ATOM     23  O   UNL     1      -1.464  -0.569   2.353  0.00  0.00    -0.276 OA
ATOM     24  H   UNL     1       1.366  -1.419   1.464  0.00  0.00    +0.149 HD
BRANCH  22  25
ATOM     25  C   UNL     1      -0.027  -1.937   3.631  0.00  0.00    +0.075 C 
ATOM     26  C   UNL     1       0.260  -3.377   3.202  0.00  0.00    +0.013 C 
ATOM     27  C   UNL     1       0.621  -4.213   4.432  0.00  0.00    +0.001 C 
ATOM     28  C   UNL     1      -0.548  -4.198   5.420  0.00  0.00    +0.000 C 
ATOM     29  C   UNL     1      -0.834  -2.757   5.848  0.00  0.00    +0.001 C 
ATOM     30  C   UNL     1      -1.195  -1.922   4.619  0.00  0.00    +0.013 C 
ENDBRANCH  22  25
ENDBRANCH  20  21
ENDBRANCH  18  20
ENDBRANCH   1  18
TORSDOF 8
