REMARK  Name = ZINC10149621
REMARK  8 active torsions:
REMARK  status: ('A' for Active; 'I' for Inactive)
REMARK    1  A    between atoms: C_1  and  C_2
REMARK    2  A    between atoms: C_2  and  C_3
REMARK    3  A    between atoms: C_4  and  C_25
REMARK    4  A    between atoms: C_6  and  N_11
REMARK    5  A    between atoms: C_7  and  C_8
REMARK    6  A    between atoms: C_12  and  C_14
REMARK    7  A    between atoms: C_14  and  O_15
REMARK    8  A    between atoms: O_15  and  C_16
REMARK                            x       y       z     vdW  Elec       q    Type
REMARK                         _______ _______ _______ _____ _____    ______ ____
ROOT
ATOM      1  N   UNL     1      -4.940   0.190   2.170  0.00  0.00    -0.277 N 
ATOM      2  C   UNL     1      -4.239   0.616   1.100  0.00  0.00    +0.255 C 
ATOM      3  O   UNL     1      -4.643   0.385  -0.020  0.00  0.00    -0.272 OA
ATOM      4  H   UNL     1      -4.617   0.374   3.066  0.00  0.00    +0.155 HD
ENDROOT
BRANCH   1   8
ATOM      5  C   UNL     1      -8.152  -1.719   2.483  0.00  0.00    -0.024 A 
ATOM      6  C   UNL     1      -8.318  -1.806   1.151  0.00  0.00    -0.008 A 
ATOM      7  S   UNL     1      -6.898  -0.949   0.504  0.00  0.00    -0.078 S 
ATOM      8  C   UNL     1      -6.123  -0.511   1.989  0.00  0.00    +0.084 A 
ATOM      9  C   UNL     1      -6.977  -1.026   2.957  0.00  0.00    +0.068 A 
ATOM     10  C   UNL     1      -9.440  -2.465   0.390  0.00  0.00    +0.052 C 
BRANCH   9  11
ATOM     11  C   UNL     1      -6.699  -0.874   4.388  0.00  0.00    +0.244 C 
ATOM     12  O   UNL     1      -7.122   0.095   4.991  0.00  0.00    -0.270 OA
ATOM     13  N   UNL     1      -5.975  -1.808   5.037  0.00  0.00    -0.325 N 
ATOM     14  H   UNL     1      -5.638  -2.581   4.557  0.00  0.00    +0.145 HD
ATOM     15  H   UNL     1      -5.791  -1.707   5.984  0.00  0.00    +0.145 HD
ENDBRANCH   9  11
BRANCH   5  17
ATOM     16  C   UNL     1     -10.223  -1.283   3.776  0.00  0.00    +0.009 C 
ATOM     17  C   UNL     1      -9.149  -2.320   3.440  0.00  0.00    +0.033 C 
ENDBRANCH   5  17
ENDBRANCH   1   8
BRANCH   2  18
ATOM     18  C   UNL     1      -2.954   1.377   1.296  0.00  0.00    +0.325 C 
BRANCH  18  19
ATOM     19  O   UNL     1      -2.402   1.716   0.022  0.00  0.00    -0.480 OA
BRANCH  19  20
ATOM     20  C   UNL     1      -1.233   2.410   0.021  0.00  0.00    +0.153 A 
ATOM     21  C   UNL     1      -0.021   1.732   0.012  0.00  0.00    +0.085 A 
ATOM     22  C   UNL     1       1.166   2.440   0.004  0.00  0.00    +0.043 A 
ATOM     23  C   UNL     1       1.147   3.823   0.011  0.00  0.00    +0.044 A 
ATOM     24  C   UNL     1      -0.058   4.501   0.026  0.00  0.00    +0.039 A 
ATOM     25  C   UNL     1      -1.248   3.797   0.035  0.00  0.00    +0.062 A 
ATOM     26 BR   UNL     1      -2.896   4.724   0.055  0.00  0.00    -0.046 Br
ATOM     27 CL   UNL     1       2.640   4.710   0.001  0.00  0.00    -0.083 Cl
ATOM     28 CL   UNL     1       0.002  -0.004   0.002  0.00  0.00    -0.080 Cl
ENDBRANCH  19  20
ENDBRANCH  18  19
ENDBRANCH   2  18
TORSDOF 6
