REMARK  Name = ZINC08915330
REMARK  6 active torsions:
REMARK  status: ('A' for Active; 'I' for Inactive)
REMARK    1  A    between atoms: C_5  and  C_7
REMARK    2  A    between atoms: C_10  and  C_12
REMARK    3  A    between atoms: C_14  and  C_26
REMARK    4  A    between atoms: C_16  and  C_21
REMARK    5  A    between atoms: C_18  and  O_20
REMARK    6  A    between atoms: C_26  and  C_28
REMARK                            x       y       z     vdW  Elec       q    Type
REMARK                         _______ _______ _______ _____ _____    ______ ____
ROOT
ATOM      1  C   UNL     1       2.351  -5.401  -1.301  0.00  0.00    +0.156 C 
ATOM      2  C   UNL     1       3.791  -5.621  -0.811  0.00  0.00    +0.152 C 
ATOM      3  C   UNL     1       4.389  -6.800  -1.582  0.00  0.00    +0.284 C 
ATOM      4  N   UNL     1       4.172  -6.639  -3.015  0.00  0.00    -0.306 N 
ATOM      5  C   UNL     1       3.264  -5.875  -3.522  0.00  0.00    +0.256 C 
ATOM      6  N   UNL     1       2.414  -5.126  -2.745  0.00  0.00    -0.290 N 
ATOM      7  O   UNL     1       3.769  -8.011  -1.145  0.00  0.00    -0.194 OA
ATOM      8  H   UNL     1       1.867  -4.429  -3.140  0.00  0.00    +0.151 HD
ATOM      9  H   UNL     1       4.744  -7.135  -3.622  0.00  0.00    +0.167 HD
ENDROOT
BRANCH   1  13
ATOM     10  C   UNL     1       1.249  -2.160  -0.023  0.00  0.00    +0.137 A 
ATOM     11  C   UNL     1       0.561  -2.976   0.819  0.00  0.00    +0.050 A 
ATOM     12  C   UNL     1       0.881  -4.299   0.454  0.00  0.00    +0.047 A 
ATOM     13  C   UNL     1       1.740  -4.226  -0.582  0.00  0.00    +0.127 A 
ATOM     14  O   UNL     1       1.956  -2.932  -0.871  0.00  0.00    -0.458 OA
BRANCH  10  19
ATOM     15  C   UNL     1      -0.017   1.375   0.010  0.00  0.00    +0.001 A 
ATOM     16  C   UNL     1       1.170   2.087   0.002  0.00  0.00    +0.001 A 
ATOM     17  C   UNL     1       2.383   1.422  -0.013  0.00  0.00    +0.021 A 
ATOM     18  C   UNL     1       2.416   0.041  -0.022  0.00  0.00    +0.052 A 
ATOM     19  C   UNL     1       1.222  -0.683  -0.014  0.00  0.00    +0.036 A 
ATOM     20  C   UNL     1       0.002  -0.004   0.002  0.00  0.00    +0.013 A 
ATOM     21 CL   UNL     1       3.939  -0.792  -0.043  0.00  0.00    -0.083 Cl
ENDBRANCH  10  19
ENDBRANCH   1  13
BRANCH   3  22
ATOM     22  C   UNL     1       5.891  -6.875  -1.304  0.00  0.00    +0.441 C 
ATOM     23  F   UNL     1       6.104  -7.054   0.067  0.00  0.00    -0.166 F 
ATOM     24  F   UNL     1       6.443  -7.952  -2.006  0.00  0.00    -0.166 F 
ATOM     25  F   UNL     1       6.502  -5.686  -1.718  0.00  0.00    -0.166 F 
ENDBRANCH   3  22
BRANCH   5  26
ATOM     26  O   UNL     1       3.145  -5.810  -4.866  0.00  0.00    -0.483 OA
ATOM     27  H   UNL     1       3.776  -6.364  -5.344  0.00  0.00    +0.295 HD
ENDBRANCH   5  26
BRANCH   2  28
ATOM     28  C   UNL     1       3.783  -5.929   0.664  0.00  0.00    +0.173 C 
ATOM     29  O   UNL     1       2.832  -6.494   1.161  0.00  0.00    -0.292 OA
BRANCH  28  30
ATOM     30  C   UNL     1       4.930  -5.545   1.501  0.00  0.00    +0.018 A 
ATOM     31  C   UNL     1       6.027  -4.889   0.933  0.00  0.00    +0.013 A 
ATOM     32  C   UNL     1       7.098  -4.532   1.724  0.00  0.00    +0.020 A 
ATOM     33  C   UNL     1       7.090  -4.822   3.079  0.00  0.00    +0.041 A 
ATOM     34  C   UNL     1       6.007  -5.472   3.648  0.00  0.00    +0.020 A 
ATOM     35  C   UNL     1       4.927  -5.830   2.871  0.00  0.00    +0.013 A 
ATOM     36 CL   UNL     1       8.444  -4.369   4.067  0.00  0.00    -0.084 Cl
ENDBRANCH  28  30
ENDBRANCH   2  28
TORSDOF 6
