REMARK  Name = ZINC21316667
REMARK  9 active torsions:
REMARK  status: ('A' for Active; 'I' for Inactive)
REMARK    1  A    between atoms: C_1  and  O_2
REMARK    2  A    between atoms: O_2  and  C_3
REMARK    3  A    between atoms: C_6  and  C_10
REMARK    4  A    between atoms: C_8  and  O_9
REMARK    5  A    between atoms: N_11  and  N_12
REMARK    6  A    between atoms: C_16  and  S_19
REMARK    7  A    between atoms: N_17  and  N_18
REMARK    8  A    between atoms: S_19  and  C_20
REMARK    9  A    between atoms: C_20  and  C_21
REMARK                            x       y       z     vdW  Elec       q    Type
REMARK                         _______ _______ _______ _____ _____    ______ ____
ROOT
ATOM      1  N   UNL     1      -2.939   1.590   0.046  0.00  0.00    -0.204 N 
ATOM      2  C   UNL     1      -2.081   1.760  -1.031  0.00  0.00    +0.254 A 
ATOM      3  N   UNL     1      -2.412   2.209  -2.217  0.00  0.00    -0.109 NA
ATOM      4  N   UNL     1      -1.258   2.229  -3.011  0.00  0.00    -0.119 NA
ATOM      5  C   UNL     1      -0.257   1.796  -2.281  0.00  0.00    +0.210 A 
ATOM      6  N   UNL     1      -0.741   1.490  -1.041  0.00  0.00    -0.211 N 
ATOM      7  H   UNL     1      -2.553   1.205   1.001  0.00  0.00    +0.177 HD
ENDROOT
BRANCH   6   8
ATOM      8  N   UNL     1      -0.012   1.005   0.008  0.00  0.00    -0.294 N 
ATOM      9  H   UNL     1       1.067   0.823  -0.110  0.00  0.00    +0.163 HD
ATOM     10  H   UNL     1      -0.503   0.796   0.969  0.00  0.00    +0.163 HD
ENDBRANCH   6   8
BRANCH   1  12
ATOM     11  C   UNL     1      -5.101   1.749   0.924  0.00  0.00    +0.138 C 
ATOM     12  N   UNL     1      -4.297   1.909  -0.084  0.00  0.00    -0.188 NA
BRANCH  11  16
ATOM     13  C   UNL     1      -9.218   2.718   0.525  0.00  0.00    +0.161 A 
ATOM     14  C   UNL     1      -8.359   2.888  -0.550  0.00  0.00    +0.050 A 
ATOM     15  C   UNL     1      -7.021   2.580  -0.423  0.00  0.00    +0.013 A 
ATOM     16  C   UNL     1      -6.530   2.085   0.787  0.00  0.00    -0.002 A 
ATOM     17  C   UNL     1      -7.396   1.914   1.871  0.00  0.00    +0.058 A 
ATOM     18  C   UNL     1      -8.735   2.230   1.737  0.00  0.00    +0.159 A 
BRANCH  13  20
ATOM     19  C   UNL     1     -10.964   3.523  -0.874  0.00  0.00    +0.277 C 
ATOM     20  O   UNL     1     -10.536   3.028   0.396  0.00  0.00    -0.491 OA
ENDBRANCH  13  20
BRANCH  18  21
ATOM     21  O   UNL     1      -9.581   2.065   2.789  0.00  0.00    -0.503 OA
ATOM     22  H   UNL     1      -9.199   1.680   3.747  0.00  0.00    +0.292 HD
ENDBRANCH  18  21
ENDBRANCH  11  16
ENDBRANCH   1  12
BRANCH   5  23
ATOM     23  S   UNL     1       1.416   1.635  -2.810  0.00  0.00    -0.080 S 
BRANCH  23  24
ATOM     24  C   UNL     1       1.388   2.200  -4.533  0.00  0.00    +0.112 C 
BRANCH  24  25
ATOM     25  C   UNL     1       2.776   2.112  -5.113  0.00  0.00    -0.036 A 
ATOM     26  C   UNL     1       3.634   3.193  -5.021  0.00  0.00    +0.006 A 
ATOM     27  C   UNL     1       4.909   3.111  -5.547  0.00  0.00    +0.022 A 
ATOM     28  C   UNL     1       5.324   1.952  -6.177  0.00  0.00    +0.059 A 
ATOM     29  C   UNL     1       4.464   0.871  -6.274  0.00  0.00    +0.060 A 
ATOM     30  C   UNL     1       3.190   0.953  -5.742  0.00  0.00    +0.026 A 
ATOM     31 CL   UNL     1       4.984  -0.585  -7.064  0.00  0.00    -0.082 Cl
ATOM     32 CL   UNL     1       6.924   1.851  -6.844  0.00  0.00    -0.082 Cl
ENDBRANCH  24  25
ENDBRANCH  23  24
ENDBRANCH   5  23
TORSDOF 8
