REMARK  Name = ZINC25668900
REMARK  6 active torsions:
REMARK  status: ('A' for Active; 'I' for Inactive)
REMARK    1  A    between atoms: C_4  and  N_7
REMARK    2  A    between atoms: N_10  and  C_11
REMARK    3  A    between atoms: C_14  and  N_17
REMARK    4  A    between atoms: C_18  and  C_20
REMARK    5  A    between atoms: C_24  and  C_29
REMARK    6  A    between atoms: C_29  and  C_30
REMARK                            x       y       z     vdW  Elec       q    Type
REMARK                         _______ _______ _______ _____ _____    ______ ____
ROOT
ATOM      1  N   UNL     1       0.457   1.926   0.151  0.00  0.00    -0.284 N 
ATOM      2  C   UNL     1       1.512   2.759   0.053  0.00  0.00    +0.238 C 
ATOM      3  O   UNL     1       1.333   3.944  -0.136  0.00  0.00    -0.273 OA
ATOM      4  H   UNL     1       0.620   0.842   0.251  0.00  0.00    +0.155 HD
ENDROOT
BRANCH   2   5
ATOM      5  C   UNL     1       2.913   2.220   0.180  0.00  0.00    +0.169 C 
ATOM      6  C   UNL     1       3.211   1.959   1.657  0.00  0.00    +0.101 C 
ATOM      7  S   UNL     1       4.975   1.534   1.812  0.00  0.00    -0.145 S 
ATOM      8  C   UNL     1       5.784   3.033   1.173  0.00  0.00    +0.136 C 
ATOM      9  C   UNL     1       5.062   3.486  -0.064  0.00  0.00    +0.227 C 
ATOM     10  O   UNL     1       5.669   4.219  -0.815  0.00  0.00    -0.275 OA
ATOM     11  N   UNL     1       3.833   3.164  -0.412  0.00  0.00    -0.302 N 
ATOM     12  H   UNL     1       3.531   3.745  -1.296  0.00  0.00    +0.150 HD
BRANCH   8  13
ATOM     13  C   UNL     1       7.242   2.721   0.830  0.00  0.00    +0.058 C 
BRANCH  13  14
ATOM     14  C   UNL     1       7.995   2.386   2.092  0.00  0.00    -0.046 A 
ATOM     15  C   UNL     1       8.624   3.388   2.807  0.00  0.00    +0.006 A 
ATOM     16  C   UNL     1       9.310   3.082   3.967  0.00  0.00    +0.038 A 
ATOM     17  C   UNL     1       9.376   1.771   4.407  0.00  0.00    +0.123 A 
ATOM     18  C   UNL     1       8.750   0.768   3.687  0.00  0.00    +0.038 A 
ATOM     19  C   UNL     1       8.059   1.077   2.530  0.00  0.00    +0.006 A 
ATOM     20  F   UNL     1      10.050   1.470   5.538  0.00  0.00    -0.205 F 
ENDBRANCH  13  14
ENDBRANCH   8  13
ENDBRANCH   2   5
BRANCH   1  24
ATOM     21  C   UNL     1      -3.422   3.453   0.071  0.00  0.00    +0.035 A 
ATOM     22  C   UNL     1      -2.429   4.039  -0.703  0.00  0.00    +0.025 A 
ATOM     23  C   UNL     1      -1.145   3.534  -0.676  0.00  0.00    +0.025 A 
ATOM     24  C   UNL     1      -0.846   2.439   0.124  0.00  0.00    +0.034 A 
ATOM     25  C   UNL     1      -1.841   1.849   0.893  0.00  0.00    +0.025 A 
ATOM     26  C   UNL     1      -3.124   2.358   0.871  0.00  0.00    +0.025 A 
BRANCH  21  30
ATOM     27  N   UNL     1      -6.692   4.542   1.163  0.00  0.00    -0.269 N 
ATOM     28  C   UNL     1      -5.474   3.965   1.165  0.00  0.00    +0.308 C 
ATOM     29  O   UNL     1      -5.050   3.445   2.179  0.00  0.00    -0.252 OA
ATOM     30  N   UNL     1      -4.726   3.966   0.044  0.00  0.00    -0.269 N 
ATOM     31  H   UNL     1      -7.107   4.947   0.228  0.00  0.00    +0.156 HD
ATOM     32  H   UNL     1      -5.139   4.369  -0.893  0.00  0.00    +0.156 HD
BRANCH  27  36
ATOM     33  C   UNL     1      -8.885   4.792   4.696  0.00  0.00    +0.000 A 
ATOM     34  C   UNL     1      -8.950   5.817   3.770  0.00  0.00    +0.002 A 
ATOM     35  C   UNL     1      -8.224   5.737   2.598  0.00  0.00    +0.023 A 
ATOM     36  C   UNL     1      -7.428   4.626   2.350  0.00  0.00    +0.035 A 
ATOM     37  C   UNL     1      -7.370   3.596   3.279  0.00  0.00    +0.023 A 
ATOM     38  C   UNL     1      -8.093   3.685   4.452  0.00  0.00    +0.002 A 
ENDBRANCH  27  36
ENDBRANCH  21  30
ENDBRANCH   1  24
TORSDOF 6
