REMARK  Name = ZINC03272685
REMARK  11 active torsions:
REMARK  status: ('A' for Active; 'I' for Inactive)
REMARK    1  A    between atoms: C_1  and  C_2
REMARK    2  A    between atoms: C_2  and  C_3
REMARK    3  A    between atoms: C_3  and  C_5
REMARK    4  A    between atoms: C_3  and  C_6
REMARK    5  A    between atoms: C_11  and  N_12
REMARK    6  A    between atoms: C_13  and  C_15
REMARK    7  A    between atoms: C_15  and  S_16
REMARK    8  A    between atoms: S_16  and  C_17
REMARK    9  A    between atoms: C_20  and  C_23
REMARK   10  A    between atoms: N_21  and  N_22
REMARK   11  A    between atoms: C_26  and  C_29
REMARK                            x       y       z     vdW  Elec       q    Type
REMARK                         _______ _______ _______ _____ _____    ______ ____
ROOT
ATOM      1  S   UNL     1      -2.557   7.935   0.242  0.00  0.00    -0.075 S 
ENDROOT
BRANCH   1   2
ATOM      2  C   UNL     1      -2.463   9.690   0.122  0.00  0.00    +0.209 A 
ATOM      3  N   UNL     1      -1.377  10.401  -0.084  0.00  0.00    -0.121 NA
ATOM      4  N   UNL     1      -1.669  11.652  -0.119  0.00  0.00    -0.127 NA
ATOM      5  C   UNL     1      -2.957  11.818   0.072  0.00  0.00    +0.182 A 
ATOM      6  N   UNL     1      -3.505  10.566   0.233  0.00  0.00    -0.224 N 
BRANCH   5   7
ATOM      7  C   UNL     1      -3.681  13.106   0.109  0.00  0.00    +0.021 A 
ATOM      8  C   UNL     1      -3.102  14.251  -0.439  0.00  0.00    +0.012 A 
ATOM      9  C   UNL     1      -3.786  15.449  -0.406  0.00  0.00    +0.004 A 
ATOM     10  C   UNL     1      -5.038  15.519   0.179  0.00  0.00    -0.050 A 
ATOM     11  C   UNL     1      -5.615  14.388   0.729  0.00  0.00    +0.004 A 
ATOM     12  C   UNL     1      -4.944  13.183   0.698  0.00  0.00    +0.012 A 
ATOM     13  C   UNL     1      -5.776  16.832   0.216  0.00  0.00    +0.044 C 
ENDBRANCH   5   7
BRANCH   6  14
ATOM     14  N   UNL     1      -4.818  10.263   0.456  0.00  0.00    -0.295 N 
ATOM     15  H   UNL     1      -5.005  10.169   1.443  0.00  0.00    +0.163 HD
ATOM     16  H   UNL     1      -5.425  10.952   0.037  0.00  0.00    +0.163 HD
ENDBRANCH   6  14
ENDBRANCH   1   2
BRANCH   1  17
ATOM     17  C   UNL     1      -0.815   7.510  -0.005  0.00  0.00    +0.173 C 
BRANCH  17  19
ATOM     18  N   UNL     1       0.572   5.463  -0.100  0.00  0.00    -0.285 N 
ATOM     19  C   UNL     1      -0.648   6.013   0.058  0.00  0.00    +0.227 C 
ATOM     20  O   UNL     1      -1.613   5.304   0.252  0.00  0.00    -0.275 OA
ATOM     21  H   UNL     1       1.355   6.032  -0.171  0.00  0.00    +0.155 HD
BRANCH  18  27
ATOM     22  C   UNL     1       1.840   3.461   0.364  0.00  0.00    -0.023 A 
ATOM     23  C   UNL     1       1.973   2.087   0.300  0.00  0.00    +0.006 A 
ATOM     24  C   UNL     1       0.982   1.322  -0.286  0.00  0.00    +0.000 A 
ATOM     25  C   UNL     1      -0.142   1.928  -0.816  0.00  0.00    +0.002 A 
ATOM     26  C   UNL     1      -0.284   3.300  -0.751  0.00  0.00    +0.023 A 
ATOM     27  C   UNL     1       0.710   4.072  -0.163  0.00  0.00    +0.037 A 
BRANCH  22  28
ATOM     28  C   UNL     1       2.920   4.295   1.003  0.00  0.00    +0.017 C 
ATOM     29  C   UNL     1       3.010   3.958   2.493  0.00  0.00    +0.012 C 
BRANCH  28  31
ATOM     30  C   UNL     1       5.334   4.929   0.893  0.00  0.00    +0.004 C 
ATOM     31  C   UNL     1       4.261   3.994   0.331  0.00  0.00    +0.004 C 
ENDBRANCH  28  31
ENDBRANCH  22  28
ENDBRANCH  18  27
ENDBRANCH  17  19
ENDBRANCH   1  17
TORSDOF 8
