REMARK  Name = ZINC36818384
REMARK  8 active torsions:
REMARK  status: ('A' for Active; 'I' for Inactive)
REMARK    1  A    between atoms: C_1  and  C_2
REMARK    2  A    between atoms: C_5  and  O_29
REMARK    3  A    between atoms: C_6  and  N_8
REMARK    4  A    between atoms: C_9  and  C_11
REMARK    5  A    between atoms: C_11  and  S_12
REMARK    6  A    between atoms: S_12  and  C_13
REMARK    7  A    between atoms: C_23  and  C_27
REMARK    8  A    between atoms: O_29  and  C_30
REMARK                            x       y       z     vdW  Elec       q    Type
REMARK                         _______ _______ _______ _____ _____    ______ ____
ROOT
ATOM      1  C   UNL     1       0.530  -2.760   7.664  0.00  0.00    +0.191 A 
ATOM      2  N   UNL     1       0.540  -4.079   7.511  0.00  0.00    -0.207 NA
ATOM      3  C   UNL     1       0.652  -4.905   8.538  0.00  0.00    +0.129 A 
ATOM      4  C   UNL     1       0.767  -4.370   9.851  0.00  0.00    +0.051 A 
ATOM      5  C   UNL     1       0.902  -5.085  11.122  0.00  0.00    -0.025 A 
ATOM      6  C   UNL     1       0.994  -4.336  12.239  0.00  0.00    -0.004 A 
ATOM      7  S   UNL     1       0.907  -2.657  11.678  0.00  0.00    -0.073 S 
ATOM      8  C   UNL     1       0.749  -2.964   9.938  0.00  0.00    +0.115 A 
ATOM      9  N   UNL     1       0.638  -2.206   8.864  0.00  0.00    -0.214 NA
ATOM     10  C   UNL     1       1.139  -4.822  13.649  0.00  0.00    +0.046 C 
ATOM     11  C   UNL     1       1.544  -6.303  13.612  0.00  0.00    -0.009 C 
ATOM     12  C   UNL     1       0.624  -7.039  12.633  0.00  0.00    +0.008 C 
ATOM     13  C   UNL     1       0.941  -6.609  11.200  0.00  0.00    +0.037 C 
ATOM     14  C   UNL     1       1.402  -6.909  15.009  0.00  0.00    +0.008 C 
ATOM     15  N   UNL     1       0.657  -6.273   8.337  0.00  0.00    -0.343 N 
ATOM     16  H   UNL     1       1.083  -6.857   8.985  0.00  0.00    +0.144 HD
ATOM     17  H   UNL     1       0.236  -6.650   7.548  0.00  0.00    +0.144 HD
ENDROOT
BRANCH   1  18
ATOM     18  S   UNL     1       0.378  -1.726   6.245  0.00  0.00    -0.077 S 
BRANCH  18  19
ATOM     19  C   UNL     1       0.261  -2.894   4.862  0.00  0.00    +0.173 C 
BRANCH  19  21
ATOM     20  N   UNL     1       0.022  -2.795   2.402  0.00  0.00    -0.282 N 
ATOM     21  C   UNL     1       0.126  -2.130   3.570  0.00  0.00    +0.228 C 
ATOM     22  O   UNL     1       0.109  -0.918   3.581  0.00  0.00    -0.275 OA
ATOM     23  H   UNL     1      -0.047  -3.763   2.399  0.00  0.00    +0.155 HD
BRANCH  20  29
ATOM     24  C   UNL     1       1.225   1.227  -0.159  0.00  0.00    +0.044 C 
ATOM     25  C   UNL     1       0.589  -0.137  -0.078  0.00  0.00    -0.048 A 
ATOM     26  C   UNL     1      -0.002  -0.690  -1.199  0.00  0.00    +0.007 A 
ATOM     27  C   UNL     1      -0.587  -1.941  -1.131  0.00  0.00    +0.048 A 
ATOM     28  C   UNL     1      -0.582  -2.644   0.062  0.00  0.00    +0.141 A 
ATOM     29  C   UNL     1       0.014  -2.088   1.192  0.00  0.00    +0.076 A 
ATOM     30  C   UNL     1       0.604  -0.835   1.115  0.00  0.00    +0.030 A 
BRANCH  28  31
ATOM     31  O   UNL     1      -1.158  -3.874   0.131  0.00  0.00    -0.493 OA
ATOM     32  C   UNL     1      -1.750  -4.381  -1.066  0.00  0.00    +0.277 C 
ENDBRANCH  28  31
ENDBRANCH  20  29
ENDBRANCH  19  21
ENDBRANCH  18  19
ENDBRANCH   1  18
TORSDOF 5
