REMARK  Name = ZINC01716222
REMARK  3 active torsions:
REMARK  status: ('A' for Active; 'I' for Inactive)
REMARK    1  A    between atoms: C_2  and  C_10
REMARK    2  A    between atoms: C_5  and  O_8
REMARK    3  A    between atoms: C_10  and  O_11
REMARK                            x       y       z     vdW  Elec       q    Type
REMARK                         _______ _______ _______ _____ _____    ______ ____
ROOT
ATOM      1  C   UNL     1      -0.159   4.628   0.028  0.00  0.00    +0.098 A 
ATOM      2  C   UNL     1      -1.273   3.869   0.035  0.00  0.00    +0.135 A 
ATOM      3  O   UNL     1      -1.198   2.533   0.021  0.00  0.00    -0.447 OA
ATOM      4  C   UNL     1      -0.024   1.887   0.012  0.00  0.00    +0.215 A 
ATOM      5  C   UNL     1       1.144   2.571   0.005  0.00  0.00    +0.214 A 
ATOM      6  C   UNL     1       1.107   3.991   0.013  0.00  0.00    +0.228 A 
ATOM      7  O   UNL     1       2.139   4.646   0.006  0.00  0.00    -0.284 OA
ATOM      8 BR   UNL     1       0.002  -0.004   0.002  0.00  0.00    -0.004 Br
ENDROOT
BRANCH   5   9
ATOM      9  O   UNL     1       2.333   1.909  -0.009  0.00  0.00    -0.500 OA
ATOM     10  H   UNL     1       2.669   1.723  -0.897  0.00  0.00    +0.292 HD
ENDBRANCH   5   9
BRANCH   2  11
ATOM     11  C   UNL     1      -2.625   4.535   0.051  0.00  0.00    +0.230 C 
BRANCH  11  12
ATOM     12  O   UNL     1      -3.065   4.753  -1.291  0.00  0.00    -0.387 OA
ATOM     13  H   UNL     1      -3.930   5.179  -1.357  0.00  0.00    +0.210 HD
ENDBRANCH  11  12
ENDBRANCH   2  11
TORSDOF 3
