REMARK  Name = ZINC01491307
REMARK  3 active torsions:
REMARK  status: ('A' for Active; 'I' for Inactive)
REMARK    1  A    between atoms: C_5  and  C_13
REMARK    2  A    between atoms: C_10  and  C_11
REMARK    3  A    between atoms: C_10  and  N_22
REMARK                            x       y       z     vdW  Elec       q    Type
REMARK                         _______ _______ _______ _____ _____    ______ ____
ROOT
ATOM      1  C   UNL     1      -2.921   3.453   1.161  0.00  0.00    +0.007 C 
ATOM      2  C   UNL     1      -2.998   3.594  -0.406  0.00  0.00    -0.010 C 
ATOM      3  C   UNL     1      -1.475   3.295  -0.727  0.00  0.00    +0.021 C 
ATOM      4  C   UNL     1      -1.329   1.940   0.019  0.00  0.00    +0.078 C 
ATOM      5  C   UNL     1      -2.253   2.032   1.246  0.00  0.00    +0.010 C 
ATOM      6  C   UNL     1      -2.702   1.248  -0.044  0.00  0.00    +0.010 C 
ATOM      7  C   UNL     1      -3.625   2.222  -0.862  0.00  0.00    +0.040 C 
ENDROOT
BRANCH   7  10
ATOM      8  H   UNL     1      -4.073   2.646  -2.826  0.00  0.00    -0.088 HD
ATOM      9  H   UNL     1      -2.514   2.117  -2.592  0.00  0.00    -0.088 HD
ATOM     10  N   UNL     1      -3.485   1.993  -2.311  0.00  0.00    +0.389 N 
ATOM     11  H   UNL     1      -3.778   1.034  -2.531  0.00  0.00    -0.088 HD
ENDBRANCH   7  10
BRANCH   7  12
ATOM     12  C   UNL     1      -5.066   2.105  -0.436  0.00  0.00    +0.346 C 
ATOM     13  O   UNL     1      -5.338   1.713   0.674  0.00  0.00    -0.248 OA
ATOM     14  O   UNL     1      -6.048   2.437  -1.290  0.00  0.00    -0.248 OA
ENDBRANCH   7  12
BRANCH   4  15
ATOM     15  C   UNL     1      -0.014   1.204   0.009  0.00  0.00    +0.363 C 
ATOM     16  O   UNL     1       0.002  -0.004   0.002  0.00  0.00    -0.246 OA
ATOM     17  O   UNL     1       1.139   1.891   0.001  0.00  0.00    -0.246 OA
ENDBRANCH   4  15
TORSDOF 3
