REMARK  Name = ZINC17286281
REMARK  11 active torsions:
REMARK  status: ('A' for Active; 'I' for Inactive)
REMARK    1  A    between atoms: C_1  and  O_2
REMARK    2  A    between atoms: O_2  and  C_3
REMARK    3  A    between atoms: C_6  and  C_9
REMARK    4  A    between atoms: C_9  and  C_10
REMARK    5  A    between atoms: C_9  and  N_18
REMARK    6  A    between atoms: C_13  and  O_16
REMARK    7  A    between atoms: O_16  and  C_17
REMARK    8  A    between atoms: C_19  and  C_21
REMARK    9  A    between atoms: C_21  and  N_66
REMARK   10  A    between atoms: N_24  and  C_27
REMARK   11  A    between atoms: C_32  and  N_33
REMARK                            x       y       z     vdW  Elec       q    Type
REMARK                         _______ _______ _______ _____ _____    ______ ____
ROOT
ATOM      1  N   UNL     1       1.362   1.593  -0.002  0.00  0.00    -0.306 N 
ATOM      2  C   UNL     1       2.318   0.933  -0.685  0.00  0.00    +0.197 C 
ATOM      3  O   UNL     1       2.042  -0.081  -1.290  0.00  0.00    -0.278 OA
ATOM      4  H   UNL     1       1.583   2.404   0.482  0.00  0.00    +0.150 HD
ENDROOT
BRANCH   1   5
ATOM      5  C   UNL     1      -0.013   1.086   0.008  0.00  0.00    +0.133 C 
BRANCH   5   9
ATOM      6  C   UNL     1      -2.080   2.502  -3.454  0.00  0.00    +0.120 A 
ATOM      7  C   UNL     1      -2.274   1.201  -3.012  0.00  0.00    +0.046 A 
ATOM      8  C   UNL     1      -1.605   0.746  -1.893  0.00  0.00    +0.009 A 
ATOM      9  C   UNL     1      -0.742   1.585  -1.213  0.00  0.00    -0.023 A 
ATOM     10  C   UNL     1      -0.550   2.884  -1.648  0.00  0.00    +0.009 A 
ATOM     11  C   UNL     1      -1.213   3.342  -2.770  0.00  0.00    +0.046 A 
BRANCH   6  13
ATOM     12  C   UNL     1      -2.488   4.301  -4.952  0.00  0.00    +0.277 C 
ATOM     13  O   UNL     1      -2.736   2.951  -4.555  0.00  0.00    -0.495 OA
ENDBRANCH   6  13
ENDBRANCH   5   9
BRANCH   5  14
ATOM     14  C   UNL     1      -0.718   1.572   1.248  0.00  0.00    -0.023 A 
ATOM     15  C   UNL     1      -0.510   2.862   1.700  0.00  0.00    +0.009 A 
ATOM     16  C   UNL     1      -1.160   3.312   2.833  0.00  0.00    +0.046 A 
ATOM     17  C   UNL     1      -2.013   2.464   3.524  0.00  0.00    +0.120 A 
ATOM     18  C   UNL     1      -2.216   1.168   3.072  0.00  0.00    +0.046 A 
ATOM     19  C   UNL     1      -1.568   0.725   1.935  0.00  0.00    +0.009 A 
BRANCH  17  20
ATOM     20  O   UNL     1      -2.649   2.902   4.642  0.00  0.00    -0.495 OA
ATOM     21  C   UNL     1      -2.393   4.248   5.049  0.00  0.00    +0.277 C 
ENDBRANCH  17  20
ENDBRANCH   5  14
ENDBRANCH   1   5
BRANCH   2  22
ATOM     22  C   UNL     1       3.732   1.454  -0.695  0.00  0.00    +0.019 C 
BRANCH  22  28
ATOM     23  C   UNL     1       4.700  -0.758  -0.873  0.00  0.00    -0.059 C 
ATOM     24  C   UNL     1       5.519  -1.679  -1.782  0.00  0.00    +0.086 C 
ATOM     25  N   UNL     1       6.842  -1.083  -2.013  0.00  0.00    -0.332 N 
ATOM     26  C   UNL     1       6.719   0.239  -2.642  0.00  0.00    +0.086 C 
ATOM     27  C   UNL     1       5.900   1.159  -1.734  0.00  0.00    -0.059 C 
ATOM     28  N   UNL     1       4.565   0.560  -1.528  0.00  0.00    +0.387 N 
ATOM     29  H   UNL     1       4.111   0.435  -2.440  0.00  0.00    -0.081 HD
BRANCH  25  30
ATOM     30  C   UNL     1       7.645  -1.930  -2.780  0.00  0.00    +0.060 A 
ATOM     31  C   UNL     1       7.280  -2.243  -4.084  0.00  0.00    +0.025 A 
ATOM     32  C   UNL     1       8.079  -3.076  -4.842  0.00  0.00    +0.002 A 
ATOM     33  C   UNL     1       9.236  -3.607  -4.301  0.00  0.00    +0.002 A 
ATOM     34  C   UNL     1       9.599  -3.302  -3.002  0.00  0.00    +0.034 A 
ATOM     35  C   UNL     1       8.807  -2.465  -2.240  0.00  0.00    +0.147 A 
BRANCH  35  36
ATOM     36  N   UNL     1       9.197  -2.139  -0.850  0.00  0.00    +0.058 N 
ATOM     37  O   UNL     1      10.216  -2.609  -0.377  0.00  0.00    -0.126 OA
ATOM     38  O   UNL     1       8.498  -1.402  -0.179  0.00  0.00    -0.126 OA
ENDBRANCH  35  36
ENDBRANCH  25  30
ENDBRANCH  22  28
ENDBRANCH   2  22
TORSDOF 9
