REMARK  Name = ZINC01069887
REMARK  7 active torsions:
REMARK  status: ('A' for Active; 'I' for Inactive)
REMARK    1  A    between atoms: C_3  and  O_22
REMARK    2  A    between atoms: C_6  and  N_7
REMARK    3  A    between atoms: N_7  and  C_9
REMARK    4  A    between atoms: C_11  and  O_21
REMARK    5  A    between atoms: C_13  and  O_20
REMARK    6  A    between atoms: C_15  and  O_19
REMARK    7  A    between atoms: O_22  and  C_23
REMARK                            x       y       z     vdW  Elec       q    Type
REMARK                         _______ _______ _______ _____ _____    ______ ____
ROOT
ATOM      1  N   UNL     1       0.568  -2.034  -1.067  0.00  0.00    -0.317 N 
ATOM      2  H   UNL     1       1.140  -2.491  -0.431  0.00  0.00    +0.149 HD
ENDROOT
BRANCH   1   8
ATOM      3  C   UNL     1      -1.384  -2.043  -2.489  0.00  0.00    +0.026 A 
ATOM      4  C   UNL     1      -2.403  -2.731  -3.119  0.00  0.00    +0.048 A 
ATOM      5  C   UNL     1      -2.519  -4.103  -2.955  0.00  0.00    +0.129 A 
ATOM      6  C   UNL     1      -1.609  -4.787  -2.163  0.00  0.00    +0.048 A 
ATOM      7  C   UNL     1      -0.586  -4.103  -1.537  0.00  0.00    +0.026 A 
ATOM      8  C   UNL     1      -0.469  -2.729  -1.701  0.00  0.00    +0.029 A 
BRANCH   5   9
ATOM      9  O   UNL     1      -3.526  -4.778  -3.571  0.00  0.00    -0.420 OA
BRANCH   9  10
ATOM     10  C   UNL     1      -4.427  -4.010  -4.371  0.00  0.00    +0.489 C 
ATOM     11  F   UNL     1      -5.053  -3.046  -3.574  0.00  0.00    -0.149 F 
ATOM     12  F   UNL     1      -3.717  -3.378  -5.397  0.00  0.00    -0.149 F 
ATOM     13 CL   UNL     1      -5.673  -5.099  -5.087  0.00  0.00    +0.000 Cl
ENDBRANCH   9  10
ENDBRANCH   5   9
ENDBRANCH   1   8
BRANCH   1  14
ATOM     14  C   UNL     1       0.789  -0.617  -1.365  0.00  0.00    +0.235 C 
ATOM     15  C   UNL     1       2.285  -0.305  -1.278  0.00  0.00    +0.192 C 
ATOM     16  C   UNL     1       2.502   1.190  -1.531  0.00  0.00    +0.178 C 
ATOM     17  C   UNL     1       1.682   1.993  -0.517  0.00  0.00    +0.171 C 
ATOM     18  C   UNL     1       0.209   1.592  -0.633  0.00  0.00    +0.196 C 
ATOM     19  O   UNL     1       0.081   0.185  -0.417  0.00  0.00    -0.354 OA
BRANCH  17  20
ATOM     20  O   UNL     1       1.819   3.389  -0.789  0.00  0.00    -0.387 OA
ATOM     21  H   UNL     1       1.321   3.958  -0.187  0.00  0.00    +0.210 HD
ENDBRANCH  17  20
BRANCH  16  22
ATOM     22  O   UNL     1       3.889   1.504  -1.383  0.00  0.00    -0.386 OA
ATOM     23  H   UNL     1       4.099   2.437  -1.529  0.00  0.00    +0.210 HD
ENDBRANCH  16  22
BRANCH  15  24
ATOM     24  O   UNL     1       2.770  -0.644   0.022  0.00  0.00    -0.385 OA
ATOM     25  H   UNL     1       2.660  -1.577   0.252  0.00  0.00    +0.210 HD
ENDBRANCH  15  24
ENDBRANCH   1  14
TORSDOF 7
