REMARK  Name = ZINC64031953
REMARK  6 active torsions:
REMARK  status: ('A' for Active; 'I' for Inactive)
REMARK    1  A    between atoms: C_1  and  C_2
REMARK    2  A    between atoms: C_5  and  N_8
REMARK    3  A    between atoms: C_9  and  S_19
REMARK    4  A    between atoms: S_19  and  C_20
REMARK    5  A    between atoms: C_20  and  C_21
REMARK    6  A    between atoms: C_26  and  C_27
REMARK                            x       y       z     vdW  Elec       q    Type
REMARK                         _______ _______ _______ _____ _____    ______ ____
ROOT
ATOM      1  N   UNL     1       0.058  -4.167  -0.021  0.00  0.00    -0.252 N 
ATOM      2  C   UNL     1       0.070  -5.053   1.151  0.00  0.00    +0.258 C 
ATOM      3  N   UNL     1       0.087  -6.427   0.637  0.00  0.00    -0.242 NA
ATOM      4  C   UNL     1       0.087  -6.387  -0.652  0.00  0.00    +0.165 C 
ATOM      5  C   UNL     1       0.063  -4.976  -1.116  0.00  0.00    +0.160 C 
ATOM      6  N   UNL     1       0.054  -4.752  -2.418  0.00  0.00    -0.221 NA
ATOM      7  C   UNL     1       0.062  -5.742  -3.296  0.00  0.00    +0.213 C 
ATOM      8  N   UNL     1       0.081  -7.016  -2.989  0.00  0.00    -0.163 NA
ATOM      9  C   UNL     1       0.101  -7.436  -1.713  0.00  0.00    +0.290 C 
ATOM     10  O   UNL     1       0.117  -8.621  -1.434  0.00  0.00    -0.266 OA
ENDROOT
BRANCH   1  15
ATOM     11  C   UNL     1      -0.018   1.503   0.010  0.00  0.00    +0.044 C 
ATOM     12  C   UNL     1       0.002  -0.004   0.002  0.00  0.00    -0.050 A 
ATOM     13  C   UNL     1       0.006  -0.687  -1.200  0.00  0.00    +0.005 A 
ATOM     14  C   UNL     1       0.024  -2.068  -1.212  0.00  0.00    +0.024 A 
ATOM     15  C   UNL     1       0.040  -2.771  -0.013  0.00  0.00    +0.038 A 
ATOM     16  C   UNL     1       0.036  -2.081   1.193  0.00  0.00    +0.024 A 
ATOM     17  C   UNL     1       0.023  -0.700   1.197  0.00  0.00    +0.005 A 
ENDBRANCH   1  15
BRANCH   2  18
ATOM     18  S   UNL     1       1.552  -4.744   2.150  0.00  0.00    -0.110 S 
BRANCH  18  19
ATOM     19  C   UNL     1       2.925  -5.099   1.020  0.00  0.00    +0.108 C 
BRANCH  19  20
ATOM     20  C   UNL     1       4.234  -4.877   1.734  0.00  0.00    -0.035 A 
ATOM     21  C   UNL     1       4.833  -3.632   1.710  0.00  0.00    +0.005 A 
ATOM     22  C   UNL     1       6.033  -3.429   2.365  0.00  0.00    +0.000 A 
ATOM     23  C   UNL     1       6.634  -4.472   3.045  0.00  0.00    +0.000 A 
ATOM     24  C   UNL     1       6.034  -5.717   3.070  0.00  0.00    +0.003 A 
ATOM     25  C   UNL     1       4.832  -5.919   2.419  0.00  0.00    -0.046 A 
ATOM     26  C   UNL     1       4.176  -7.275   2.451  0.00  0.00    +0.044 C 
ENDBRANCH  19  20
ENDBRANCH  18  19
ENDBRANCH   2  18
TORSDOF 4
