REMARK  Name = ZINC51636171
REMARK  4 active torsions:
REMARK  status: ('A' for Active; 'I' for Inactive)
REMARK    1  A    between atoms: C_4  and  C_19
REMARK    2  A    between atoms: C_6  and  N_7
REMARK    3  A    between atoms: N_7  and  C_8
REMARK    4  A    between atoms: C_13  and  N_14
REMARK                            x       y       z     vdW  Elec       q    Type
REMARK                         _______ _______ _______ _____ _____    ______ ____
ROOT
ATOM      1  C   UNL     1      -2.417  -0.039   0.132  0.00  0.00    +0.054 A 
ATOM      2  C   UNL     1      -2.438   1.345   0.133  0.00  0.00    +0.048 A 
ATOM      3  C   UNL     1      -3.647   2.027   0.254  0.00  0.00    +0.039 A 
ATOM      4  C   UNL     1      -4.825   1.300   0.372  0.00  0.00    -0.016 A 
ATOM      5  C   UNL     1      -4.810  -0.078   0.370  0.00  0.00    +0.030 A 
ATOM      6  C   UNL     1      -3.607  -0.758   0.244  0.00  0.00    +0.046 A 
ATOM      7  C   UNL     1      -5.941   2.313   0.483  0.00  0.00    +0.133 C 
ATOM      8  C   UNL     1      -5.235   3.650   0.412  0.00  0.00    +0.222 C 
ATOM      9  O   UNL     1      -5.756   4.744   0.464  0.00  0.00    -0.275 OA
ATOM     10  N   UNL     1      -3.921   3.398   0.281  0.00  0.00    -0.285 N 
ATOM     11  H   UNL     1      -3.242   4.087   0.214  0.00  0.00    +0.155 HD
ENDROOT
BRANCH   6  12
ATOM     12  N   UNL     1      -3.588  -2.160   0.237  0.00  0.00    -0.357 N 
ATOM     13  H   UNL     1      -2.745  -2.632   0.153  0.00  0.00    +0.142 HD
ATOM     14  H   UNL     1      -4.417  -2.657   0.315  0.00  0.00    +0.142 HD
ENDBRANCH   6  12
BRANCH   1  15
ATOM     15  N   UNL     1      -1.200  -0.719   0.010  0.00  0.00    -0.313 N 
ATOM     16  H   UNL     1      -1.191  -1.682  -0.103  0.00  0.00    +0.152 HD
BRANCH  15  22
ATOM     17  C   UNL     1       0.178   1.010   0.982  0.00  0.00    +0.026 A 
ATOM     18  C   UNL     1       1.366   1.714   1.029  0.00  0.00    +0.041 A 
ATOM     19  C   UNL     1       2.390   1.411   0.152  0.00  0.00    +0.141 A 
ATOM     20  C   UNL     1       2.225   0.388  -0.788  0.00  0.00    +0.089 A 
ATOM     21  C   UNL     1       1.024  -0.323  -0.833  0.00  0.00    +0.045 A 
ATOM     22  C   UNL     1       0.005  -0.009   0.052  0.00  0.00    +0.033 A 
ATOM     23  F   UNL     1       3.550   2.103   0.201  0.00  0.00    -0.204 F 
BRANCH  20  24
ATOM     24  C   UNL     1       3.283   0.070  -1.699  0.00  0.00    +0.102 C 
ATOM     25  N   UNL     1       4.122  -0.181  -2.422  0.00  0.00    -0.191 NA
ENDBRANCH  20  24
ENDBRANCH  15  22
ENDBRANCH   1  15
TORSDOF 4
