REMARK  Name = ZINC23357056
REMARK  10 active torsions:
REMARK  status: ('A' for Active; 'I' for Inactive)
REMARK    1  A    between atoms: C_1  and  C_2
REMARK    2  A    between atoms: C_2  and  C_4
REMARK    3  A    between atoms: C_2  and  O_17
REMARK    4  A    between atoms: N_6  and  C_7
REMARK    5  A    between atoms: C_10  and  C_13
REMARK    6  A    between atoms: C_13  and  C_14
REMARK    7  A    between atoms: C_13  and  C_15
REMARK    8  A    between atoms: C_13  and  C_16
REMARK    9  A    between atoms: O_17  and  C_18
REMARK   10  A    between atoms: C_23  and  C_24
REMARK                            x       y       z     vdW  Elec       q    Type
REMARK                         _______ _______ _______ _____ _____    ______ ____
ROOT
ATOM      1  C   UNL     1       0.202   1.584   0.074  0.00  0.00    +0.062 C 
ATOM      2  C   UNL     1       0.199   0.055   0.025  0.00  0.00    +0.256 C 
ENDROOT
BRANCH   2   3
ATOM      3  C   UNL     1       0.834  -0.488   1.279  0.00  0.00    +0.258 C 
ATOM      4  O   UNL     1       0.171  -1.133   2.064  0.00  0.00    -0.271 OA
ATOM      5  N   UNL     1       2.138  -0.258   1.529  0.00  0.00    -0.282 N 
ATOM      6  H   UNL     1       2.649   0.321   0.943  0.00  0.00    +0.155 HD
BRANCH   5   7
ATOM      7  C   UNL     1       2.755  -0.856   2.634  0.00  0.00    +0.034 A 
ATOM      8  C   UNL     1       3.740  -0.172   3.335  0.00  0.00    +0.023 A 
ATOM      9  C   UNL     1       4.347  -0.765   4.425  0.00  0.00    +0.006 A 
ATOM     10  C   UNL     1       3.974  -2.037   4.819  0.00  0.00    -0.042 A 
ATOM     11  C   UNL     1       2.994  -2.720   4.123  0.00  0.00    +0.006 A 
ATOM     12  C   UNL     1       2.378  -2.131   3.036  0.00  0.00    +0.023 A 
BRANCH  10  13
ATOM     13  C   UNL     1       4.638  -2.680   6.009  0.00  0.00    -0.013 C 
ATOM     14  C   UNL     1       4.399  -1.821   7.253  0.00  0.00    +0.015 C 
ATOM     15  C   UNL     1       4.048  -4.074   6.230  0.00  0.00    +0.015 C 
ATOM     16  C   UNL     1       6.142  -2.797   5.752  0.00  0.00    +0.015 C 
ENDBRANCH  10  13
ENDBRANCH   5   7
ENDBRANCH   2   3
BRANCH   2  17
ATOM     17  O   UNL     1      -1.146  -0.416  -0.071  0.00  0.00    -0.479 OA
BRANCH  17  18
ATOM     18  C   UNL     1      -1.689  -0.481  -1.313  0.00  0.00    +0.134 A 
ATOM     19  C   UNL     1      -0.985  -0.000  -2.407  0.00  0.00    +0.048 A 
ATOM     20  C   UNL     1      -1.538  -0.067  -3.670  0.00  0.00    +0.023 A 
ATOM     21  C   UNL     1      -2.798  -0.613  -3.855  0.00  0.00    +0.042 A 
ATOM     22  C   UNL     1      -3.512  -1.096  -2.779  0.00  0.00    +0.036 A 
ATOM     23  C   UNL     1      -2.961  -1.040  -1.496  0.00  0.00    +0.079 A 
ATOM     24 CL   UNL     1      -3.481  -0.689  -5.450  0.00  0.00    -0.084 Cl
BRANCH  23  25
ATOM     25  C   UNL     1      -3.716  -1.560  -0.341  0.00  0.00    +0.245 C 
ATOM     26  O   UNL     1      -3.235  -1.505   0.775  0.00  0.00    -0.270 OA
ATOM     27  N   UNL     1      -4.939  -2.097  -0.521  0.00  0.00    -0.325 N 
ATOM     28  H   UNL     1      -5.323  -2.140  -1.411  0.00  0.00    +0.145 HD
ATOM     29  H   UNL     1      -5.436  -2.439   0.238  0.00  0.00    +0.145 HD
ENDBRANCH  23  25
ENDBRANCH  17  18
ENDBRANCH   2  17
TORSDOF 6
