REMARK  Name = ZINC13495953
REMARK  18 active torsions:
REMARK  status: ('A' for Active; 'I' for Inactive)
REMARK    1  A    between atoms: C_1  and  C_2
REMARK    2  A    between atoms: C_2  and  C_3
REMARK    3  A    between atoms: C_3  and  C_5
REMARK    4  A    between atoms: C_3  and  N_78
REMARK    5  A    between atoms: N_9  and  C_10
REMARK    6  A    between atoms: C_10  and  C_11
REMARK    7  A    between atoms: C_10  and  C_12
REMARK    8  A    between atoms: C_10  and  C_13
REMARK    9  A    between atoms: C_13  and  C_14
REMARK   10  A    between atoms: C_15  and  C_16
REMARK   11  A    between atoms: C_15  and  N_78
REMARK   12  A    between atoms: C_16  and  C_17
REMARK   13  A    between atoms: C_21  and  C_23
REMARK   14  A    between atoms: C_24  and  C_25
REMARK   15  A    between atoms: C_24  and  N_78
REMARK   16  A    between atoms: C_29  and  O_37
REMARK   17  A    between atoms: O_37  and  C_38
REMARK   18  A    between atoms: C_38  and  C_39
REMARK                            x       y       z     vdW  Elec       q    Type
REMARK                         _______ _______ _______ _____ _____    ______ ____
ROOT
ATOM      1  N   UNL     1       0.746  -0.857   3.888  0.00  0.00    +0.389 N 
ATOM      2  H   UNL     1      -0.007  -1.447   3.514  0.00  0.00    -0.080 HD
ENDROOT
BRANCH   1   3
ATOM      3  C   UNL     1       1.033   0.225   2.922  0.00  0.00    +0.003 C 
BRANCH   3   4
ATOM      4  C   UNL     1      -0.258   0.630   2.258  0.00  0.00    +0.139 A 
ATOM      5  N   UNL     1      -1.441   0.693   2.820  0.00  0.00    -0.115 NA
ATOM      6  N   UNL     1      -2.286   1.075   1.925  0.00  0.00    -0.023 NA
ATOM      7  N   UNL     1      -1.672   1.262   0.809  0.00  0.00    -0.043 NA
ATOM      8  N   UNL     1      -0.419   1.002   0.975  0.00  0.00    -0.225 N 
BRANCH   8   9
ATOM      9  C   UNL     1       0.629   1.089  -0.044  0.00  0.00    +0.061 C 
ATOM     10  C   UNL     1       1.156  -0.314  -0.355  0.00  0.00    +0.036 C 
ATOM     11  C   UNL     1       1.775   1.960   0.475  0.00  0.00    +0.036 C 
BRANCH   9  12
ATOM     12  C   UNL     1       0.053   1.710  -1.318  0.00  0.00    +0.026 C 
ATOM     13  C   UNL     1       1.148   1.800  -2.382  0.00  0.00    +0.006 C 
ENDBRANCH   9  12
ENDBRANCH   8   9
ENDBRANCH   3   4
BRANCH   3  15
ATOM     14  C   UNL     1       2.890   0.996   4.405  0.00  0.00    +0.002 C 
ATOM     15  C   UNL     1       1.640   1.433   3.638  0.00  0.00    -0.011 C 
ENDBRANCH   3  15
ENDBRANCH   1   3
BRANCH   1  16
ATOM     16  C   UNL     1       1.952  -1.688   4.088  0.00  0.00    -0.073 C 
BRANCH  16  17
ATOM     17  C   UNL     1       2.153  -2.567   2.852  0.00  0.00    +0.016 C 
BRANCH  17  18
ATOM     18  C   UNL     1       3.269  -3.547   3.108  0.00  0.00    -0.049 A 
ATOM     19  C   UNL     1       4.572  -3.211   2.789  0.00  0.00    +0.003 A 
ATOM     20  C   UNL     1       5.596  -4.108   3.028  0.00  0.00    +0.001 A 
ATOM     21  C   UNL     1       5.316  -5.345   3.578  0.00  0.00    +0.003 A 
ATOM     22  C   UNL     1       4.014  -5.683   3.893  0.00  0.00    -0.050 A 
ATOM     23  C   UNL     1       2.990  -4.784   3.658  0.00  0.00    +0.007 A 
ATOM     24  C   UNL     1       3.709  -7.032   4.492  0.00  0.00    +0.044 C 
ENDBRANCH  17  18
ENDBRANCH  16  17
ENDBRANCH   1  16
BRANCH   1  25
ATOM     25  C   UNL     1       0.310  -0.281   5.177  0.00  0.00    -0.037 C 
BRANCH  25  26
ATOM     26  C   UNL     1      -1.170  -0.010   5.107  0.00  0.00    +0.001 A 
ATOM     27  C   UNL     1      -2.046  -1.044   5.085  0.00  0.00    +0.017 A 
ATOM     28  C   UNL     1      -3.479  -0.747   5.020  0.00  0.00    +0.002 A 
ATOM     29  C   UNL     1      -4.429  -1.774   5.000  0.00  0.00    +0.055 A 
ATOM     30  C   UNL     1      -5.771  -1.458   4.934  0.00  0.00    +0.121 A 
ATOM     31  C   UNL     1      -6.179  -0.127   4.888  0.00  0.00    +0.047 A 
ATOM     32  C   UNL     1      -5.253   0.892   4.907  0.00  0.00    +0.030 A 
ATOM     33  C   UNL     1      -3.896   0.596   4.973  0.00  0.00    +0.049 A 
ATOM     34  N   UNL     1      -2.952   1.603   4.994  0.00  0.00    -0.322 N 
ATOM     35  H   UNL     1      -3.240   2.529   4.962  0.00  0.00    +0.169 HD
ATOM     36  C   UNL     1      -1.639   1.321   5.058  0.00  0.00    +0.251 A 
ATOM     37  O   UNL     1      -0.834   2.236   5.075  0.00  0.00    -0.268 OA
BRANCH  30  38
ATOM     38  O   UNL     1      -6.699  -2.452   4.913  0.00  0.00    -0.492 OA
BRANCH  38  39
ATOM     39  C   UNL     1      -8.070  -2.057   4.844  0.00  0.00    +0.225 C 
ATOM     40  C   UNL     1      -8.960  -3.302   4.830  0.00  0.00    +0.048 C 
ENDBRANCH  38  39
ENDBRANCH  30  38
ENDBRANCH  25  26
ENDBRANCH   1  25
TORSDOF 12
