REMARK  Name = ZINC08561403
REMARK  9 active torsions:
REMARK  status: ('A' for Active; 'I' for Inactive)
REMARK    1  A    between atoms: C_1  and  C_2
REMARK    2  A    between atoms: C_2  and  C_3
REMARK    3  A    between atoms: C_3  and  O_4
REMARK    4  A    between atoms: O_4  and  C_5
REMARK    5  A    between atoms: C_10  and  C_11
REMARK    6  A    between atoms: N_13  and  C_14
REMARK    7  A    between atoms: C_14  and  N_16
REMARK    8  A    between atoms: N_16  and  C_17
REMARK    9  A    between atoms: C_18  and  C_26
REMARK                            x       y       z     vdW  Elec       q    Type
REMARK                         _______ _______ _______ _____ _____    ______ ____
ROOT
ATOM      1  C   UNL     1       3.119  -1.109  -5.499  0.00  0.00    +0.141 C 
ATOM      2  S   UNL     1       2.989   0.587  -5.304  0.00  0.00    -0.018 S 
ENDROOT
BRANCH   1   5
ATOM      3  C   UNL     1       1.985  -1.427  -3.484  0.00  0.00    +0.253 C 
ATOM      4  O   UNL     1       1.893  -0.223  -3.345  0.00  0.00    -0.270 OA
ATOM      5  N   UNL     1       2.603  -1.936  -4.569  0.00  0.00    -0.263 N 
ATOM      6  H   UNL     1       2.676  -2.897  -4.679  0.00  0.00    +0.157 HD
BRANCH   3  12
ATOM      7  C   UNL     1       0.777  -1.808  -1.336  0.00  0.00    +0.133 A 
ATOM      8  C   UNL     1       0.253  -2.668  -0.382  0.00  0.00    +0.046 A 
ATOM      9  C   UNL     1       0.357  -4.034  -0.551  0.00  0.00    +0.004 A 
ATOM     10  C   UNL     1       0.993  -4.556  -1.666  0.00  0.00    +0.001 A 
ATOM     11  C   UNL     1       1.523  -3.717  -2.621  0.00  0.00    +0.017 A 
ATOM     12  C   UNL     1       1.420  -2.332  -2.465  0.00  0.00    +0.079 A 
BRANCH   7  13
ATOM     13  O   UNL     1       0.671  -0.465  -1.174  0.00  0.00    -0.491 OA
BRANCH  13  14
ATOM     14  C   UNL     1       0.002  -0.004   0.002  0.00  0.00    +0.229 C 
BRANCH  14  16
ATOM     15  C   UNL     1      -0.735   2.019   1.269  0.00  0.00    +0.007 C 
ATOM     16  C   UNL     1      -0.019   1.526   0.010  0.00  0.00    +0.038 C 
ENDBRANCH  14  16
ENDBRANCH  13  14
ENDBRANCH   7  13
ENDBRANCH   3  12
ENDBRANCH   1   5
BRANCH   1  17
ATOM     17  N   UNL     1       3.737  -1.617  -6.584  0.00  0.00    -0.291 N 
ATOM     18  H   UNL     1       3.810  -2.578  -6.694  0.00  0.00    +0.154 HD
BRANCH  17  19
ATOM     19  C   UNL     1       4.267  -0.768  -7.541  0.00  0.00    +0.084 A 
ATOM     20  C   UNL     1       4.938  -1.097  -8.711  0.00  0.00    +0.068 A 
ATOM     21  C   UNL     1       5.395  -0.005  -9.553  0.00  0.00    -0.023 A 
ATOM     22  C   UNL     1       5.120   1.233  -9.089  0.00  0.00    -0.004 A 
ATOM     23  S   UNL     1       4.261   0.965  -7.564  0.00  0.00    -0.077 S 
ATOM     24  C   UNL     1       5.471   2.538  -9.735  0.00  0.00    +0.043 C 
ATOM     25  C   UNL     1       6.522   2.273 -10.822  0.00  0.00    +0.005 C 
ATOM     26  C   UNL     1       6.058   1.091 -11.679  0.00  0.00    +0.005 C 
ATOM     27  C   UNL     1       6.139  -0.203 -10.868  0.00  0.00    +0.037 C 
BRANCH  20  28
ATOM     28  C   UNL     1       5.172  -2.495  -9.085  0.00  0.00    +0.244 C 
ATOM     29  O   UNL     1       4.353  -3.090  -9.761  0.00  0.00    -0.270 OA
ATOM     30  N   UNL     1       6.294  -3.122  -8.679  0.00  0.00    -0.325 N 
ATOM     31  H   UNL     1       6.946  -2.648  -8.140  0.00  0.00    +0.145 HD
ATOM     32  H   UNL     1       6.449  -4.047  -8.926  0.00  0.00    +0.145 HD
ENDBRANCH  20  28
ENDBRANCH  17  19
ENDBRANCH   1  17
TORSDOF 8
