REMARK  Name = ZINC22739236
REMARK  8 active torsions:
REMARK  status: ('A' for Active; 'I' for Inactive)
REMARK    1  A    between atoms: C_1  and  C_2
REMARK    2  A    between atoms: C_9  and  N_14
REMARK    3  A    between atoms: C_10  and  C_11
REMARK    4  A    between atoms: N_14  and  C_15
REMARK    5  A    between atoms: C_15  and  N_17
REMARK    6  A    between atoms: C_18  and  C_20
REMARK    7  A    between atoms: C_25  and  O_26
REMARK    8  A    between atoms: O_26  and  C_27
REMARK                            x       y       z     vdW  Elec       q    Type
REMARK                         _______ _______ _______ _____ _____    ______ ____
ROOT
ATOM      1  N   UNL     1       3.704  -2.270  -0.045  0.00  0.00    -0.291 N 
ATOM      2  H   UNL     1       2.762  -2.837  -0.039  0.00  0.00    +0.154 HD
ENDROOT
BRANCH   1  10
ATOM      3  C   UNL     1      10.746  -5.675  -0.035  0.00  0.00    +0.008 C 
ATOM      4  C   UNL     1       9.272  -5.393   0.266  0.00  0.00    -0.009 C 
ATOM      5  C   UNL     1       8.391  -6.327  -0.568  0.00  0.00    +0.008 C 
ATOM      6  C   UNL     1       6.938  -6.228  -0.098  0.00  0.00    +0.037 C 
ATOM      7  C   UNL     1       6.525  -4.762  -0.085  0.00  0.00    -0.023 A 
ATOM      8  C   UNL     1       7.451  -3.778  -0.088  0.00  0.00    -0.004 A 
ATOM      9  S   UNL     1       6.516  -2.276  -0.072  0.00  0.00    -0.077 S 
ATOM     10  C   UNL     1       4.916  -2.942  -0.061  0.00  0.00    +0.084 A 
ATOM     11  C   UNL     1       5.144  -4.311  -0.064  0.00  0.00    +0.068 A 
ATOM     12  C   UNL     1       8.940  -3.940  -0.101  0.00  0.00    +0.046 C 
BRANCH  11  13
ATOM     13  C   UNL     1       4.032  -5.266  -0.052  0.00  0.00    +0.244 C 
ATOM     14  O   UNL     1       3.559  -5.662  -1.101  0.00  0.00    -0.270 OA
ATOM     15  N   UNL     1       3.535  -5.706   1.121  0.00  0.00    -0.325 N 
ATOM     16  H   UNL     1       2.701  -6.423   1.130  0.00  0.00    +0.145 HD
ATOM     17  H   UNL     1       3.963  -5.348   2.069  0.00  0.00    +0.145 HD
ENDBRANCH  11  13
ENDBRANCH   1  10
BRANCH   1  18
ATOM     18  C   UNL     1       3.680  -0.923  -0.038  0.00  0.00    +0.141 C 
ATOM     19  S   UNL     1       5.147  -0.040  -0.047  0.00  0.00    -0.018 S 
BRANCH  18  20
ATOM     20  N   UNL     1       2.501  -0.270  -0.023  0.00  0.00    -0.263 N 
ATOM     21  C   UNL     1       2.477   1.078  -0.016  0.00  0.00    +0.253 C 
ATOM     22  O   UNL     1       3.519   1.704  -0.022  0.00  0.00    -0.270 OA
ATOM     23  H   UNL     1       1.559  -0.837  -0.017  0.00  0.00    +0.157 HD
BRANCH  21  24
ATOM     24  C   UNL     1       1.187   1.792   0.000  0.00  0.00    +0.080 A 
ATOM     25  C   UNL     1      -0.013   1.076   0.008  0.00  0.00    +0.032 A 
ATOM     26  C   UNL     1      -1.215   1.750   0.017  0.00  0.00    +0.019 A 
ATOM     27  C   UNL     1      -1.239   3.136   0.029  0.00  0.00    +0.019 A 
ATOM     28  C   UNL     1      -0.061   3.855   0.022  0.00  0.00    +0.047 A 
ATOM     29  C   UNL     1       1.158   3.193   0.008  0.00  0.00    +0.132 A 
ATOM     30 BR   UNL     1      -2.838   0.780   0.020  0.00  0.00    -0.050 Br
BRANCH  29  31
ATOM     31  O   UNL     1       2.316   3.899   0.001  0.00  0.00    -0.494 OA
ATOM     32  C   UNL     1       2.208   5.324   0.009  0.00  0.00    +0.277 C 
ENDBRANCH  29  31
ENDBRANCH  21  24
ENDBRANCH  18  20
ENDBRANCH   1  18
TORSDOF 6
