REMARK  Name = ZINC04325171
REMARK  7 active torsions:
REMARK  status: ('A' for Active; 'I' for Inactive)
REMARK    1  A    between atoms: C_1  and  C_2
REMARK    2  A    between atoms: C_5  and  S_17
REMARK    3  A    between atoms: C_7  and  N_8
REMARK    4  A    between atoms: N_11  and  C_12
REMARK    5  A    between atoms: S_17  and  N_20
REMARK    6  A    between atoms: N_20  and  C_21
REMARK    7  A    between atoms: N_20  and  C_22
REMARK                            x       y       z     vdW  Elec       q    Type
REMARK                         _______ _______ _______ _____ _____    ______ ____
ROOT
ATOM      1  C   UNL     1      -3.111   3.085   4.907  0.00  0.00    +0.045 C 
ATOM      2  C   UNL     1      -2.336   2.659   3.686  0.00  0.00    -0.029 A 
ATOM      3  C   UNL     1      -1.409   3.515   3.123  0.00  0.00    +0.007 A 
ATOM      4  C   UNL     1      -0.694   3.123   2.006  0.00  0.00    +0.029 A 
ATOM      5  C   UNL     1      -0.912   1.879   1.443  0.00  0.00    +0.107 A 
ATOM      6  C   UNL     1      -1.837   1.019   2.002  0.00  0.00    +0.052 A 
ATOM      7  C   UNL     1      -2.553   1.407   3.127  0.00  0.00    +0.040 A 
ENDROOT
BRANCH   7   8
ATOM      8  N   UNL     1      -3.492   0.539   3.695  0.00  0.00    -0.269 N 
ATOM      9  C   UNL     1      -4.219  -0.277   2.906  0.00  0.00    +0.308 C 
ATOM     10  O   UNL     1      -4.002  -0.319   1.710  0.00  0.00    -0.252 OA
ATOM     11  N   UNL     1      -5.185  -1.048   3.443  0.00  0.00    -0.264 N 
ATOM     12  H   UNL     1      -3.620   0.524   4.656  0.00  0.00    +0.156 HD
ATOM     13  H   UNL     1      -5.358  -1.015   4.396  0.00  0.00    +0.157 HD
BRANCH  11  14
ATOM     14  C   UNL     1      -5.939  -1.895   2.624  0.00  0.00    +0.073 A 
ATOM     15  C   UNL     1      -6.945  -2.747   2.967  0.00  0.00    +0.031 A 
ATOM     16  C   UNL     1      -7.555  -3.491   1.974  0.00  0.00    +0.009 A 
ATOM     17  C   UNL     1      -7.127  -3.359   0.695  0.00  0.00    +0.047 A 
ATOM     18  S   UNL     1      -5.828  -2.146   0.861  0.00  0.00    -0.082 S 
ENDBRANCH  11  14
ENDBRANCH   7   8
BRANCH   5  19
ATOM     19  S   UNL     1      -0.003   1.387   0.016  0.00  0.00    +0.060 S 
ATOM     20  O   UNL     1       0.006  -0.034   0.011  0.00  0.00    -0.153 OA
ATOM     21  O   UNL     1       1.192   2.156   0.011  0.00  0.00    -0.153 OA
BRANCH  19  22
ATOM     22  N   UNL     1      -0.877   1.860  -1.308  0.00  0.00    -0.183 NA
ATOM     23  C   UNL     1      -0.660   3.185  -1.894  0.00  0.00    +0.131 C 
ATOM     24  C   UNL     1      -1.867   0.953  -1.894  0.00  0.00    +0.131 C 
ENDBRANCH  19  22
ENDBRANCH   5  19
TORSDOF 4
