REMARK  Name = ZINC62722626
REMARK  3 active torsions:
REMARK  status: ('A' for Active; 'I' for Inactive)
REMARK    1  A    between atoms: C_4  and  N_16
REMARK    2  A    between atoms: C_7  and  O_15
REMARK    3  A    between atoms: C_10  and  S_11
REMARK                            x       y       z     vdW  Elec       q    Type
REMARK                         _______ _______ _______ _____ _____    ______ ____
ROOT
ATOM      1  C   UNL     1      -0.017   1.389   0.010  0.00  0.00    +0.030 A 
ATOM      2  C   UNL     1       1.141   2.105   0.003  0.00  0.00    +0.012 A 
ATOM      3  C   UNL     1       2.374   1.433  -0.013  0.00  0.00    +0.006 A 
ATOM      4  C   UNL     1       3.594   2.142  -0.020  0.00  0.00    +0.033 A 
ATOM      5  C   UNL     1       4.783   1.446  -0.035  0.00  0.00    +0.027 A 
ATOM      6  C   UNL     1       4.794   0.054  -0.043  0.00  0.00    +0.048 A 
ATOM      7  C   UNL     1       3.630  -0.659  -0.036  0.00  0.00    +0.125 A 
ATOM      8  C   UNL     1       2.393   0.017  -0.021  0.00  0.00    +0.027 A 
ATOM      9  C   UNL     1       1.179  -0.689  -0.013  0.00  0.00    +0.041 A 
ATOM     10  C   UNL     1       0.002  -0.004   0.002  0.00  0.00    +0.120 A 
ENDROOT
BRANCH  10  11
ATOM     11  S   UNL     1      -1.519  -0.893   0.012  0.00  0.00    +0.140 S 
ATOM     12  O   UNL     1      -1.269  -2.151   0.699  0.00  0.00    -0.140 OA
ATOM     13  O   UNL     1      -2.485  -0.069   0.723  0.00  0.00    -0.140 OA
ATOM     14  O   UNL     1      -1.898  -1.099  -1.377  0.00  0.00    -0.043 OA
ENDBRANCH  10  11
BRANCH   4  15
ATOM     15  N   UNL     1       3.596   3.539  -0.013  0.00  0.00    -0.357 N 
ATOM     16  H   UNL     1       2.757   4.025  -0.003  0.00  0.00    +0.142 HD
ATOM     17  H   UNL     1       4.437   4.023  -0.018  0.00  0.00    +0.142 HD
ENDBRANCH   4  15
BRANCH   7  18
ATOM     18  O   UNL     1       3.663  -2.018  -0.045  0.00  0.00    -0.506 OA
ATOM     19  H   UNL     1       3.681  -2.417   0.836  0.00  0.00    +0.292 HD
ENDBRANCH   7  18
TORSDOF 3
