REMARK  Name = ZINC12371925
REMARK  4 active torsions:
REMARK  status: ('A' for Active; 'I' for Inactive)
REMARK    1  A    between atoms: C_1  and  S_2
REMARK    2  A    between atoms: S_2  and  C_3
REMARK    3  A    between atoms: C_26  and  C_29
REMARK    4  A    between atoms: C_27  and  N_28
REMARK                            x       y       z     vdW  Elec       q    Type
REMARK                         _______ _______ _______ _____ _____    ______ ____
ROOT
ATOM      1  C   UNL     1       6.522  -4.867  -0.167  0.00  0.00    +0.160 A 
ATOM      2  N   UNL     1       5.363  -5.503  -0.268  0.00  0.00    -0.133 NA
ATOM      3  N   UNL     1       4.261  -4.889  -0.241  0.00  0.00    -0.124 NA
ATOM      4  C   UNL     1       4.194  -3.573  -0.122  0.00  0.00    +0.194 A 
ATOM      5  S   UNL     1       5.939  -3.180  -0.024  0.00  0.00    -0.024 S 
ATOM      6  N   UNL     1       3.084  -2.734  -0.079  0.00  0.00    -0.237 N 
ATOM      7  C   UNL     1       2.525  -2.288  -1.249  0.00  0.00    +0.027 C 
ATOM      8  C   UNL     1       1.731  -1.195  -1.259  0.00  0.00    +0.037 C 
ATOM      9  C   UNL     1       1.157  -0.729  -2.454  0.00  0.00    +0.162 C 
ATOM     10  O   UNL     1       0.437   0.249  -2.428  0.00  0.00    -0.292 OA
ATOM     11  C   UNL     1       1.419  -1.417  -3.767  0.00  0.00    +0.080 C 
ATOM     12  C   UNL     1       2.794  -2.092  -3.710  0.00  0.00    +0.014 C 
ATOM     13  C   UNL     1       2.814  -3.051  -2.518  0.00  0.00    +0.052 C 
ATOM     14  C   UNL     1       1.437  -0.444   0.013  0.00  0.00    +0.141 C 
ATOM     15  C   UNL     1       2.179   0.857   0.041  0.00  0.00    -0.002 A 
ATOM     16  C   UNL     1       3.528   1.137   0.037  0.00  0.00    +0.007 A 
ATOM     17  C   UNL     1       3.894   2.479   0.070  0.00  0.00    +0.000 A 
ATOM     18  C   UNL     1       2.946   3.482   0.104  0.00  0.00    +0.002 A 
ATOM     19  C   UNL     1       1.587   3.207   0.107  0.00  0.00    +0.023 A 
ATOM     20  C   UNL     1       1.207   1.864   0.075  0.00  0.00    +0.038 A 
ATOM     21  N   UNL     1      -0.060   1.310   0.071  0.00  0.00    -0.284 N 
ATOM     22  C   UNL     1      -0.023  -0.038   0.036  0.00  0.00    +0.238 C 
ATOM     23  O   UNL     1      -0.979  -0.785   0.024  0.00  0.00    -0.274 OA
ATOM     24  C   UNL     1       1.757  -1.266   1.226  0.00  0.00    +0.089 C 
ATOM     25  C   UNL     1       2.558  -2.360   1.137  0.00  0.00    +0.109 C 
ATOM     26  H   UNL     1      -0.879   1.829   0.087  0.00  0.00    +0.155 HD
ENDROOT
BRANCH  25  27
ATOM     27  N   UNL     1       2.845  -3.094   2.263  0.00  0.00    -0.345 N 
ATOM     28  H   UNL     1       2.544  -2.786   3.132  0.00  0.00    +0.144 HD
ATOM     29  H   UNL     1       3.348  -3.920   2.189  0.00  0.00    +0.144 HD
ENDBRANCH  25  27
BRANCH   1  31
ATOM     30  C   UNL     1       7.945  -7.292  -0.351  0.00  0.00    +0.092 C 
ATOM     31  S   UNL     1       8.166  -5.500  -0.170  0.00  0.00    -0.100 S 
ENDBRANCH   1  31
BRANCH  24  32
ATOM     32  C   UNL     1       1.210  -0.892   2.496  0.00  0.00    +0.100 C 
ATOM     33  N   UNL     1       0.777  -0.596   3.503  0.00  0.00    -0.191 NA
ENDBRANCH  24  32
TORSDOF 3
