REMARK  Name = ZINC47712020
REMARK  7 active torsions:
REMARK  status: ('A' for Active; 'I' for Inactive)
REMARK    1  A    between atoms: C_1  and  O_2
REMARK    2  A    between atoms: O_2  and  C_3
REMARK    3  A    between atoms: C_7  and  C_9
REMARK    4  A    between atoms: N_17  and  C_18
REMARK    5  A    between atoms: C_22  and  N_24
REMARK    6  A    between atoms: C_25  and  O_27
REMARK    7  A    between atoms: O_27  and  C_28
REMARK                            x       y       z     vdW  Elec       q    Type
REMARK                         _______ _______ _______ _____ _____    ______ ____
ROOT
ATOM      1  C   UNL     1      -2.571  -4.163   0.017  0.00  0.00    +0.108 C 
ATOM      2  C   UNL     1      -2.840  -4.688   1.443  0.00  0.00    +0.029 C 
ATOM      3  C   UNL     1      -3.787  -5.892   1.198  0.00  0.00    +0.021 C 
ATOM      4  C   UNL     1      -4.626  -5.388  -0.003  0.00  0.00    +0.110 C 
ATOM      5  N   UNL     1      -3.674  -4.627  -0.837  0.00  0.00    -0.278 N 
ATOM      6  C   UNL     1      -3.794  -4.394  -2.159  0.00  0.00    +0.307 C 
ATOM      7  O   UNL     1      -2.945  -3.749  -2.743  0.00  0.00    -0.252 OA
ATOM      8  N   UNL     1      -4.857  -4.875  -2.834  0.00  0.00    -0.269 N 
ATOM      9  H   UNL     1      -5.500  -5.444  -2.383  0.00  0.00    +0.156 HD
ENDROOT
BRANCH   1  14
ATOM     10  C   UNL     1      -1.270  -0.615   0.030  0.00  0.00    +0.120 A 
ATOM     11  C   UNL     1      -2.453   0.110   0.040  0.00  0.00    +0.045 A 
ATOM     12  C   UNL     1      -3.666  -0.549   0.041  0.00  0.00    +0.004 A 
ATOM     13  C   UNL     1      -3.703  -1.931   0.034  0.00  0.00    +0.006 A 
ATOM     14  C   UNL     1      -2.526  -2.657   0.025  0.00  0.00    -0.024 A 
ATOM     15  C   UNL     1      -1.310  -2.002   0.018  0.00  0.00    +0.051 A 
BRANCH  10  17
ATOM     16  C   UNL     1      -0.110   1.460   0.042  0.00  0.00    +0.277 C 
ATOM     17  O   UNL     1      -0.074   0.031   0.028  0.00  0.00    -0.495 OA
ENDBRANCH  10  17
ENDBRANCH   1  14
BRANCH   8  18
ATOM     18  C   UNL     1      -5.034  -4.552  -4.184  0.00  0.00    +0.037 A 
ATOM     19  C   UNL     1      -6.313  -4.365  -4.694  0.00  0.00    +0.023 A 
ATOM     20  C   UNL     1      -6.487  -4.047  -6.026  0.00  0.00    +0.004 A 
ATOM     21  C   UNL     1      -5.391  -3.914  -6.857  0.00  0.00    +0.023 A 
ATOM     22  C   UNL     1      -4.110  -4.099  -6.354  0.00  0.00    +0.038 A 
ATOM     23  C   UNL     1      -3.931  -4.413  -5.014  0.00  0.00    +0.046 A 
BRANCH  22  24
ATOM     24  N   UNL     1      -3.000  -3.963  -7.196  0.00  0.00    -0.251 N 
ATOM     25  C   UNL     1      -3.011  -3.045  -8.182  0.00  0.00    +0.404 C 
ATOM     26  O   UNL     1      -4.014  -2.392  -8.394  0.00  0.00    -0.226 OA
ATOM     27  H   UNL     1      -2.224  -4.531  -7.070  0.00  0.00    +0.158 HD
BRANCH  25  28
ATOM     28  O   UNL     1      -1.910  -2.850  -8.932  0.00  0.00    -0.453 OA
ATOM     29  C   UNL     1      -1.992  -1.860  -9.960  0.00  0.00    +0.282 C 
ENDBRANCH  25  28
ENDBRANCH  22  24
ENDBRANCH   8  18
TORSDOF 5
