REMARK  Name = ZINC38585257
REMARK  5 active torsions:
REMARK  status: ('A' for Active; 'I' for Inactive)
REMARK    1  A    between atoms: C_1  and  C_2
REMARK    2  A    between atoms: C_4  and  C_9
REMARK    3  A    between atoms: C_9  and  N_11
REMARK    4  A    between atoms: C_18  and  O_22
REMARK    5  A    between atoms: O_22  and  C_23
REMARK                            x       y       z     vdW  Elec       q    Type
REMARK                         _______ _______ _______ _____ _____    ______ ____
ROOT
ATOM      1  N   UNL     1       0.206  -0.399  -3.692  0.00  0.00    -0.156 NA
ATOM      2  C   UNL     1      -0.637  -0.468  -4.721  0.00  0.00    +0.164 A 
ATOM      3  N   UNL     1      -0.355  -0.312  -6.038  0.00  0.00    -0.335 N 
ATOM      4  H   UNL     1       0.554  -0.127  -6.323  0.00  0.00    +0.168 HD
ATOM      5  C   UNL     1      -1.367  -0.419  -6.976  0.00  0.00    +0.055 A 
ATOM      6  C   UNL     1      -1.298  -0.296  -8.370  0.00  0.00    +0.030 A 
ATOM      7  C   UNL     1      -2.426  -0.435  -9.144  0.00  0.00    +0.048 A 
ATOM      8  C   UNL     1      -3.663  -0.702  -8.569  0.00  0.00    +0.131 A 
ATOM      9  C   UNL     1      -3.756  -0.829  -7.190  0.00  0.00    +0.063 A 
ATOM     10  C   UNL     1      -2.626  -0.689  -6.420  0.00  0.00    +0.042 A 
ATOM     11  S   UNL     1      -2.289  -0.773  -4.680  0.00  0.00    -0.052 S 
ENDROOT
BRANCH   1  12
ATOM     12  C   UNL     1      -0.240  -0.583  -2.454  0.00  0.00    +0.254 C 
ATOM     13  O   UNL     1      -1.419  -0.814  -2.260  0.00  0.00    -0.272 OA
BRANCH  12  16
ATOM     14  C   UNL     1      -0.019   1.526   0.010  0.00  0.00    +0.027 C 
ATOM     15  C   UNL     1       0.002  -0.004   0.002  0.00  0.00    +0.090 C 
ATOM     16  C   UNL     1       0.713  -0.505  -1.290  0.00  0.00    +0.169 C 
ATOM     17  S   UNL     1       1.199  -2.185  -0.693  0.00  0.00    -0.051 S 
ATOM     18  N   UNL     1       1.405  -1.772   1.039  0.00  0.00    -0.199 NA
ATOM     19  N   UNL     1       0.723  -0.488   1.182  0.00  0.00    -0.243 NA
ATOM     20  H   UNL     1       0.986  -2.473   1.631  0.00  0.00    +0.154 HD
ATOM     21  H   UNL     1       1.351   0.217   1.537  0.00  0.00    +0.142 HD
ENDBRANCH  12  16
ENDBRANCH   1  12
BRANCH   8  22
ATOM     22  O   UNL     1      -4.769  -0.836  -9.348  0.00  0.00    -0.406 OA
BRANCH  22  23
ATOM     23  C   UNL     1      -4.590  -0.690 -10.759  0.00  0.00    +0.575 C 
ATOM     24  F   UNL     1      -3.688  -1.657 -11.217  0.00  0.00    -0.133 F 
ATOM     25  F   UNL     1      -5.820  -0.858 -11.404  0.00  0.00    -0.133 F 
ATOM     26  F   UNL     1      -4.088   0.585 -11.036  0.00  0.00    -0.133 F 
ENDBRANCH  22  23
ENDBRANCH   8  22
TORSDOF 4
