REMARK  Name = ZINC00906629
REMARK  11 active torsions:
REMARK  status: ('A' for Active; 'I' for Inactive)
REMARK    1  A    between atoms: C_1  and  C_2
REMARK    2  A    between atoms: C_2  and  C_3
REMARK    3  A    between atoms: C_3  and  C_4
REMARK    4  A    between atoms: C_4  and  C_6
REMARK    5  A    between atoms: C_4  and  N_14
REMARK    6  A    between atoms: N_8  and  C_9
REMARK    7  A    between atoms: N_14  and  C_15
REMARK    8  A    between atoms: C_22  and  C_24
REMARK    9  A    between atoms: C_25  and  N_38
REMARK   10  A    between atoms: C_26  and  C_29
REMARK   11  A    between atoms: N_31  and  C_32
REMARK                            x       y       z     vdW  Elec       q    Type
REMARK                         _______ _______ _______ _____ _____    ______ ____
ROOT
ATOM      1  N   UNL     1      -3.572   2.545   0.110  0.00  0.00    -0.255 N 
ATOM      2  C   UNL     1      -2.711   1.523  -0.065  0.00  0.00    +0.261 C 
ATOM      3  O   UNL     1      -3.091   0.375   0.078  0.00  0.00    -0.269 OA
ENDROOT
BRANCH   1   4
ATOM      4  C   UNL     1      -3.167   3.856  -0.164  0.00  0.00    +0.038 A 
ATOM      5  C   UNL     1      -3.512   4.453  -1.370  0.00  0.00    +0.026 A 
ATOM      6  C   UNL     1      -3.117   5.749  -1.635  0.00  0.00    +0.040 A 
ATOM      7  C   UNL     1      -2.367   6.449  -0.706  0.00  0.00    +0.124 A 
ATOM      8  C   UNL     1      -2.017   5.854   0.495  0.00  0.00    +0.040 A 
ATOM      9  C   UNL     1      -2.415   4.560   0.767  0.00  0.00    +0.026 A 
ATOM     10  F   UNL     1      -1.976   7.715  -0.970  0.00  0.00    -0.205 F 
ENDBRANCH   1   4
BRANCH   2  11
ATOM     11  C   UNL     1      -1.319   1.793  -0.428  0.00  0.00    +0.116 A 
ATOM     12  C   UNL     1      -0.253   0.903  -0.570  0.00  0.00    +0.076 A 
ATOM     13  C   UNL     1       0.932   1.542  -0.935  0.00  0.00    +0.156 A 
ATOM     14  N   UNL     1       0.935   2.847  -1.098  0.00  0.00    -0.203 NA
ATOM     15  S   UNL     1      -0.532   3.345  -0.806  0.00  0.00    +0.019 S 
BRANCH  13  16
ATOM     16  C   UNL     1       2.168   0.763  -1.136  0.00  0.00    +0.265 C 
ATOM     17  O   UNL     1       2.158  -0.443  -0.983  0.00  0.00    -0.268 OA
ATOM     18  N   UNL     1       3.308   1.389  -1.489  0.00  0.00    -0.307 N 
ATOM     19  H   UNL     1       3.316   2.351  -1.611  0.00  0.00    +0.149 HD
BRANCH  18  20
ATOM     20  C   UNL     1       4.536   0.615  -1.688  0.00  0.00    +0.073 C 
ATOM     21  C   UNL     1       5.236   0.413  -0.343  0.00  0.00    +0.022 C 
ATOM     22  C   UNL     1       6.518  -0.396  -0.551  0.00  0.00    +0.002 C 
ATOM     23  C   UNL     1       7.449   0.361  -1.502  0.00  0.00    +0.000 C 
ATOM     24  C   UNL     1       6.749   0.563  -2.847  0.00  0.00    +0.002 C 
ATOM     25  C   UNL     1       5.467   1.371  -2.639  0.00  0.00    +0.022 C 
ENDBRANCH  18  20
ENDBRANCH  13  16
BRANCH  12  26
ATOM     26  N   UNL     1      -0.361  -0.468  -0.374  0.00  0.00    -0.355 N 
ATOM     27  H   UNL     1       0.416  -1.037  -0.491  0.00  0.00    +0.142 HD
ATOM     28  H   UNL     1      -1.213  -0.856  -0.121  0.00  0.00    +0.142 HD
ENDBRANCH  12  26
ENDBRANCH   2  11
BRANCH   1  29
ATOM     29  C   UNL     1      -4.933   2.283   0.588  0.00  0.00    +0.167 C 
BRANCH  29  30
ATOM     30  C   UNL     1      -5.116   2.906   1.947  0.00  0.00    +0.234 C 
ATOM     31  O   UNL     1      -4.202   3.510   2.466  0.00  0.00    -0.274 OA
ATOM     32  N   UNL     1      -6.298   2.793   2.586  0.00  0.00    -0.311 N 
ATOM     33  H   UNL     1      -7.029   2.310   2.171  0.00  0.00    +0.149 HD
BRANCH  32  34
ATOM     34  C   UNL     1      -6.476   3.400   3.908  0.00  0.00    +0.073 C 
ATOM     35  C   UNL     1      -6.034   2.411   5.007  0.00  0.00    +0.022 C 
ATOM     36  C   UNL     1      -7.048   2.642   6.155  0.00  0.00    +0.002 C 
ATOM     37  C   UNL     1      -8.377   2.875   5.396  0.00  0.00    +0.002 C 
ATOM     38  C   UNL     1      -7.966   3.695   4.155  0.00  0.00    +0.022 C 
ENDBRANCH  32  34
ENDBRANCH  29  30
BRANCH  29  39
ATOM     39  C   UNL     1      -5.942   2.886  -0.391  0.00  0.00    +0.032 C 
BRANCH  39  41
ATOM     40  C   UNL     1      -6.892   2.730  -2.697  0.00  0.00    +0.004 C 
ATOM     41  C   UNL     1      -5.883   2.127  -1.718  0.00  0.00    -0.001 C 
ENDBRANCH  39  41
ENDBRANCH  29  39
ENDBRANCH   1  29
TORSDOF 10
