REMARK  Name = ZINC41069849
REMARK  7 active torsions:
REMARK  status: ('A' for Active; 'I' for Inactive)
REMARK    1  A    between atoms: C_6  and  S_7
REMARK    2  A    between atoms: S_7  and  N_10
REMARK    3  A    between atoms: N_10  and  C_11
REMARK    4  A    between atoms: N_10  and  C_14
REMARK    5  A    between atoms: C_11  and  C_12
REMARK    6  A    between atoms: C_14  and  C_15
REMARK    7  A    between atoms: N_17  and  N_18
REMARK                            x       y       z     vdW  Elec       q    Type
REMARK                         _______ _______ _______ _____ _____    ______ ____
ROOT
ATOM      1  C   UNL     1       1.225  -0.248   0.466  0.00  0.00    +0.048 A 
ATOM      2  C   UNL     1       2.457   0.389   0.386  0.00  0.00    +0.038 A 
ATOM      3  C   UNL     1       2.625   1.427  -0.510  0.00  0.00    +0.128 A 
ATOM      4  N   UNL     1       1.633   1.817  -1.286  0.00  0.00    -0.236 NA
ATOM      5  C   UNL     1       0.444   1.236  -1.240  0.00  0.00    +0.159 A 
ATOM      6  C   UNL     1       0.204   0.184  -0.362  0.00  0.00    +0.147 A 
ATOM      7  N   UNL     1      -0.573   1.680  -2.077  0.00  0.00    -0.266 N 
ATOM      8 BR   UNL     1       3.889  -0.159   1.494  0.00  0.00    -0.049 Br
ATOM      9  H   UNL     1      -1.428   1.221  -2.088  0.00  0.00    +0.167 HD
ENDROOT
BRANCH   6  10
ATOM     10  S   UNL     1      -1.379  -0.588  -0.304  0.00  0.00    +0.066 S 
ATOM     11  O   UNL     1      -1.326  -1.546   0.744  0.00  0.00    -0.153 OA
ATOM     12  O   UNL     1      -2.341   0.457  -0.333  0.00  0.00    -0.153 OA
BRANCH  10  13
ATOM     13  N   UNL     1      -1.561  -1.438  -1.714  0.00  0.00    -0.149 NA
BRANCH  13  14
ATOM     14  C   UNL     1      -1.197  -2.856  -1.766  0.00  0.00    +0.228 C 
BRANCH  14  15
ATOM     15  C   UNL     1      -2.394  -3.679  -1.528  0.00  0.00    +0.080 C 
ATOM     16  N   UNL     1      -3.318  -4.314  -1.345  0.00  0.00    -0.195 NA
ENDBRANCH  14  15
ENDBRANCH  13  14
BRANCH  13  17
ATOM     17  C   UNL     1      -2.086  -0.771  -2.908  0.00  0.00    +0.228 C 
BRANCH  17  18
ATOM     18  C   UNL     1      -0.966  -0.308  -3.744  0.00  0.00    +0.080 C 
ATOM     19  N   UNL     1      -0.102   0.050  -4.388  0.00  0.00    -0.195 NA
ENDBRANCH  17  18
ENDBRANCH  13  17
ENDBRANCH  10  13
ENDBRANCH   6  10
BRANCH   7  20
ATOM     20  N   UNL     1      -0.370   2.764  -2.884  0.00  0.00    -0.255 NA
ATOM     21  H   UNL     1       0.434   2.627  -3.478  0.00  0.00    +0.140 HD
ATOM     22  H   UNL     1      -1.193   2.967  -3.430  0.00  0.00    +0.140 HD
ENDBRANCH   7  20
TORSDOF 7
