REMARK  Name = ZINC36580275
REMARK  19 active torsions:
REMARK  status: ('A' for Active; 'I' for Inactive)
REMARK    1  A    between atoms: C_1  and  C_2
REMARK    2  A    between atoms: C_2  and  C_3
REMARK    3  A    between atoms: C_2  and  C_4
REMARK    4  A    between atoms: C_2  and  C_5
REMARK    5  A    between atoms: C_5  and  C_6
REMARK    6  A    between atoms: C_6  and  C_7
REMARK    7  A    between atoms: C_6  and  C_8
REMARK    8  A    between atoms: C_6  and  N_9
REMARK    9  A    between atoms: C_10  and  C_12
REMARK   10  A    between atoms: C_12  and  C_14
REMARK   11  A    between atoms: C_12  and  N_23
REMARK   12  A    between atoms: C_15  and  O_22
REMARK   13  A    between atoms: C_17  and  O_21
REMARK   14  A    between atoms: C_19  and  O_20
REMARK   15  A    between atoms: N_23  and  C_32
REMARK   16  A    between atoms: C_24  and  C_26
REMARK   17  A    between atoms: C_32  and  C_33
REMARK   18  A    between atoms: C_32  and  C_34
REMARK   19  A    between atoms: C_32  and  C_35
REMARK                            x       y       z     vdW  Elec       q    Type
REMARK                         _______ _______ _______ _____ _____    ______ ____
ROOT
ATOM      1  C   UNL     1       5.193  -1.240  -5.419  0.00  0.00    +0.200 C 
ENDROOT
BRANCH   1   2
ATOM      2  C   UNL     1       4.909  -0.047  -6.295  0.00  0.00    +0.065 A 
ATOM      3  C   UNL     1       5.904   0.889  -6.536  0.00  0.00    +0.129 A 
ATOM      4  C   UNL     1       5.643   1.987  -7.342  0.00  0.00    +0.091 A 
ATOM      5  C   UNL     1       4.387   2.149  -7.907  0.00  0.00    +0.124 A 
ATOM      6  C   UNL     1       3.392   1.213  -7.667  0.00  0.00    +0.091 A 
ATOM      7  C   UNL     1       3.655   0.113  -6.864  0.00  0.00    +0.129 A 
BRANCH   7   8
ATOM      8  O   UNL     1       2.682  -0.807  -6.632  0.00  0.00    -0.506 OA
ATOM      9  H   UNL     1       2.137  -0.616  -5.857  0.00  0.00    +0.292 HD
ENDBRANCH   7   8
BRANCH   5  10
ATOM     10  O   UNL     1       4.130   3.225  -8.696  0.00  0.00    -0.507 OA
ATOM     11  H   UNL     1       4.316   3.078  -9.634  0.00  0.00    +0.292 HD
ENDBRANCH   5  10
BRANCH   3  12
ATOM     12  O   UNL     1       7.135   0.730  -5.982  0.00  0.00    -0.506 OA
ATOM     13  H   UNL     1       7.726   0.163  -6.495  0.00  0.00    +0.292 HD
ENDBRANCH   3  12
ENDBRANCH   1   2
BRANCH   1  15
ATOM     14  N   UNL     1       5.366  -0.174  -3.193  0.00  0.00    -0.308 N 
ATOM     15  C   UNL     1       5.985  -0.801  -4.214  0.00  0.00    +0.239 C 
ATOM     16  O   UNL     1       7.178  -1.012  -4.162  0.00  0.00    -0.273 OA
ATOM     17  H   UNL     1       4.412  -0.006  -3.234  0.00  0.00    +0.149 HD
BRANCH  14  18
ATOM     18  C   UNL     1       6.136   0.252  -2.022  0.00  0.00    +0.030 C 
ATOM     19  C   UNL     1       7.288   1.153  -2.469  0.00  0.00    +0.031 C 
ATOM     20  C   UNL     1       6.697  -0.977  -1.305  0.00  0.00    +0.031 C 
BRANCH  18  21
ATOM     21  C   UNL     1       5.224   1.026  -1.067  0.00  0.00    +0.031 C 
BRANCH  21  23
ATOM     22  C   UNL     1       3.052   1.688  -2.109  0.00  0.00    +0.010 C 
ATOM     23  C   UNL     1       4.493   2.126  -1.840  0.00  0.00    -0.036 C 
ATOM     24  C   UNL     1       5.207   2.376  -3.170  0.00  0.00    +0.010 C 
ATOM     25  C   UNL     1       4.489   3.414  -1.013  0.00  0.00    +0.010 C 
ENDBRANCH  21  23
ENDBRANCH  18  21
ENDBRANCH  14  18
ENDBRANCH   1  15
BRANCH   1  26
ATOM     26  N   UNL     1       5.965  -2.229  -6.176  0.00  0.00    -0.280 N 
ATOM     27  C   UNL     1       6.696  -1.842  -7.239  0.00  0.00    +0.220 C 
ATOM     28  O   UNL     1       6.471  -0.778  -7.776  0.00  0.00    -0.275 OA
BRANCH  27  29
ATOM     29  C   UNL     1       7.794  -2.732  -7.762  0.00  0.00    +0.075 C 
ATOM     30  C   UNL     1       8.953  -2.754  -6.763  0.00  0.00    +0.013 C 
ATOM     31  C   UNL     1      10.067  -3.657  -7.293  0.00  0.00    +0.001 C 
ATOM     32  C   UNL     1      10.563  -3.119  -8.637  0.00  0.00    +0.000 C 
ATOM     33  C   UNL     1       9.405  -3.098  -9.637  0.00  0.00    +0.001 C 
ATOM     34  C   UNL     1       8.290  -2.194  -9.106  0.00  0.00    +0.013 C 
ENDBRANCH  27  29
BRANCH  26  35
ATOM     35  C   UNL     1       5.941  -3.638  -5.777  0.00  0.00    +0.030 C 
ATOM     36  C   UNL     1       4.515  -4.033  -5.385  0.00  0.00    +0.031 C 
ATOM     37  C   UNL     1       6.408  -4.507  -6.946  0.00  0.00    +0.031 C 
ATOM     38  C   UNL     1       6.873  -3.846  -4.582  0.00  0.00    +0.031 C 
ENDBRANCH  26  35
ENDBRANCH   1  26
TORSDOF 11
