REMARK  Name = ZINC48452049
REMARK  6 active torsions:
REMARK  status: ('A' for Active; 'I' for Inactive)
REMARK    1  A    between atoms: C_3  and  S_21
REMARK    2  A    between atoms: C_6  and  C_7
REMARK    3  A    between atoms: C_7  and  C_8
REMARK    4  A    between atoms: C_8  and  N_9
REMARK    5  A    between atoms: N_12  and  C_13
REMARK    6  A    between atoms: S_21  and  N_24
REMARK                            x       y       z     vdW  Elec       q    Type
REMARK                         _______ _______ _______ _____ _____    ______ ____
ROOT
ATOM      1  C   UNL     1      -1.733  -1.048  -1.430  0.00  0.00    +0.110 C 
ENDROOT
BRANCH   1   2
ATOM      2  N   UNL     1      -2.995  -1.792  -1.421  0.00  0.00    -0.299 N 
ATOM      3  C   UNL     1      -3.591  -2.122  -2.584  0.00  0.00    +0.304 C 
ATOM      4  O   UNL     1      -3.082  -1.802  -3.641  0.00  0.00    -0.253 OA
ATOM      5  N   UNL     1      -4.752  -2.807  -2.576  0.00  0.00    -0.268 N 
ATOM      6  H   UNL     1      -3.402  -2.047  -0.578  0.00  0.00    +0.150 HD
ATOM      7  H   UNL     1      -5.125  -3.119  -1.737  0.00  0.00    +0.156 HD
BRANCH   5   8
ATOM      8  C   UNL     1      -5.420  -3.068  -3.779  0.00  0.00    +0.049 A 
ATOM      9  C   UNL     1      -4.695  -3.311  -4.938  0.00  0.00    +0.027 A 
ATOM     10  C   UNL     1      -5.355  -3.569  -6.124  0.00  0.00    +0.040 A 
ATOM     11  C   UNL     1      -6.739  -3.584  -6.157  0.00  0.00    +0.125 A 
ATOM     12  C   UNL     1      -7.465  -3.342  -5.004  0.00  0.00    +0.055 A 
ATOM     13  C   UNL     1      -6.808  -3.089  -3.814  0.00  0.00    +0.042 A 
ATOM     14 BR   UNL     1      -7.799  -2.766  -2.236  0.00  0.00    -0.048 Br
ATOM     15  F   UNL     1      -7.383  -3.836  -7.319  0.00  0.00    -0.205 F 
ENDBRANCH   5   8
ENDBRANCH   1   2
BRANCH   1  16
ATOM     16  C   UNL     1      -1.275  -0.804   0.009  0.00  0.00    +0.054 C 
BRANCH  16  22
ATOM     17  C   UNL     1       0.011   1.344   0.014  0.00  0.00    +0.005 A 
ATOM     18  C   UNL     1       1.201   2.046   0.006  0.00  0.00    +0.029 A 
ATOM     19  C   UNL     1       2.405   1.367  -0.017  0.00  0.00    +0.105 A 
ATOM     20  C   UNL     1       2.417  -0.016  -0.031  0.00  0.00    +0.029 A 
ATOM     21  C   UNL     1       1.227  -0.718  -0.022  0.00  0.00    +0.005 A 
ATOM     22  C   UNL     1       0.023  -0.038  -0.001  0.00  0.00    -0.046 A 
BRANCH  19  23
ATOM     23  S   UNL     1       3.922   2.262  -0.028  0.00  0.00    +0.056 S 
ATOM     24  O   UNL     1       4.897   1.401  -0.601  0.00  0.00    -0.153 OA
ATOM     25  O   UNL     1       3.632   3.546  -0.562  0.00  0.00    -0.153 OA
BRANCH  23  26
ATOM     26  N   UNL     1       4.365   2.495   1.550  0.00  0.00    -0.204 NA
ATOM     27  H   UNL     1       5.304   2.556   1.787  0.00  0.00    +0.144 HD
ATOM     28  H   UNL     1       3.686   2.570   2.239  0.00  0.00    +0.144 HD
ENDBRANCH  23  26
ENDBRANCH  19  23
ENDBRANCH  16  22
ENDBRANCH   1  16
TORSDOF 6
