REMARK  Name = ZINC40516545
REMARK  5 active torsions:
REMARK  status: ('A' for Active; 'I' for Inactive)
REMARK    1  A    between atoms: C_1  and  C_2
REMARK    2  A    between atoms: C_3  and  N_18
REMARK    3  A    between atoms: C_4  and  C_17
REMARK    4  A    between atoms: C_10  and  S_13
REMARK    5  A    between atoms: S_13  and  N_16
REMARK                            x       y       z     vdW  Elec       q    Type
REMARK                         _______ _______ _______ _____ _____    ______ ____
ROOT
ATOM      1  C   UNL     1      -0.018   1.503   0.010  0.00  0.00    +0.069 C 
ATOM      2  C   UNL     1       0.002  -0.004   0.002  0.00  0.00    +0.081 A 
ATOM      3  C   UNL     1       0.008  -0.819  -1.141  0.00  0.00    +0.069 A 
ATOM      4  C   UNL     1       0.027  -2.112  -0.731  0.00  0.00    +0.064 A 
ATOM      5  N   UNL     1       0.034  -2.109   0.633  0.00  0.00    -0.217 N 
ATOM      6  N   UNL     1       0.023  -0.775   1.059  0.00  0.00    -0.168 NA
ATOM      7  C   UNL     1       0.052  -3.237   1.458  0.00  0.00    +0.154 A 
ATOM      8  C   UNL     1       0.561  -3.139   2.747  0.00  0.00    +0.050 A 
ATOM      9  C   UNL     1       0.574  -4.263   3.554  0.00  0.00    +0.034 A 
ATOM     10  C   UNL     1       0.074  -5.452   3.040  0.00  0.00    +0.123 A 
ATOM     11  C   UNL     1      -0.417  -5.477   1.750  0.00  0.00    +0.141 A 
ATOM     12  N   UNL     1      -0.421  -4.387   1.006  0.00  0.00    -0.234 NA
ATOM     13  C   UNL     1       0.040  -3.328  -1.619  0.00  0.00    +0.068 C 
ENDROOT
BRANCH  10  14
ATOM     14  S   UNL     1       0.066  -6.914   4.024  0.00  0.00    +0.057 S 
ATOM     15  O   UNL     1       0.049  -8.011   3.121  0.00  0.00    -0.153 OA
ATOM     16  O   UNL     1       1.082  -6.749   5.004  0.00  0.00    -0.153 OA
BRANCH  14  17
ATOM     17  N   UNL     1      -1.375  -6.948   4.839  0.00  0.00    -0.203 NA
ATOM     18  H   UNL     1      -2.020  -6.234   4.714  0.00  0.00    +0.144 HD
ATOM     19  H   UNL     1      -1.575  -7.682   5.441  0.00  0.00    +0.144 HD
ENDBRANCH  14  17
ENDBRANCH  10  14
BRANCH   3  20
ATOM     20  N   UNL     1      -0.005  -0.373  -2.476  0.00  0.00    -0.355 N 
ATOM     21  H   UNL     1      -0.018   0.577  -2.670  0.00  0.00    +0.142 HD
ATOM     22  H   UNL     1       0.001  -1.016  -3.202  0.00  0.00    +0.142 HD
ENDBRANCH   3  20
TORSDOF 3
