REMARK  Name = ZINC12503292
REMARK  7 active torsions:
REMARK  status: ('A' for Active; 'I' for Inactive)
REMARK    1  A    between atoms: C_4  and  N_7
REMARK    2  A    between atoms: N_10  and  N_11
REMARK    3  A    between atoms: N_11  and  C_12
REMARK    4  A    between atoms: C_12  and  N_14
REMARK    5  A    between atoms: C_15  and  C_17
REMARK    6  A    between atoms: C_17  and  O_18
REMARK    7  A    between atoms: O_18  and  C_19
REMARK                            x       y       z     vdW  Elec       q    Type
REMARK                         _______ _______ _______ _____ _____    ______ ____
ROOT
ATOM      1  N   UNL     1       3.158  10.292   0.002  0.00  0.00    -0.264 N 
ATOM      2  C   UNL     1       2.100   9.458   0.001  0.00  0.00    +0.256 C 
ATOM      3  O   UNL     1       0.974   9.908   0.005  0.00  0.00    -0.272 OA
ATOM      4  H   UNL     1       4.059   9.933  -0.002  0.00  0.00    +0.157 HD
ENDROOT
BRANCH   1   5
ATOM      5  C   UNL     1       2.965  11.626   0.008  0.00  0.00    +0.153 C 
ATOM      6  S   UNL     1       1.375  12.261   0.015  0.00  0.00    -0.017 S 
BRANCH   5   7
ATOM      7  N   UNL     1       4.024  12.460   0.009  0.00  0.00    -0.244 N 
ATOM      8  H   UNL     1       3.885  13.420   0.013  0.00  0.00    +0.172 HD
BRANCH   7  12
ATOM      9  N   UNL     1       6.191  14.109   0.011  0.00  0.00    -0.268 N 
ATOM     10  C   UNL     1       6.384  12.775   0.004  0.00  0.00    +0.320 C 
ATOM     11  O   UNL     1       7.513  12.324  -0.000  0.00  0.00    -0.251 OA
ATOM     12  N   UNL     1       5.325  11.941   0.003  0.00  0.00    -0.219 N 
ATOM     13  H   UNL     1       5.292  14.469  -0.054  0.00  0.00    +0.156 HD
ATOM     14  H   UNL     1       5.464  10.981  -0.001  0.00  0.00    +0.174 HD
BRANCH   9  18
ATOM     15  C   UNL     1       9.452  16.684   0.306  0.00  0.00    +0.000 A 
ATOM     16  C   UNL     1       9.571  15.498  -0.395  0.00  0.00    +0.002 A 
ATOM     17  C   UNL     1       8.492  14.642  -0.494  0.00  0.00    +0.023 A 
ATOM     18  C   UNL     1       7.286  14.974   0.110  0.00  0.00    +0.035 A 
ATOM     19  C   UNL     1       7.168  16.169   0.808  0.00  0.00    +0.023 A 
ATOM     20  C   UNL     1       8.253  17.017   0.909  0.00  0.00    +0.002 A 
ENDBRANCH   9  18
ENDBRANCH   7  12
ENDBRANCH   5   7
ENDBRANCH   1   5
BRANCH   2  21
ATOM     21  C   UNL     1       2.316   7.967  -0.006  0.00  0.00    +0.325 C 
BRANCH  21  22
ATOM     22  O   UNL     1       1.050   7.302  -0.006  0.00  0.00    -0.482 OA
BRANCH  22  23
ATOM     23  C   UNL     1       1.067   5.943  -0.012  0.00  0.00    +0.136 A 
ATOM     24  C   UNL     1       2.291   5.269  -0.018  0.00  0.00    +0.047 A 
ATOM     25  C   UNL     1       2.341   3.909  -0.024  0.00  0.00    +0.012 A 
ATOM     26  C   UNL     1       1.146   3.168  -0.024  0.00  0.00    -0.017 A 
ATOM     27  C   UNL     1       1.161   1.763  -0.031  0.00  0.00    +0.008 A 
ATOM     28  C   UNL     1      -0.014   1.077  -0.031  0.00  0.00    +0.001 A 
ATOM     29  C   UNL     1      -1.236   1.747  -0.031  0.00  0.00    +0.001 A 
ATOM     30  C   UNL     1      -1.290   3.107  -0.019  0.00  0.00    +0.010 A 
ATOM     31  C   UNL     1      -0.097   3.849  -0.018  0.00  0.00    -0.000 A 
ATOM     32  C   UNL     1      -0.113   5.255  -0.012  0.00  0.00    +0.067 A 
ATOM     33 BR   UNL     1      -1.758   6.186  -0.005  0.00  0.00    -0.046 Br
ENDBRANCH  22  23
ENDBRANCH  21  22
ENDBRANCH   2  21
TORSDOF 7
