REMARK  Name = ZINC48529358
REMARK  4 active torsions:
REMARK  status: ('A' for Active; 'I' for Inactive)
REMARK    1  A    between atoms: C_3  and  C_6
REMARK    2  A    between atoms: C_8  and  C_9
REMARK    3  A    between atoms: C_8  and  C_11
REMARK    4  A    between atoms: C_11  and  C_13
REMARK                            x       y       z     vdW  Elec       q    Type
REMARK                         _______ _______ _______ _____ _____    ______ ____
ROOT
ATOM      1  C   UNL     1       3.730   1.646  -0.259  0.00  0.00    +0.214 C 
ATOM      2  O   UNL     1       4.006   2.961  -0.125  0.00  0.00    -0.285 OA
ATOM      3  C   UNL     1       4.696   0.692   0.071  0.00  0.00    +0.146 C 
ENDROOT
BRANCH   1   6
ATOM      4  C   UNL     1       0.218   1.301  -1.394  0.00  0.00    +0.008 A 
ATOM      5  C   UNL     1       1.306   1.987  -0.913  0.00  0.00    +0.019 A 
ATOM      6  C   UNL     1       2.462   1.234  -0.732  0.00  0.00    +0.060 A 
ATOM      7  S   UNL     1       1.928  -0.386  -1.252  0.00  0.00    -0.093 S 
ATOM      8  C   UNL     1       0.337  -0.026  -1.653  0.00  0.00    +0.046 A 
ENDBRANCH   1   6
BRANCH   3   9
ATOM      9  C   UNL     1       6.023   1.106   0.417  0.00  0.00    +0.107 C 
ATOM     10  N   UNL     1       7.075   1.435   0.691  0.00  0.00    -0.191 NA
ENDBRANCH   3   9
BRANCH   3  11
ATOM     11  C   UNL     1       4.353  -0.731   0.062  0.00  0.00    +0.208 C 
ATOM     12  O   UNL     1       3.556  -1.171   0.873  0.00  0.00    -0.286 OA
BRANCH  11  13
ATOM     13  C   UNL     1       4.972  -1.633  -0.926  0.00  0.00    +0.031 A 
ATOM     14  C   UNL     1       4.742  -3.057  -0.897  0.00  0.00    +0.034 A 
ATOM     15  C   UNL     1       5.366  -3.770  -1.857  0.00  0.00    +0.056 A 
ATOM     16  S   UNL     1       6.246  -2.526  -2.776  0.00  0.00    -0.089 S 
ATOM     17  C   UNL     1       5.791  -1.154  -1.923  0.00  0.00    +0.058 A 
ATOM     18 BR   UNL     1       5.319  -5.637  -2.153  0.00  0.00    -0.043 Br
ENDBRANCH  11  13
ENDBRANCH   3  11
TORSDOF 4
