REMARK  Name = ZINC46575630
REMARK  8 active torsions:
REMARK  status: ('A' for Active; 'I' for Inactive)
REMARK    1  A    between atoms: C_1  and  C_2
REMARK    2  A    between atoms: N_4  and  C_5
REMARK    3  A    between atoms: C_9  and  N_11
REMARK    4  A    between atoms: N_11  and  C_12
REMARK    5  A    between atoms: C_12  and  N_14
REMARK    6  A    between atoms: N_14  and  N_15
REMARK    7  A    between atoms: C_16  and  C_18
REMARK    8  A    between atoms: C_19  and  C_20
REMARK                            x       y       z     vdW  Elec       q    Type
REMARK                         _______ _______ _______ _____ _____    ______ ____
ROOT
ATOM      1  N   UNL     1      -4.534  -6.843   0.574  0.00  0.00    -0.245 N 
ATOM      2  H   UNL     1      -4.495  -7.801   0.721  0.00  0.00    +0.172 HD
ENDROOT
BRANCH   1   3
ATOM      3  N   UNL     1      -5.774  -6.193   0.514  0.00  0.00    -0.232 N 
ATOM      4  C   UNL     1      -6.912  -6.899   0.661  0.00  0.00    +0.253 C 
ATOM      5  O   UNL     1      -6.863  -8.101   0.846  0.00  0.00    -0.269 OA
ATOM      6  H   UNL     1      -5.813  -5.235   0.367  0.00  0.00    +0.173 HD
BRANCH   4   7
ATOM      7  C   UNL     1      -8.206  -6.221   0.599  0.00  0.00    +0.069 C 
ATOM      8  C   UNL     1      -9.347  -6.928   0.746  0.00  0.00    +0.019 C 
BRANCH   8   9
ATOM      9  C   UNL     1     -10.647  -6.246   0.683  0.00  0.00    +0.045 A 
ATOM     10  C   UNL     1     -10.877  -5.095   1.448  0.00  0.00    +0.133 A 
ATOM     11  C   UNL     1     -12.103  -4.461   1.382  0.00  0.00    +0.039 A 
ATOM     12  C   UNL     1     -13.102  -4.960   0.565  0.00  0.00    +0.006 A 
ATOM     13  C   UNL     1     -12.884  -6.097  -0.193  0.00  0.00    +0.039 A 
ATOM     14  C   UNL     1     -11.663  -6.741  -0.146  0.00  0.00    +0.133 A 
ATOM     15  F   UNL     1     -11.451  -7.847  -0.892  0.00  0.00    -0.205 F 
ATOM     16  F   UNL     1      -9.904  -4.606   2.247  0.00  0.00    -0.205 F 
ENDBRANCH   8   9
ENDBRANCH   4   7
ENDBRANCH   1   3
BRANCH   1  17
ATOM     17  C   UNL     1      -3.395  -6.137   0.427  0.00  0.00    +0.151 C 
ATOM     18  S   UNL     1      -1.880  -6.931   0.500  0.00  0.00    -0.017 S 
BRANCH  17  19
ATOM     19  N   UNL     1      -3.449  -4.806   0.223  0.00  0.00    -0.296 N 
ATOM     20  H   UNL     1      -4.306  -4.368   0.100  0.00  0.00    +0.154 HD
BRANCH  19  25
ATOM     21  C   UNL     1      -0.940  -2.310  -0.790  0.00  0.00    +0.035 A 
ATOM     22  C   UNL     1       0.072  -2.573   0.126  0.00  0.00    +0.023 A 
ATOM     23  C   UNL     1      -0.088  -3.572   1.067  0.00  0.00    +0.004 A 
ATOM     24  C   UNL     1      -1.254  -4.313   1.100  0.00  0.00    +0.023 A 
ATOM     25  C   UNL     1      -2.269  -4.055   0.188  0.00  0.00    +0.034 A 
ATOM     26  C   UNL     1      -2.114  -3.049  -0.755  0.00  0.00    +0.046 A 
BRANCH  21  30
ATOM     27  C   UNL     1      -1.644   0.593  -3.080  0.00  0.00    +0.109 C 
ATOM     28  C   UNL     1      -1.837  -0.561  -2.130  0.00  0.00    +0.214 C 
ATOM     29  O   UNL     1      -2.945  -0.826  -1.715  0.00  0.00    -0.276 OA
ATOM     30  N   UNL     1      -0.777  -1.298  -1.742  0.00  0.00    -0.286 N 
ATOM     31  H   UNL     1       0.098  -1.128  -2.124  0.00  0.00    +0.155 HD
ENDBRANCH  21  30
ENDBRANCH  19  25
ENDBRANCH  17  19
ENDBRANCH   1  17
TORSDOF 7
