REMARK  Name = ZINC14843027
REMARK  10 active torsions:
REMARK  status: ('A' for Active; 'I' for Inactive)
REMARK    1  A    between atoms: C_1  and  C_2
REMARK    2  A    between atoms: C_2  and  C_3
REMARK    3  A    between atoms: C_2  and  C_4
REMARK    4  A    between atoms: C_7  and  N_10
REMARK    5  A    between atoms: N_10  and  C_11
REMARK    6  A    between atoms: C_11  and  N_13
REMARK    7  A    between atoms: N_13  and  N_14
REMARK    8  A    between atoms: C_15  and  C_17
REMARK    9  A    between atoms: C_20  and  N_23
REMARK   10  A    between atoms: C_24  and  C_26
REMARK                            x       y       z     vdW  Elec       q    Type
REMARK                         _______ _______ _______ _____ _____    ______ ____
ROOT
ATOM      1  N   UNL     1       2.030   4.273  -0.377  0.00  0.00    -0.231 N 
ATOM      2  C   UNL     1       0.757   3.941  -0.084  0.00  0.00    +0.260 C 
ATOM      3  O   UNL     1      -0.002   4.779   0.363  0.00  0.00    -0.269 OA
ATOM      4  H   UNL     1       2.636   3.604  -0.733  0.00  0.00    +0.173 HD
ENDROOT
BRANCH   2   5
ATOM      5  C   UNL     1       0.285   2.561  -0.305  0.00  0.00    +0.038 A 
ATOM      6  C   UNL     1      -1.035   2.216  -0.002  0.00  0.00    +0.015 A 
ATOM      7  C   UNL     1      -1.473   0.927  -0.210  0.00  0.00    +0.024 A 
ATOM      8  C   UNL     1      -0.603  -0.031  -0.722  0.00  0.00    +0.034 A 
ATOM      9  C   UNL     1       0.712   0.310  -1.025  0.00  0.00    +0.024 A 
ATOM     10  C   UNL     1       1.156   1.597  -0.820  0.00  0.00    +0.015 A 
BRANCH   8  11
ATOM     11  N   UNL     1      -1.049  -1.334  -0.931  0.00  0.00    -0.279 N 
ATOM     12  C   UNL     1      -2.320  -1.557  -1.319  0.00  0.00    +0.284 C 
ATOM     13  O   UNL     1      -3.049  -0.619  -1.584  0.00  0.00    -0.266 OA
ATOM     14  H   UNL     1      -0.445  -2.081  -0.797  0.00  0.00    +0.155 HD
BRANCH  12  15
ATOM     15  C   UNL     1      -2.825  -2.929  -1.423  0.00  0.00    +0.189 A 
ATOM     16  C   UNL     1      -4.086  -3.294  -1.802  0.00  0.00    +0.054 A 
ATOM     17  C   UNL     1      -4.129  -4.697  -1.760  0.00  0.00    +0.042 A 
ATOM     18  C   UNL     1      -2.909  -5.121  -1.363  0.00  0.00    +0.196 A 
ATOM     19  O   UNL     1      -2.125  -4.053  -1.166  0.00  0.00    -0.458 OA
ENDBRANCH  12  15
ENDBRANCH   8  11
ENDBRANCH   2   5
BRANCH   1  20
ATOM     20  N   UNL     1       2.479   5.583  -0.167  0.00  0.00    -0.245 N 
ATOM     21  H   UNL     1       1.874   6.252   0.190  0.00  0.00    +0.172 HD
BRANCH  20  22
ATOM     22  C   UNL     1       3.752   5.915  -0.460  0.00  0.00    +0.151 C 
ATOM     23  S   UNL     1       4.301   7.516  -0.203  0.00  0.00    -0.017 S 
BRANCH  22  24
ATOM     24  N   UNL     1       4.594   4.986  -0.955  0.00  0.00    -0.296 N 
ATOM     25  H   UNL     1       4.263   4.101  -1.177  0.00  0.00    +0.154 HD
BRANCH  24  29
ATOM     26  C   UNL     1       8.613   5.913  -1.535  0.00  0.00    -0.045 A 
ATOM     27  C   UNL     1       7.965   6.341  -0.391  0.00  0.00    +0.006 A 
ATOM     28  C   UNL     1       6.632   6.036  -0.196  0.00  0.00    +0.023 A 
ATOM     29  C   UNL     1       5.943   5.298  -1.150  0.00  0.00    +0.033 A 
ATOM     30  C   UNL     1       6.599   4.865  -2.295  0.00  0.00    +0.023 A 
ATOM     31  C   UNL     1       7.931   5.178  -2.487  0.00  0.00    +0.006 A 
BRANCH  26  33
ATOM     32  C   UNL     1      10.877   4.956  -1.865  0.00  0.00    +0.012 C 
ATOM     33  C   UNL     1      10.067   6.249  -1.745  0.00  0.00    +0.013 C 
ATOM     34  C   UNL     1      10.222   7.068  -3.028  0.00  0.00    +0.012 C 
ENDBRANCH  26  33
ENDBRANCH  24  29
ENDBRANCH  22  24
ENDBRANCH  20  22
ENDBRANCH   1  20
TORSDOF 8
