REMARK  Name = ZINC12566407
REMARK  6 active torsions:
REMARK  status: ('A' for Active; 'I' for Inactive)
REMARK    1  A    between atoms: C_1  and  C_2
REMARK    2  A    between atoms: C_5  and  C_8
REMARK    3  A    between atoms: C_8  and  C_10
REMARK    4  A    between atoms: C_8  and  N_20
REMARK    5  A    between atoms: N_14  and  C_15
REMARK    6  A    between atoms: C_28  and  C_30
REMARK                            x       y       z     vdW  Elec       q    Type
REMARK                         _______ _______ _______ _____ _____    ______ ____
ROOT
ATOM      1  C   UNL     1      -1.049  -0.540  -0.873  0.00  0.00    +0.174 C 
ENDROOT
BRANCH   1   2
ATOM      2  N   UNL     1       0.295  -0.434  -0.291  0.00  0.00    -0.313 N 
ATOM      3  C   UNL     1       0.228  -0.134   1.076  0.00  0.00    +0.034 A 
ATOM      4  C   UNL     1      -0.639  -0.615   2.056  0.00  0.00    +0.023 A 
ATOM      5  C   UNL     1      -0.523  -0.179   3.359  0.00  0.00    +0.002 A 
ATOM      6  C   UNL     1       0.459   0.731   3.705  0.00  0.00    +0.000 A 
ATOM      7  C   UNL     1       1.325   1.211   2.739  0.00  0.00    +0.005 A 
ATOM      8  C   UNL     1       1.209   0.783   1.433  0.00  0.00    -0.025 A 
ATOM      9  C   UNL     1       1.996   1.135   0.186  0.00  0.00    +0.059 C 
ATOM     10  C   UNL     1       1.077   0.634  -0.952  0.00  0.00    +0.076 C 
ATOM     11  C   UNL     1       1.904   0.065  -2.107  0.00  0.00    +0.028 C 
ENDBRANCH   1   2
BRANCH   1  16
ATOM     12  C   UNL     1      -4.496   3.445   1.499  0.00  0.00    +0.044 C 
ATOM     13  C   UNL     1      -3.597   2.406   0.880  0.00  0.00    -0.050 A 
ATOM     14  C   UNL     1      -4.112   1.176   0.515  0.00  0.00    +0.004 A 
ATOM     15  C   UNL     1      -3.287   0.222  -0.052  0.00  0.00    +0.006 A 
ATOM     16  C   UNL     1      -1.948   0.499  -0.255  0.00  0.00    -0.020 A 
ATOM     17  C   UNL     1      -1.433   1.728   0.115  0.00  0.00    +0.006 A 
ATOM     18  C   UNL     1      -2.258   2.683   0.677  0.00  0.00    +0.004 A 
ENDBRANCH   1  16
BRANCH   1  19
ATOM     19  C   UNL     1      -0.971  -0.315  -2.361  0.00  0.00    +0.176 A 
ATOM     20  N   UNL     1      -0.670   0.807  -2.969  0.00  0.00    -0.111 NA
ATOM     21  N   UNL     1      -0.708   0.594  -4.239  0.00  0.00    -0.023 NA
ATOM     22  N   UNL     1      -1.025  -0.634  -4.458  0.00  0.00    -0.044 NA
ATOM     23  N   UNL     1      -1.190  -1.229  -3.325  0.00  0.00    -0.224 N 
BRANCH  23  24
ATOM     24  C   UNL     1      -1.552  -2.635  -3.125  0.00  0.00    +0.111 C 
ATOM     25  C   UNL     1      -0.518  -3.550  -3.814  0.00  0.00    +0.027 C 
ATOM     26  C   UNL     1      -1.362  -4.721  -4.375  0.00  0.00    +0.002 C 
ATOM     27  C   UNL     1      -2.654  -4.012  -4.854  0.00  0.00    +0.002 C 
ATOM     28  C   UNL     1      -2.909  -2.929  -3.786  0.00  0.00    +0.027 C 
ENDBRANCH  23  24
ENDBRANCH   1  19
TORSDOF 4
