REMARK  Name = ZINC48636665
REMARK  5 active torsions:
REMARK  status: ('A' for Active; 'I' for Inactive)
REMARK    1  A    between atoms: C_4  and  N_18
REMARK    2  A    between atoms: C_6  and  N_7
REMARK    3  A    between atoms: C_8  and  C_10
REMARK    4  A    between atoms: N_12  and  C_13
REMARK    5  A    between atoms: C_19  and  C_21
REMARK                            x       y       z     vdW  Elec       q    Type
REMARK                         _______ _______ _______ _____ _____    ______ ____
ROOT
ATOM      1  C   UNL     1      -0.224   1.357  -0.069  0.00  0.00    +0.026 A 
ATOM      2  C   UNL     1       0.930   2.114  -0.142  0.00  0.00    +0.042 A 
ATOM      3  C   UNL     1       2.167   1.496  -0.151  0.00  0.00    +0.145 A 
ATOM      4  C   UNL     1       2.253   0.109  -0.087  0.00  0.00    +0.071 A 
ATOM      5  C   UNL     1       1.097  -0.653  -0.013  0.00  0.00    +0.049 A 
ATOM      6  C   UNL     1      -0.144  -0.029  -0.004  0.00  0.00    +0.036 A 
ATOM      7  F   UNL     1       3.293   2.240  -0.223  0.00  0.00    -0.204 F 
ENDROOT
BRANCH   6   8
ATOM      8  N   UNL     1      -1.311  -0.794   0.070  0.00  0.00    -0.278 N 
ATOM      9  C   UNL     1      -2.422  -0.394  -0.581  0.00  0.00    +0.303 C 
ATOM     10  O   UNL     1      -2.382   0.576  -1.310  0.00  0.00    -0.265 OA
ATOM     11  H   UNL     1      -1.322  -1.613   0.590  0.00  0.00    +0.155 HD
BRANCH   9  12
ATOM     12  C   UNL     1      -3.701  -1.144  -0.406  0.00  0.00    +0.300 C 
ATOM     13  O   UNL     1      -3.741  -2.114   0.323  0.00  0.00    -0.265 OA
ATOM     14  N   UNL     1      -4.812  -0.744  -1.056  0.00  0.00    -0.305 N 
ATOM     15  H   UNL     1      -4.780   0.032  -1.639  0.00  0.00    +0.149 HD
BRANCH  14  16
ATOM     16  C   UNL     1      -6.067  -1.479  -0.884  0.00  0.00    +0.073 C 
ATOM     17  C   UNL     1      -6.841  -0.926   0.330  0.00  0.00    +0.022 C 
ATOM     18  C   UNL     1      -7.836   0.090  -0.286  0.00  0.00    +0.002 C 
ATOM     19  C   UNL     1      -8.262  -0.605  -1.603  0.00  0.00    +0.002 C 
ATOM     20  C   UNL     1      -6.970  -1.275  -2.113  0.00  0.00    +0.022 C 
ENDBRANCH  14  16
ENDBRANCH   9  12
ENDBRANCH   6   8
BRANCH   4  21
ATOM     21  N   UNL     1       3.505  -0.517  -0.097  0.00  0.00    -0.283 N 
ATOM     22  C   UNL     1       3.622  -1.784  -0.542  0.00  0.00    +0.220 C 
ATOM     23  O   UNL     1       2.632  -2.407  -0.864  0.00  0.00    -0.275 OA
ATOM     24  H   UNL     1       4.289  -0.039   0.216  0.00  0.00    +0.155 HD
BRANCH  22  25
ATOM     25  C   UNL     1       4.982  -2.426  -0.640  0.00  0.00    +0.075 C 
ATOM     26  C   UNL     1       5.861  -1.616  -1.595  0.00  0.00    +0.013 C 
ATOM     27  C   UNL     1       7.241  -2.268  -1.695  0.00  0.00    +0.001 C 
ATOM     28  C   UNL     1       7.094  -3.696  -2.224  0.00  0.00    +0.000 C 
ATOM     29  C   UNL     1       6.215  -4.506  -1.269  0.00  0.00    +0.001 C 
ATOM     30  C   UNL     1       4.835  -3.854  -1.169  0.00  0.00    +0.013 C 
ENDBRANCH  22  25
ENDBRANCH   4  21
TORSDOF 5
