REMARK  Name = ZINC15730465
REMARK  7 active torsions:
REMARK  status: ('A' for Active; 'I' for Inactive)
REMARK    1  A    between atoms: C_1  and  C_2
REMARK    2  A    between atoms: C_2  and  C_3
REMARK    3  A    between atoms: C_7  and  C_27
REMARK    4  A    between atoms: C_8  and  N_9
REMARK    5  A    between atoms: N_9  and  S_10
REMARK    6  A    between atoms: S_10  and  C_13
REMARK    7  A    between atoms: C_23  and  C_26
REMARK                            x       y       z     vdW  Elec       q    Type
REMARK                         _______ _______ _______ _____ _____    ______ ____
ROOT
ATOM      1  S   UNL     1      -2.646   0.079  -0.402  0.00  0.00    +0.072 S 
ATOM      2  O   UNL     1      -3.954   0.600  -0.215  0.00  0.00    -0.150 OA
ATOM      3  O   UNL     1      -2.195  -0.417  -1.655  0.00  0.00    -0.150 OA
ENDROOT
BRANCH   1   4
ATOM      4  C   UNL     1      -2.457  -1.235   0.757  0.00  0.00    +0.110 A 
ATOM      5  C   UNL     1      -3.266  -1.285   1.878  0.00  0.00    +0.030 A 
ATOM      6  C   UNL     1      -3.125  -2.312   2.794  0.00  0.00    +0.018 A 
ATOM      7  C   UNL     1      -2.168  -3.292   2.583  0.00  0.00    +0.029 A 
ATOM      8  C   UNL     1      -1.355  -3.243   1.453  0.00  0.00    +0.049 A 
ATOM      9  C   UNL     1      -1.504  -2.214   0.538  0.00  0.00    +0.053 A 
ATOM     10  N   UNL     1      -0.394  -4.246   1.250  0.00  0.00    -0.284 N 
ATOM     11  C   UNL     1      -0.741  -5.537   1.324  0.00  0.00    +0.218 C 
ATOM     12  O   UNL     1       0.126  -6.386   1.341  0.00  0.00    -0.275 OA
ATOM     13  C   UNL     1      -2.180  -5.955   1.385  0.00  0.00    +0.110 C 
ATOM     14  C   UNL     1      -2.651  -6.050   2.847  0.00  0.00    +0.057 C 
ATOM     15  S   UNL     1      -1.964  -4.612   3.735  0.00  0.00    -0.120 S 
ATOM     16  C   UNL     1      -4.179  -6.015   2.904  0.00  0.00    +0.020 C 
ATOM     17  H   UNL     1       0.525  -4.003   1.057  0.00  0.00    +0.155 HD
ENDBRANCH   1   4
BRANCH   1  18
ATOM     18  N   UNL     1      -1.591   1.277   0.040  0.00  0.00    -0.216 N 
ATOM     19  H   UNL     1      -1.930   2.125   0.366  0.00  0.00    +0.174 HD
BRANCH  18  25
ATOM     20  C   UNL     1       0.407   1.079  -1.299  0.00  0.00    -0.025 A 
ATOM     21  C   UNL     1       1.768   0.864  -1.391  0.00  0.00    +0.005 A 
ATOM     22  C   UNL     1       2.513   0.636  -0.249  0.00  0.00    +0.001 A 
ATOM     23  C   UNL     1       1.898   0.622   0.990  0.00  0.00    +0.005 A 
ATOM     24  C   UNL     1       0.537   0.836   1.090  0.00  0.00    -0.028 A 
ATOM     25  C   UNL     1      -0.214   1.065  -0.056  0.00  0.00    +0.054 A 
ATOM     26  C   UNL     1      -0.132   0.820   2.440  0.00  0.00    +0.046 C 
BRANCH  20  28
ATOM     27  C   UNL     1      -0.050   2.703  -3.116  0.00  0.00    +0.009 C 
ATOM     28  C   UNL     1      -0.404   1.329  -2.544  0.00  0.00    +0.033 C 
ENDBRANCH  20  28
ENDBRANCH  18  25
ENDBRANCH   1  18
TORSDOF 4
