REMARK  Name = ZINC04741629
REMARK  6 active torsions:
REMARK  status: ('A' for Active; 'I' for Inactive)
REMARK    1  A    between atoms: C_1  and  C_2
REMARK    2  A    between atoms: C_2  and  N_3
REMARK    3  A    between atoms: N_3  and  C_4
REMARK    4  A    between atoms: N_3  and  C_6
REMARK    5  A    between atoms: C_4  and  C_5
REMARK    6  A    between atoms: C_9  and  C_12
REMARK                            x       y       z     vdW  Elec       q    Type
REMARK                         _______ _______ _______ _____ _____    ______ ____
ROOT
ATOM      1  C   UNL     1       4.845   2.190  -0.026  0.00  0.00    +0.217 C 
ATOM      2  C   UNL     1       4.867   4.614  -0.293  0.00  0.00    +0.159 C 
ATOM      3  N   UNL     1       3.519   4.741  -0.017  0.00  0.00    -0.259 N 
ATOM      4  C   UNL     1       2.770   3.571  -0.007  0.00  0.00    +0.205 A 
ATOM      5  N   UNL     1       3.391   2.344  -0.018  0.00  0.00    -0.287 N 
ATOM      6  C   UNL     1       2.406   1.384  -0.014  0.00  0.00    +0.072 A 
ATOM      7  C   UNL     1       2.403  -0.004  -0.022  0.00  0.00    +0.028 A 
ATOM      8  C   UNL     1       1.207  -0.690  -0.014  0.00  0.00    +0.002 A 
ATOM      9  C   UNL     1       0.002  -0.004   0.002  0.00  0.00    +0.002 A 
ATOM     10  C   UNL     1      -0.017   1.372   0.010  0.00  0.00    +0.030 A 
ATOM     11  C   UNL     1       1.185   2.084   0.002  0.00  0.00    +0.091 A 
ATOM     12  N   UNL     1       1.481   3.413   0.007  0.00  0.00    -0.214 NA
ATOM     13  N   UNL     1       5.592   5.751  -0.564  0.00  0.00    -0.332 N 
ATOM     14  H   UNL     1       3.115   5.605   0.162  0.00  0.00    +0.158 HD
ATOM     15  H   UNL     1       6.539   5.687  -0.761  0.00  0.00    +0.145 HD
ATOM     16  H   UNL     1       5.155   6.617  -0.558  0.00  0.00    +0.145 HD
ATOM     17  N   UNL     1       5.578   3.479  -0.331  0.00  0.00    -0.337 N 
ATOM     18  H   UNL     1       6.579   3.483  -0.559  0.00  0.00    +0.164 HD
ENDROOT
BRANCH   1  22
ATOM     19  C   UNL     1       6.146   0.774   3.791  0.00  0.00    +0.030 A 
ATOM     20  C   UNL     1       6.011  -0.111   2.729  0.00  0.00    +0.023 A 
ATOM     21  C   UNL     1       5.591   0.350   1.497  0.00  0.00    +0.009 A 
ATOM     22  C   UNL     1       5.304   1.691   1.320  0.00  0.00    -0.005 A 
ATOM     23  C   UNL     1       5.442   2.576   2.373  0.00  0.00    +0.009 A 
ATOM     24  C   UNL     1       5.857   2.120   3.609  0.00  0.00    +0.023 A 
BRANCH  19  25
ATOM     25  N   UNL     1       6.572   0.311   5.038  0.00  0.00    -0.330 N 
BRANCH  25  27
ATOM     26  C   UNL     1       5.392   1.327   6.924  0.00  0.00    +0.024 C 
ATOM     27  C   UNL     1       6.713   1.246   6.157  0.00  0.00    +0.102 C 
ENDBRANCH  25  27
BRANCH  25  28
ATOM     28  C   UNL     1       6.877  -1.109   5.227  0.00  0.00    +0.102 C 
ATOM     29  C   UNL     1       8.354  -1.360   4.916  0.00  0.00    +0.024 C 
ENDBRANCH  25  28
ENDBRANCH  19  25
ENDBRANCH   1  22
TORSDOF 4
