REMARK  Name = ZINC62466829
REMARK  4 active torsions:
REMARK  status: ('A' for Active; 'I' for Inactive)
REMARK    1  A    between atoms: C_3  and  N_17
REMARK    2  A    between atoms: C_6  and  C_7
REMARK    3  A    between atoms: N_12  and  C_13
REMARK    4  A    between atoms: C_13  and  C_14
REMARK                            x       y       z     vdW  Elec       q    Type
REMARK                         _______ _______ _______ _____ _____    ______ ____
ROOT
ATOM      1  C   UNL     1      -1.269  -0.761  -0.012  0.00  0.00    +0.060 A 
ATOM      2  C   UNL     1      -2.464  -0.142   0.099  0.00  0.00    +0.076 A 
ATOM      3  S   UNL     1      -3.594  -1.521   0.086  0.00  0.00    -0.034 S 
ATOM      4  C   UNL     1      -2.477  -2.769  -0.058  0.00  0.00    +0.291 A 
ATOM      5  O   UNL     1      -2.688  -3.967  -0.117  0.00  0.00    -0.259 OA
ATOM      6  N   UNL     1      -1.291  -2.128  -0.099  0.00  0.00    -0.293 N 
ENDROOT
BRANCH   1  12
ATOM      7  C   UNL     1       0.151   1.068  -0.930  0.00  0.00    +0.012 A 
ATOM      8  C   UNL     1       1.335   1.774  -0.958  0.00  0.00    +0.023 A 
ATOM      9  C   UNL     1       2.376   1.424  -0.106  0.00  0.00    +0.025 A 
ATOM     10  C   UNL     1       2.227   0.360   0.776  0.00  0.00    +0.023 A 
ATOM     11  C   UNL     1       1.046  -0.351   0.809  0.00  0.00    +0.012 A 
ATOM     12  C   UNL     1      -0.001  -0.001  -0.045  0.00  0.00    -0.001 A 
BRANCH   9  13
ATOM     13  N   UNL     1       3.574   2.142  -0.137  0.00  0.00    -0.358 N 
ATOM     14  H   UNL     1       3.678   2.884  -0.753  0.00  0.00    +0.142 HD
ATOM     15  H   UNL     1       4.301   1.898   0.457  0.00  0.00    +0.142 HD
ENDBRANCH   9  13
ENDBRANCH   1  12
BRANCH   6  16
ATOM     16  C   UNL     1      -0.043  -2.884  -0.228  0.00  0.00    +0.221 C 
BRANCH  16  17
ATOM     17  C   UNL     1       0.398  -3.362   1.131  0.00  0.00    +0.230 C 
ATOM     18  O   UNL     1      -0.265  -3.098   2.112  0.00  0.00    -0.274 OA
ATOM     19  N   UNL     1       1.530  -4.084   1.258  0.00  0.00    -0.328 N 
ATOM     20  H   UNL     1       2.060  -4.295   0.473  0.00  0.00    +0.145 HD
ATOM     21  H   UNL     1       1.813  -4.392   2.132  0.00  0.00    +0.145 HD
ENDBRANCH  16  17
ENDBRANCH   6  16
TORSDOF 4
