REMARK  Name = ZINC20681769
REMARK  9 active torsions:
REMARK  status: ('A' for Active; 'I' for Inactive)
REMARK    1  A    between atoms: C_1  and  C_2
REMARK    2  A    between atoms: C_2  and  C_3
REMARK    3  A    between atoms: C_2  and  C_4
REMARK    4  A    between atoms: C_2  and  N_5
REMARK    5  A    between atoms: N_5  and  S_6
REMARK    6  A    between atoms: S_6  and  C_9
REMARK    7  A    between atoms: C_22  and  C_25
REMARK    8  A    between atoms: C_28  and  O_32
REMARK    9  A    between atoms: C_30  and  O_31
REMARK                            x       y       z     vdW  Elec       q    Type
REMARK                         _______ _______ _______ _____ _____    ______ ____
ROOT
ATOM      1  C   UNL     1      -3.052   3.656  -1.143  0.00  0.00    +0.106 A 
ATOM      2  C   UNL     1      -3.779   3.580   0.032  0.00  0.00    +0.030 A 
ATOM      3  C   UNL     1      -3.292   2.841   1.091  0.00  0.00    +0.025 A 
ATOM      4  C   UNL     1      -2.078   2.176   0.975  0.00  0.00    +0.031 A 
ATOM      5  C   UNL     1      -1.346   2.249  -0.200  0.00  0.00    -0.018 A 
ATOM      6  C   UNL     1      -1.846   2.996  -1.258  0.00  0.00    +0.034 A 
ATOM      7  C   UNL     1      -0.035   1.550  -0.371  0.00  0.00    +0.049 C 
ATOM      8  C   UNL     1       1.121   2.519  -0.299  0.00  0.00    -0.023 C 
ATOM      9  C   UNL     1       2.144   1.961   0.301  0.00  0.00    -0.030 C 
ATOM     10  C   UNL     1       1.811   0.539   0.706  0.00  0.00    +0.033 C 
ATOM     11  C   UNL     1       0.254   0.532   0.749  0.00  0.00    +0.029 C 
ATOM     12  C   UNL     1      -0.166   1.112   2.103  0.00  0.00    +0.108 C 
ATOM     13  N   UNL     1      -1.596   1.433   2.058  0.00  0.00    -0.336 N 
ATOM     14  H   UNL     1      -2.262   1.091   2.865  0.00  0.00    +0.147 HD
ENDROOT
BRANCH  12  15
ATOM     15  C   UNL     1       0.624   2.365   2.382  0.00  0.00    +0.015 A 
ATOM     16  C   UNL     1       0.198   3.577   1.873  0.00  0.00    +0.012 A 
ATOM     17  C   UNL     1       0.920   4.728   2.128  0.00  0.00    +0.046 A 
ATOM     18  C   UNL     1       2.075   4.668   2.895  0.00  0.00    +0.120 A 
ATOM     19  C   UNL     1       2.505   3.453   3.406  0.00  0.00    +0.091 A 
ATOM     20  C   UNL     1       1.778   2.300   3.149  0.00  0.00    +0.125 A 
BRANCH  20  21
ATOM     21  O   UNL     1       2.196   1.107   3.649  0.00  0.00    -0.506 OA
ATOM     22  H   UNL     1       3.112   1.056   4.257  0.00  0.00    +0.292 HD
ENDBRANCH  20  21
BRANCH  18  23
ATOM     23  O   UNL     1       2.785   5.800   3.145  0.00  0.00    -0.507 OA
ATOM     24  H   UNL     1       3.700   5.752   3.753  0.00  0.00    +0.292 HD
ENDBRANCH  18  23
ENDBRANCH  12  15
BRANCH   1  25
ATOM     25  S   UNL     1      -3.670   4.598  -2.497  0.00  0.00    +0.059 S 
ATOM     26  O   UNL     1      -3.306   3.898  -3.679  0.00  0.00    -0.153 OA
ATOM     27  O   UNL     1      -5.019   4.919  -2.187  0.00  0.00    -0.153 OA
BRANCH  25  28
ATOM     28  N   UNL     1      -2.836   6.029  -2.519  0.00  0.00    -0.185 NA
ATOM     29  H   UNL     1      -2.288   6.318  -3.428  0.00  0.00    +0.149 HD
BRANCH  28  31
ATOM     30  C   UNL     1      -2.767   6.295  -0.089  0.00  0.00    +0.029 C 
ATOM     31  C   UNL     1      -3.007   6.993  -1.429  0.00  0.00    +0.032 C 
ATOM     32  C   UNL     1      -2.002   8.135  -1.596  0.00  0.00    +0.029 C 
ATOM     33  C   UNL     1      -4.429   7.556  -1.464  0.00  0.00    +0.029 C 
ENDBRANCH  28  31
ENDBRANCH  25  28
ENDBRANCH   1  25
TORSDOF 6
