REMARK  Name = ZINC06364960
REMARK  6 active torsions:
REMARK  status: ('A' for Active; 'I' for Inactive)
REMARK    1  A    between atoms: C_1  and  C_2
REMARK    2  A    between atoms: C_2  and  C_4
REMARK    3  A    between atoms: C_2  and  N_7
REMARK    4  A    between atoms: C_4  and  C_5
REMARK    5  A    between atoms: C_4  and  C_6
REMARK    6  A    between atoms: C_8  and  C_10
REMARK                            x       y       z     vdW  Elec       q    Type
REMARK                         _______ _______ _______ _____ _____    ______ ____
ROOT
ATOM      1  C   UNL     1      -3.429  -1.151  -1.134  0.00  0.00    +0.153 C 
ATOM      2  C   UNL     1      -4.223  -1.339  -2.209  0.00  0.00    +0.227 C 
ATOM      3  O   UNL     1      -5.406  -1.817  -1.782  0.00  0.00    -0.443 OA
ATOM      4  C   UNL     1      -5.375  -1.936  -0.446  0.00  0.00    +0.239 C 
ATOM      5  C   UNL     1      -6.427  -2.402   0.363  0.00  0.00    +0.164 C 
ATOM      6  C   UNL     1      -7.696  -2.834  -0.066  0.00  0.00    +0.149 C 
ATOM      7  N   UNL     1      -8.365  -3.185   1.025  0.00  0.00    -0.219 NA
ATOM      8  C   UNL     1      -7.590  -2.996   2.088  0.00  0.00    +0.224 C 
ATOM      9  N   UNL     1      -6.421  -2.533   1.716  0.00  0.00    -0.227 NA
ATOM     10  N   UNL     1      -8.159  -2.884  -1.379  0.00  0.00    -0.341 N 
ATOM     11  N   UNL     1      -4.163  -1.537  -0.011  0.00  0.00    -0.171 NA
ATOM     12  H   UNL     1      -7.583  -2.601  -2.107  0.00  0.00    +0.144 HD
ATOM     13  H   UNL     1      -9.057  -3.200  -1.565  0.00  0.00    +0.144 HD
ENDROOT
BRANCH   1  15
ATOM     14  N   UNL     1      -1.372  -0.511   0.012  0.00  0.00    -0.307 N 
ATOM     15  C   UNL     1      -2.051  -0.643  -1.145  0.00  0.00    +0.263 C 
ATOM     16  O   UNL     1      -1.522  -0.340  -2.198  0.00  0.00    -0.269 OA
ATOM     17  H   UNL     1      -1.794  -0.752   0.852  0.00  0.00    +0.149 HD
BRANCH  14  19
ATOM     18  C   UNL     1      -0.019   1.526   0.010  0.00  0.00    +0.028 C 
ATOM     19  C   UNL     1       0.002  -0.004   0.002  0.00  0.00    +0.073 C 
BRANCH  19  20
ATOM     20  C   UNL     1       0.742  -0.511   1.242  0.00  0.00    +0.003 C 
ATOM     21  C   UNL     1       2.178   0.019   1.231  0.00  0.00    +0.009 C 
ATOM     22  C   UNL     1       0.026  -0.018   2.500  0.00  0.00    +0.009 C 
ENDBRANCH  19  20
ENDBRANCH  14  19
ENDBRANCH   1  15
TORSDOF 3
