REMARK  Name = ZINC15675419
REMARK  7 active torsions:
REMARK  status: ('A' for Active; 'I' for Inactive)
REMARK    1  A    between atoms: C_1  and  C_2
REMARK    2  A    between atoms: C_4  and  C_33
REMARK    3  A    between atoms: C_6  and  N_8
REMARK    4  A    between atoms: C_13  and  O_32
REMARK    5  A    between atoms: C_15  and  O_31
REMARK    6  A    between atoms: C_18  and  C_23
REMARK    7  A    between atoms: N_25  and  C_26
REMARK                            x       y       z     vdW  Elec       q    Type
REMARK                         _______ _______ _______ _____ _____    ______ ____
ROOT
ATOM      1  N   UNL     1       0.131  -2.495   2.732  0.00  0.00    -0.294 N 
ATOM      2  C   UNL     1       0.209  -1.827   1.530  0.00  0.00    +0.154 C 
ATOM      3  N   UNL     1      -0.310  -0.668   1.242  0.00  0.00    -0.256 NA
ATOM      4  C   UNL     1      -0.173  -0.107  -0.075  0.00  0.00    +0.153 C 
ATOM      5  C   UNL     1      -0.081   1.386  -0.136  0.00  0.00    +0.168 C 
ATOM      6  C   UNL     1       1.345   1.881  -0.356  0.00  0.00    +0.146 C 
ATOM      7  C   UNL     1       1.889   1.222  -1.629  0.00  0.00    +0.048 C 
ATOM      8  C   UNL     1       2.018  -0.275  -1.383  0.00  0.00    +0.093 C 
ATOM      9  C   UNL     1       0.692  -0.917  -1.022  0.00  0.00    +0.093 C 
ATOM     10  S   UNL     1       1.040  -2.373   0.051  0.00  0.00    -0.084 S 
ATOM     11  H   UNL     1       0.624  -3.320   2.861  0.00  0.00    +0.154 HD
ENDROOT
BRANCH   1  17
ATOM     12  C   UNL     1      -3.776   0.114   4.179  0.00  0.00    +0.044 C 
ATOM     13  C   UNL     1      -2.558  -0.714   4.497  0.00  0.00    -0.048 A 
ATOM     14  C   UNL     1      -2.220  -0.970   5.814  0.00  0.00    +0.006 A 
ATOM     15  C   UNL     1      -1.104  -1.730   6.109  0.00  0.00    -0.048 A 
ATOM     16  C   UNL     1      -0.322  -2.237   5.090  0.00  0.00    +0.026 A 
ATOM     17  C   UNL     1      -0.658  -1.983   3.766  0.00  0.00    +0.033 A 
ATOM     18  C   UNL     1      -1.777  -1.214   3.473  0.00  0.00    +0.026 A 
ATOM     19  C   UNL     1      -0.740  -2.006   7.545  0.00  0.00    +0.044 C 
ENDBRANCH   1  17
BRANCH   8  20
ATOM     20  C   UNL     1       2.553  -0.929  -2.631  0.00  0.00    +0.218 C 
ATOM     21  O   UNL     1       1.925  -1.818  -3.167  0.00  0.00    -0.275 OA
ATOM     22  N   UNL     1       3.728  -0.525  -3.151  0.00  0.00    -0.312 N 
ATOM     23  H   UNL     1       4.230   0.186  -2.723  0.00  0.00    +0.149 HD
BRANCH  22  24
ATOM     24  C   UNL     1       4.248  -1.161  -4.365  0.00  0.00    +0.073 C 
ATOM     25  C   UNL     1       5.087  -2.401  -3.994  0.00  0.00    +0.022 C 
ATOM     26  C   UNL     1       6.251  -2.392  -5.015  0.00  0.00    +0.002 C 
ATOM     27  C   UNL     1       6.574  -0.883  -5.152  0.00  0.00    +0.002 C 
ATOM     28  C   UNL     1       5.194  -0.195  -5.101  0.00  0.00    +0.022 C 
ENDBRANCH  22  24
ENDBRANCH   8  20
BRANCH   6  29
ATOM     29  O   UNL     1       1.344   3.302  -0.512  0.00  0.00    -0.389 OA
ATOM     30  H   UNL     1       2.221   3.683  -0.656  0.00  0.00    +0.210 HD
ENDBRANCH   6  29
BRANCH   5  31
ATOM     31  O   UNL     1      -0.573   1.929   1.091  0.00  0.00    -0.387 OA
ATOM     32  H   UNL     1      -0.547   2.895   1.132  0.00  0.00    +0.210 HD
ENDBRANCH   5  31
TORSDOF 5
