REMARK  Name = ZINC13306904
REMARK  9 active torsions:
REMARK  status: ('A' for Active; 'I' for Inactive)
REMARK    1  A    between atoms: C_1  and  O_2
REMARK    2  A    between atoms: O_2  and  C_3
REMARK    3  A    between atoms: C_6  and  O_30
REMARK    4  A    between atoms: C_7  and  C_9
REMARK    5  A    between atoms: C_11  and  C_23
REMARK    6  A    between atoms: C_13  and  C_18
REMARK    7  A    between atoms: C_13  and  O_22
REMARK    8  A    between atoms: C_23  and  C_25
REMARK    9  A    between atoms: O_30  and  C_31
REMARK                            x       y       z     vdW  Elec       q    Type
REMARK                         _______ _______ _______ _____ _____    ______ ____
ROOT
ATOM      1  C   UNL     1       0.820  -0.474  -1.205  0.00  0.00    +0.124 C 
ATOM      2  C   UNL     1       0.002  -0.004   0.002  0.00  0.00    +0.145 C 
ATOM      3  C   UNL     1      -0.019   1.528   0.010  0.00  0.00    +0.243 C 
ATOM      4  N   UNL     1       1.357   2.027   0.000  0.00  0.00    -0.264 N 
ATOM      5  C   UNL     1       2.349   1.327  -0.570  0.00  0.00    +0.302 C 
ATOM      6  O   UNL     1       3.473   1.792  -0.560  0.00  0.00    -0.253 OA
ATOM      7  N   UNL     1       2.151   0.134  -1.150  0.00  0.00    -0.292 N 
ATOM      8  H   UNL     1       1.556   2.882   0.413  0.00  0.00    +0.153 HD
ATOM      9  H   UNL     1       2.904  -0.336  -1.541  0.00  0.00    +0.151 HD
ENDROOT
BRANCH   1  14
ATOM     10  C   UNL     1      -0.077   1.449  -4.332  0.00  0.00    +0.121 A 
ATOM     11  C   UNL     1      -1.148   0.710  -4.814  0.00  0.00    +0.049 A 
ATOM     12  C   UNL     1      -1.579  -0.409  -4.130  0.00  0.00    +0.049 A 
ATOM     13  C   UNL     1      -0.942  -0.794  -2.959  0.00  0.00    +0.125 A 
ATOM     14  C   UNL     1       0.128  -0.056  -2.477  0.00  0.00    +0.019 A 
ATOM     15  C   UNL     1       0.556   1.067  -3.159  0.00  0.00    +0.054 A 
BRANCH  10  17
ATOM     16  C   UNL     1      -0.355   2.889  -6.204  0.00  0.00    +0.277 C 
ATOM     17  O   UNL     1       0.347   2.551  -5.006  0.00  0.00    -0.495 OA
ENDBRANCH  10  17
BRANCH  13  18
ATOM     18  O   UNL     1      -1.366  -1.896  -2.285  0.00  0.00    -0.495 OA
ATOM     19  C   UNL     1      -2.474  -2.609  -2.839  0.00  0.00    +0.277 C 
ENDBRANCH  13  18
ENDBRANCH   1  14
BRANCH   3  20
ATOM     20  C   UNL     1      -0.733   2.023   1.270  0.00  0.00    +0.436 C 
ATOM     21  F   UNL     1      -0.054   1.560   2.403  0.00  0.00    -0.166 F 
ATOM     22  F   UNL     1      -0.751   3.422   1.277  0.00  0.00    -0.166 F 
ATOM     23  F   UNL     1      -2.045   1.539   1.283  0.00  0.00    -0.166 F 
ENDBRANCH   3  20
BRANCH   3  24
ATOM     24  O   UNL     1      -0.708   2.003  -1.148  0.00  0.00    -0.364 OA
ATOM     25  H   UNL     1      -0.759   2.967  -1.208  0.00  0.00    +0.212 HD
ENDBRANCH   3  24
BRANCH   2  26
ATOM     26  C   UNL     1       0.638  -0.508   1.272  0.00  0.00    +0.179 C 
ATOM     27  O   UNL     1       1.837  -0.697   1.317  0.00  0.00    -0.291 OA
BRANCH  26  28
ATOM     28  C   UNL     1      -0.161  -0.763   2.409  0.00  0.00    +0.055 A 
ATOM     29  C   UNL     1       0.222  -1.226   3.664  0.00  0.00    +0.019 A 
ATOM     30  C   UNL     1      -0.768  -1.386   4.597  0.00  0.00    +0.008 A 
ATOM     31  C   UNL     1      -2.053  -1.090   4.260  0.00  0.00    +0.046 A 
ATOM     32  S   UNL     1      -1.922  -0.566   2.613  0.00  0.00    -0.094 S 
ENDBRANCH  26  28
ENDBRANCH   2  26
TORSDOF 7
