REMARK  Name = ZINC58987983
REMARK  10 active torsions:
REMARK  status: ('A' for Active; 'I' for Inactive)
REMARK    1  A    between atoms: C_4  and  O_29
REMARK    2  A    between atoms: C_5  and  C_7
REMARK    3  A    between atoms: N_8  and  N_9
REMARK    4  A    between atoms: C_10  and  C_12
REMARK    5  A    between atoms: C_12  and  C_13
REMARK    6  A    between atoms: C_13  and  C_14
REMARK    7  A    between atoms: C_14  and  S_15
REMARK    8  A    between atoms: S_15  and  C_16
REMARK    9  A    between atoms: C_19  and  C_22
REMARK   10  A    between atoms: N_20  and  N_21
REMARK                            x       y       z     vdW  Elec       q    Type
REMARK                         _______ _______ _______ _____ _____    ______ ____
ROOT
ATOM      1  C   UNL     1       5.090  -8.361  -0.152  0.00  0.00    +0.078 C 
ENDROOT
BRANCH   1   2
ATOM      2  C   UNL     1       5.052  -6.834  -0.236  0.00  0.00    +0.020 C 
BRANCH   2   3
ATOM      3  C   UNL     1       3.609  -6.350  -0.087  0.00  0.00    +0.098 C 
BRANCH   3   5
ATOM      4  N   UNL     1       2.397  -4.194  -0.063  0.00  0.00    -0.207 N 
ATOM      5  C   UNL     1       3.572  -4.846  -0.170  0.00  0.00    +0.232 C 
ATOM      6  O   UNL     1       4.599  -4.222  -0.333  0.00  0.00    -0.274 OA
ATOM      7  H   UNL     1       1.575  -4.692   0.068  0.00  0.00    +0.177 HD
BRANCH   4   9
ATOM      8  C   UNL     1       1.231  -2.167  -0.037  0.00  0.00    +0.142 C 
ATOM      9  N   UNL     1       2.363  -2.795  -0.140  0.00  0.00    -0.188 NA
BRANCH   8  14
ATOM     10  C   UNL     1      -0.047   1.360  -0.087  0.00  0.00    +0.001 A 
ATOM     11  C   UNL     1       1.126   2.072  -0.273  0.00  0.00    +0.004 A 
ATOM     12  C   UNL     1       2.335   1.411  -0.383  0.00  0.00    +0.046 A 
ATOM     13  C   UNL     1       2.380   0.029  -0.307  0.00  0.00    +0.125 A 
ATOM     14  C   UNL     1       1.195  -0.696  -0.119  0.00  0.00    +0.036 A 
ATOM     15  C   UNL     1      -0.020  -0.016  -0.009  0.00  0.00    +0.013 A 
BRANCH  13  16
ATOM     16  O   UNL     1       3.567  -0.622  -0.416  0.00  0.00    -0.506 OA
ATOM     17  H   UNL     1       4.019  -0.759   0.428  0.00  0.00    +0.292 HD
ENDBRANCH  13  16
ENDBRANCH   8  14
ENDBRANCH   4   9
ENDBRANCH   3   5
ENDBRANCH   2   3
ENDBRANCH   1   2
BRANCH   1  18
ATOM     18  S   UNL     1       6.802  -8.935  -0.330  0.00  0.00    -0.084 S 
BRANCH  18  19
ATOM     19  C   UNL     1       6.678 -10.688  -0.212  0.00  0.00    +0.209 A 
ATOM     20  N   UNL     1       5.575 -11.382  -0.041  0.00  0.00    -0.121 NA
ATOM     21  N   UNL     1       5.846 -12.638   0.000  0.00  0.00    -0.127 NA
ATOM     22  C   UNL     1       7.138 -12.823  -0.141  0.00  0.00    +0.183 A 
ATOM     23  N   UNL     1       7.710 -11.580  -0.287  0.00  0.00    -0.224 N 
BRANCH  22  24
ATOM     24  C   UNL     1       7.844 -14.121  -0.148  0.00  0.00    +0.035 A 
ATOM     25  C   UNL     1       8.991 -14.299   0.627  0.00  0.00    +0.013 A 
ATOM     26  C   UNL     1       9.645 -15.514   0.617  0.00  0.00    +0.001 A 
ATOM     27  C   UNL     1       9.167 -16.555  -0.159  0.00  0.00    +0.001 A 
ATOM     28  C   UNL     1       8.030 -16.386  -0.929  0.00  0.00    +0.016 A 
ATOM     29  C   UNL     1       7.363 -15.177  -0.924  0.00  0.00    +0.029 A 
ATOM     30 BR   UNL     1       5.805 -14.951  -1.972  0.00  0.00    -0.050 Br
ENDBRANCH  22  24
BRANCH  23  31
ATOM     31  N   UNL     1       9.034 -11.297  -0.467  0.00  0.00    -0.295 N 
ATOM     32  H   UNL     1       9.517 -11.251   0.417  0.00  0.00    +0.163 HD
ATOM     33  H   UNL     1       9.467 -11.970  -1.082  0.00  0.00    +0.163 HD
ENDBRANCH  23  31
ENDBRANCH  18  19
ENDBRANCH   1  18
TORSDOF 10
