REMARK  Name = ZINC15085262
REMARK  5 active torsions:
REMARK  status: ('A' for Active; 'I' for Inactive)
REMARK    1  A    between atoms: C_5  and  C_7
REMARK    2  A    between atoms: C_7  and  N_8
REMARK    3  A    between atoms: C_18  and  C_33
REMARK    4  A    between atoms: C_19  and  N_32
REMARK    5  A    between atoms: C_29  and  C_30
REMARK                            x       y       z     vdW  Elec       q    Type
REMARK                         _______ _______ _______ _____ _____    ______ ____
ROOT
ATOM      1  N   UNL     1       8.334  -2.527   0.687  0.00  0.00    -0.265 N 
ATOM      2  C   UNL     1       8.375  -2.543  -0.709  0.00  0.00    +0.042 A 
ATOM      3  C   UNL     1       9.377  -2.953  -1.585  0.00  0.00    +0.024 A 
ATOM      4  C   UNL     1       9.182  -2.872  -2.948  0.00  0.00    +0.002 A 
ATOM      5  C   UNL     1       7.992  -2.383  -3.456  0.00  0.00    +0.000 A 
ATOM      6  C   UNL     1       6.992  -1.974  -2.592  0.00  0.00    +0.007 A 
ATOM      7  C   UNL     1       7.182  -2.053  -1.231  0.00  0.00    -0.001 A 
ATOM      8  C   UNL     1       6.325  -1.704  -0.046  0.00  0.00    +0.148 C 
ATOM      9  C   UNL     1       7.166  -2.048   1.155  0.00  0.00    +0.241 C 
ATOM     10  O   UNL     1       6.851  -1.919   2.319  0.00  0.00    -0.273 OA
ATOM     11  C   UNL     1       5.109  -2.593  -0.049  0.00  0.00    +0.090 C 
ATOM     12  C   UNL     1       3.885  -2.009  -0.050  0.00  0.00    +0.108 C 
ATOM     13  N   UNL     1       3.692  -0.626  -0.048  0.00  0.00    -0.249 N 
ATOM     14  C   UNL     1       2.418  -0.024  -0.045  0.00  0.00    +0.054 A 
ATOM     15  C   UNL     1       1.187  -0.701  -0.039  0.00  0.00    +0.025 A 
ATOM     16  C   UNL     1       0.002  -0.004  -0.036  0.00  0.00    +0.002 A 
ATOM     17  C   UNL     1      -0.017   1.381  -0.040  0.00  0.00    +0.001 A 
ATOM     18  C   UNL     1       1.183   2.071  -0.046  0.00  0.00    +0.017 A 
ATOM     19  C   UNL     1       2.367   1.371  -0.048  0.00  0.00    +0.036 A 
ATOM     20  S   UNL     1       4.078   1.847  -0.053  0.00  0.00    -0.071 S 
ATOM     21  C   UNL     1       4.782   0.212  -0.050  0.00  0.00    +0.093 C 
ATOM     22  C   UNL     1       6.085  -0.214  -0.049  0.00  0.00    +0.082 C 
ENDROOT
BRANCH  12  23
ATOM     23  N   UNL     1       2.776  -2.821  -0.053  0.00  0.00    -0.345 N 
ATOM     24  H   UNL     1       2.097  -2.712  -0.737  0.00  0.00    +0.144 HD
ATOM     25  H   UNL     1       2.672  -3.503   0.629  0.00  0.00    +0.144 HD
ENDBRANCH  12  23
BRANCH  22  26
ATOM     26  C   UNL     1       7.174   0.716  -0.051  0.00  0.00    +0.099 C 
ATOM     27  N   UNL     1       8.038   1.454  -0.052  0.00  0.00    -0.191 NA
ENDBRANCH  22  26
BRANCH  11  28
ATOM     28  C   UNL     1       5.242  -4.019  -0.052  0.00  0.00    +0.100 C 
ATOM     29  N   UNL     1       5.348  -5.150  -0.054  0.00  0.00    -0.191 NA
ENDBRANCH  11  28
BRANCH   1  30
ATOM     30  C   UNL     1       9.434  -2.979   1.543  0.00  0.00    +0.151 C 
BRANCH  30  35
ATOM     31  C   UNL     1       9.934  -6.720   1.469  0.00  0.00    +0.000 A 
ATOM     32  C   UNL     1       8.977  -7.146   2.372  0.00  0.00    +0.003 A 
ATOM     33  C   UNL     1       8.166  -6.224   3.006  0.00  0.00    +0.038 A 
ATOM     34  C   UNL     1       8.317  -4.873   2.742  0.00  0.00    +0.128 A 
ATOM     35  C   UNL     1       9.272  -4.448   1.835  0.00  0.00    +0.005 A 
ATOM     36  C   UNL     1      10.082  -5.372   1.201  0.00  0.00    +0.008 A 
ATOM     37  F   UNL     1       7.529  -3.970   3.367  0.00  0.00    -0.205 F 
ENDBRANCH  30  35
ENDBRANCH   1  30
TORSDOF 5
