REMARK  Name = ZINC58990880
REMARK  11 active torsions:
REMARK  status: ('A' for Active; 'I' for Inactive)
REMARK    1  A    between atoms: C_1  and  C_2
REMARK    2  A    between atoms: C_2  and  C_3
REMARK    3  A    between atoms: C_3  and  C_25
REMARK    4  A    between atoms: N_4  and  N_5
REMARK    5  A    between atoms: C_6  and  C_8
REMARK    6  A    between atoms: C_8  and  C_9
REMARK    7  A    between atoms: C_9  and  C_10
REMARK    8  A    between atoms: C_10  and  S_11
REMARK    9  A    between atoms: S_11  and  C_12
REMARK   10  A    between atoms: C_15  and  C_18
REMARK   11  A    between atoms: N_16  and  N_17
REMARK                            x       y       z     vdW  Elec       q    Type
REMARK                         _______ _______ _______ _____ _____    ______ ____
ROOT
ATOM      1  C   UNL     1      -7.527  -0.794  -3.586  0.00  0.00    +0.078 C 
ENDROOT
BRANCH   1   2
ATOM      2  C   UNL     1      -6.034  -0.460  -3.544  0.00  0.00    +0.020 C 
BRANCH   2   3
ATOM      3  C   UNL     1      -5.490  -0.734  -2.140  0.00  0.00    +0.098 C 
BRANCH   3   5
ATOM      4  N   UNL     1      -3.325  -0.569  -0.956  0.00  0.00    -0.207 N 
ATOM      5  C   UNL     1      -4.020  -0.405  -2.099  0.00  0.00    +0.232 C 
ATOM      6  O   UNL     1      -3.462   0.008  -3.094  0.00  0.00    -0.274 OA
ATOM      7  H   UNL     1      -3.771  -0.899  -0.160  0.00  0.00    +0.177 HD
BRANCH   4   9
ATOM      8  C   UNL     1      -1.314  -0.311   0.208  0.00  0.00    +0.066 C 
ATOM      9  N   UNL     1      -1.958  -0.263  -0.917  0.00  0.00    -0.184 NA
BRANCH   8  10
ATOM     10  C   UNL     1      -2.049  -0.515   1.471  0.00  0.00    -0.002 A 
ATOM     11  C   UNL     1      -1.497  -1.301   2.485  0.00  0.00    +0.010 A 
ATOM     12  C   UNL     1      -2.190  -1.488   3.663  0.00  0.00    +0.001 A 
ATOM     13  C   UNL     1      -3.430  -0.899   3.841  0.00  0.00    +0.000 A 
ATOM     14  C   UNL     1      -3.983  -0.120   2.840  0.00  0.00    +0.001 A 
ATOM     15  C   UNL     1      -3.298   0.081   1.659  0.00  0.00    +0.010 A 
ENDBRANCH   8  10
BRANCH   8  17
ATOM     16  C   UNL     1       0.545   1.321   0.377  0.00  0.00    +0.010 C 
ATOM     17  C   UNL     1       0.185  -0.158   0.226  0.00  0.00    +0.054 C 
ENDBRANCH   8  17
ENDBRANCH   4   9
ENDBRANCH   3   5
ENDBRANCH   2   3
ENDBRANCH   1   2
BRANCH   1  18
ATOM     18  S   UNL     1      -8.172  -0.469  -5.250  0.00  0.00    -0.084 S 
BRANCH  18  19
ATOM     19  C   UNL     1      -9.878  -0.897  -5.136  0.00  0.00    +0.209 A 
ATOM     20  N   UNL     1     -10.501  -1.340  -4.067  0.00  0.00    -0.121 NA
ATOM     21  N   UNL     1     -11.740  -1.553  -4.335  0.00  0.00    -0.127 NA
ATOM     22  C   UNL     1     -11.983  -1.260  -5.591  0.00  0.00    +0.183 A 
ATOM     23  N   UNL     1     -10.800  -0.825  -6.141  0.00  0.00    -0.224 N 
BRANCH  22  24
ATOM     24  C   UNL     1     -13.285  -1.369  -6.283  0.00  0.00    +0.035 A 
ATOM     25  C   UNL     1     -13.368  -2.001  -7.525  0.00  0.00    +0.013 A 
ATOM     26  C   UNL     1     -14.586  -2.100  -8.165  0.00  0.00    +0.001 A 
ATOM     27  C   UNL     1     -15.725  -1.577  -7.578  0.00  0.00    +0.001 A 
ATOM     28  C   UNL     1     -15.651  -0.950  -6.347  0.00  0.00    +0.016 A 
ATOM     29  C   UNL     1     -14.439  -0.848  -5.693  0.00  0.00    +0.029 A 
ATOM     30 BR   UNL     1     -14.340   0.003  -4.007  0.00  0.00    -0.050 Br
ENDBRANCH  22  24
BRANCH  23  31
ATOM     31  N   UNL     1     -10.589  -0.410  -7.426  0.00  0.00    -0.295 N 
ATOM     32  H   UNL     1     -10.411  -1.195  -8.035  0.00  0.00    +0.163 HD
ATOM     33  H   UNL     1     -11.368   0.138  -7.761  0.00  0.00    +0.163 HD
ENDBRANCH  23  31
ENDBRANCH  18  19
ENDBRANCH   1  18
TORSDOF 10
