REMARK  Name = ZINC39559649
REMARK  6 active torsions:
REMARK  status: ('A' for Active; 'I' for Inactive)
REMARK    1  A    between atoms: C_5  and  C_7
REMARK    2  A    between atoms: C_10  and  C_12
REMARK    3  A    between atoms: C_13  and  C_14
REMARK    4  A    between atoms: N_16  and  C_17
REMARK    5  A    between atoms: C_17  and  C_18
REMARK    6  A    between atoms: N_20  and  C_21
REMARK                            x       y       z     vdW  Elec       q    Type
REMARK                         _______ _______ _______ _____ _____    ______ ____
ROOT
ATOM      1  C   UNL     1       3.152  -7.645  -2.207  0.00  0.00    +0.237 C 
ATOM      2  O   UNL     1       2.681  -8.596  -1.609  0.00  0.00    -0.271 OA
ATOM      3  N   UNL     1       4.000  -7.847  -3.234  0.00  0.00    -0.303 N 
ATOM      4  H   UNL     1       4.376  -7.090  -3.710  0.00  0.00    +0.149 HD
ENDROOT
BRANCH   1   6
ATOM      5  C   UNL     1       1.954  -6.125  -0.787  0.00  0.00    +0.020 C 
ATOM      6  C   UNL     1       2.809  -6.329  -1.822  0.00  0.00    +0.068 C 
BRANCH   5  10
ATOM      7  C   UNL     1       1.246  -2.160  -0.024  0.00  0.00    +0.023 A 
ATOM      8  C   UNL     1       0.581  -3.049   0.807  0.00  0.00    +0.017 A 
ATOM      9  C   UNL     1       0.764  -4.388   0.619  0.00  0.00    +0.016 A 
ATOM     10  C   UNL     1       1.611  -4.808  -0.402  0.00  0.00    +0.013 A 
ATOM     11  S   UNL     1       2.147  -3.258  -1.106  0.00  0.00    -0.089 S 
BRANCH   7  16
ATOM     12  C   UNL     1      -0.035   1.369   0.003  0.00  0.00    +0.001 A 
ATOM     13  C   UNL     1       1.148   2.086  -0.014  0.00  0.00    +0.003 A 
ATOM     14  C   UNL     1       2.364   1.428  -0.034  0.00  0.00    +0.039 A 
ATOM     15  C   UNL     1       2.405   0.046  -0.038  0.00  0.00    +0.132 A 
ATOM     16  C   UNL     1       1.212  -0.684  -0.021  0.00  0.00    +0.024 A 
ATOM     17  C   UNL     1      -0.011  -0.010  -0.000  0.00  0.00    +0.012 A 
ATOM     18  F   UNL     1       3.593  -0.597  -0.059  0.00  0.00    -0.205 F 
ENDBRANCH   7  16
ENDBRANCH   5  10
ENDBRANCH   1   6
BRANCH   3  19
ATOM     19  C   UNL     1       4.356  -9.211  -3.633  0.00  0.00    +0.200 C 
BRANCH  19  20
ATOM     20  C   UNL     1       5.312  -9.162  -4.797  0.00  0.00    +0.234 C 
ATOM     21  O   UNL     1       5.661  -8.092  -5.250  0.00  0.00    -0.274 OA
ATOM     22  N   UNL     1       5.778 -10.306  -5.336  0.00  0.00    -0.284 N 
ATOM     23  H   UNL     1       5.552 -11.159  -4.933  0.00  0.00    +0.155 HD
BRANCH  22  24
ATOM     24  C   UNL     1       6.588 -10.263  -6.478  0.00  0.00    +0.036 A 
ATOM     25  C   UNL     1       6.487 -11.263  -7.438  0.00  0.00    +0.025 A 
ATOM     26  C   UNL     1       7.283 -11.226  -8.565  0.00  0.00    +0.029 A 
ATOM     27  C   UNL     1       8.187 -10.190  -8.741  0.00  0.00    +0.067 A 
ATOM     28  C   UNL     1       8.291  -9.184  -7.778  0.00  0.00    +0.069 A 
ATOM     29  C   UNL     1       7.487  -9.220  -6.650  0.00  0.00    +0.051 A 
ATOM     30  N   UNL     1       9.267  -8.297  -8.226  0.00  0.00    -0.306 N 
ATOM     31  H   UNL     1       9.560  -7.495  -7.765  0.00  0.00    +0.170 HD
ATOM     32  C   UNL     1       9.736  -8.741  -9.407  0.00  0.00    +0.325 A 
ATOM     33  O   UNL     1      10.599  -8.196 -10.069  0.00  0.00    -0.247 OA
ATOM     34  N   UNL     1       9.104  -9.881  -9.745  0.00  0.00    -0.306 N 
ATOM     35  H   UNL     1       9.261 -10.400 -10.550  0.00  0.00    +0.170 HD
ENDBRANCH  22  24
ENDBRANCH  19  20
ENDBRANCH   3  19
TORSDOF 6
