REMARK  Name = ZINC36500460
REMARK  10 active torsions:
REMARK  status: ('A' for Active; 'I' for Inactive)
REMARK    1  A    between atoms: C_3  and  C_8
REMARK    2  A    between atoms: C_5  and  O_7
REMARK    3  A    between atoms: C_8  and  C_10
REMARK    4  A    between atoms: C_8  and  N_19
REMARK    5  A    between atoms: N_12  and  C_13
REMARK    6  A    between atoms: N_19  and  C_20
REMARK    7  A    between atoms: C_20  and  C_21
REMARK    8  A    between atoms: C_26  and  C_28
REMARK    9  A    between atoms: C_29  and  O_35
REMARK   10  A    between atoms: C_33  and  O_34
REMARK                            x       y       z     vdW  Elec       q    Type
REMARK                         _______ _______ _______ _____ _____    ______ ____
ROOT
ATOM      1  C   UNL     1       3.417   2.160  -0.037  0.00  0.00    +0.193 C 
ENDROOT
BRANCH   1   4
ATOM      2  C   UNL     1      -0.150   1.448   0.979  0.00  0.00    +0.004 A 
ATOM      3  C   UNL     1       1.016   2.124   0.668  0.00  0.00    +0.006 A 
ATOM      4  C   UNL     1       2.148   1.421   0.301  0.00  0.00    -0.015 A 
ATOM      5  C   UNL     1       2.118   0.041   0.244  0.00  0.00    +0.051 A 
ATOM      6  C   UNL     1       0.950  -0.640   0.556  0.00  0.00    +0.117 A 
ATOM      7  C   UNL     1      -0.185   0.068   0.924  0.00  0.00    +0.045 A 
BRANCH   6   8
ATOM      8  O   UNL     1       0.917  -1.997   0.501  0.00  0.00    -0.507 OA
ATOM      9  H   UNL     1       1.157  -2.430   1.331  0.00  0.00    +0.292 HD
ENDBRANCH   6   8
ENDBRANCH   1   4
BRANCH   1  10
ATOM     10  C   UNL     1       3.383   2.580  -1.484  0.00  0.00    +0.238 C 
ATOM     11  O   UNL     1       3.523   3.748  -1.780  0.00  0.00    -0.273 OA
ATOM     12  N   UNL     1       3.197   1.658  -2.449  0.00  0.00    -0.311 N 
ATOM     13  H   UNL     1       3.085   0.724  -2.212  0.00  0.00    +0.149 HD
BRANCH  12  14
ATOM     14  C   UNL     1       3.164   2.066  -3.856  0.00  0.00    +0.073 C 
ATOM     15  C   UNL     1       1.750   2.521  -4.222  0.00  0.00    +0.022 C 
ATOM     16  C   UNL     1       1.716   2.947  -5.691  0.00  0.00    +0.002 C 
ATOM     17  C   UNL     1       2.116   1.764  -6.575  0.00  0.00    +0.000 C 
ATOM     18  C   UNL     1       3.530   1.309  -6.208  0.00  0.00    +0.002 C 
ATOM     19  C   UNL     1       3.565   0.883  -4.739  0.00  0.00    +0.022 C 
ENDBRANCH  12  14
ENDBRANCH   1  10
BRANCH   1  20
ATOM     20  N   UNL     1       3.531   3.348   0.814  0.00  0.00    -0.274 N 
ATOM     21  C   UNL     1       3.640   3.212   2.150  0.00  0.00    +0.255 C 
ATOM     22  O   UNL     1       3.643   2.103   2.650  0.00  0.00    -0.270 OA
BRANCH  21  23
ATOM     23  C   UNL     1       3.755   4.405   3.005  0.00  0.00    +0.119 A 
ATOM     24  C   UNL     1       2.604   5.017   3.522  0.00  0.00    +0.133 A 
ATOM     25  C   UNL     1       2.724   6.139   4.325  0.00  0.00    +0.046 A 
ATOM     26  C   UNL     1       3.972   6.656   4.618  0.00  0.00    +0.007 A 
ATOM     27  C   UNL     1       5.113   6.061   4.113  0.00  0.00    +0.046 A 
ATOM     28  C   UNL     1       5.017   4.934   3.312  0.00  0.00    +0.133 A 
BRANCH  28  29
ATOM     29  O   UNL     1       6.138   4.349   2.823  0.00  0.00    -0.506 OA
ATOM     30  H   UNL     1       6.421   4.695   1.966  0.00  0.00    +0.292 HD
ENDBRANCH  28  29
BRANCH  24  31
ATOM     31  O   UNL     1       1.377   4.512   3.236  0.00  0.00    -0.506 OA
ATOM     32  H   UNL     1       1.068   3.848   3.868  0.00  0.00    +0.292 HD
ENDBRANCH  24  31
ENDBRANCH  21  23
BRANCH  20  33
ATOM     33  C   UNL     1       3.528   4.683   0.211  0.00  0.00    +0.183 C 
BRANCH  33  34
ATOM     34  C   UNL     1       2.133   5.024  -0.247  0.00  0.00    +0.122 A 
ATOM     35  C   UNL     1       1.227   5.732   0.450  0.00  0.00    +0.046 A 
ATOM     36  C   UNL     1       0.064   5.811  -0.351  0.00  0.00    +0.041 A 
ATOM     37  C   UNL     1       0.330   5.146  -1.490  0.00  0.00    +0.195 A 
ATOM     38  O   UNL     1       1.587   4.677  -1.424  0.00  0.00    -0.466 OA
ENDBRANCH  33  34
ENDBRANCH  20  33
ENDBRANCH   1  20
TORSDOF 10
