REMARK  Name = ZINC59507319
REMARK  9 active torsions:
REMARK  status: ('A' for Active; 'I' for Inactive)
REMARK    1  A    between atoms: C_1  and  C_2
REMARK    2  A    between atoms: C_2  and  O_3
REMARK    3  A    between atoms: O_3  and  C_4
REMARK    4  A    between atoms: C_4  and  C_6
REMARK    5  A    between atoms: C_6  and  C_7
REMARK    6  A    between atoms: C_7  and  C_8
REMARK    7  A    between atoms: C_8  and  N_9
REMARK    8  A    between atoms: N_9  and  C_10
REMARK    9  A    between atoms: C_14  and  N_17
REMARK                            x       y       z     vdW  Elec       q    Type
REMARK                         _______ _______ _______ _____ _____    ______ ____
ROOT
ATOM      1  C   UNL     1      -5.246  -6.797   0.121  0.00  0.00    +0.057 A 
ATOM      2  C   UNL     1      -6.487  -6.246  -0.178  0.00  0.00    +0.041 A 
ATOM      3  C   UNL     1      -7.630  -7.014  -0.067  0.00  0.00    +0.034 A 
ATOM      4  C   UNL     1      -7.545  -8.332   0.342  0.00  0.00    +0.041 A 
ATOM      5  C   UNL     1      -6.307  -8.888   0.642  0.00  0.00    +0.055 A 
ATOM      6  C   UNL     1      -5.156  -8.121   0.526  0.00  0.00    +0.061 A 
ATOM      7 BR   UNL     1      -3.469  -8.877   0.925  0.00  0.00    -0.046 Br
ATOM      8 BR   UNL     1      -9.113  -9.378   0.493  0.00  0.00    -0.048 Br
ATOM      9 BR   UNL     1      -6.610  -4.443  -0.736  0.00  0.00    -0.048 Br
ENDROOT
BRANCH   5  10
ATOM     10  N   UNL     1      -6.221 -10.221   1.056  0.00  0.00    -0.356 N 
ATOM     11  H   UNL     1      -7.026 -10.758   1.134  0.00  0.00    +0.142 HD
ATOM     12  H   UNL     1      -5.357 -10.609   1.266  0.00  0.00    +0.142 HD
ENDBRANCH   5  10
BRANCH   1  13
ATOM     13  N   UNL     1      -4.089  -6.019   0.009  0.00  0.00    -0.342 N 
ATOM     14  H   UNL     1      -3.603  -5.991  -0.830  0.00  0.00    +0.146 HD
BRANCH  13  15
ATOM     15  C   UNL     1      -3.611  -5.247   1.158  0.00  0.00    +0.102 C 
BRANCH  15  16
ATOM     16  C   UNL     1      -2.410  -4.397   0.738  0.00  0.00    +0.030 C 
BRANCH  16  17
ATOM     17  C   UNL     1      -1.911  -3.591   1.938  0.00  0.00    +0.122 C 
BRANCH  17  18
ATOM     18  C   UNL     1      -0.728  -2.754   1.525  0.00  0.00    +0.307 C 
ATOM     19  O   UNL     1      -0.325  -2.799   0.387  0.00  0.00    -0.251 OA
BRANCH  18  20
ATOM     20  O   UNL     1      -0.121  -1.960   2.421  0.00  0.00    -0.465 OA
BRANCH  20  22
ATOM     21  C   UNL     1       1.550  -0.357   3.112  0.00  0.00    +0.048 C 
ATOM     22  C   UNL     1       0.994  -1.195   1.959  0.00  0.00    +0.229 C 
ENDBRANCH  20  22
ENDBRANCH  18  20
ENDBRANCH  17  18
ENDBRANCH  16  17
ENDBRANCH  15  16
ENDBRANCH  13  15
ENDBRANCH   1  13
TORSDOF 8
