REMARK  Name = ZINC05360975
REMARK  4 active torsions:
REMARK  status: ('A' for Active; 'I' for Inactive)
REMARK    1  A    between atoms: C_1  and  C_2
REMARK    2  A    between atoms: C_3  and  C_12
REMARK    3  A    between atoms: N_10  and  C_11
REMARK    4  A    between atoms: N_13  and  N_14
REMARK                            x       y       z     vdW  Elec       q    Type
REMARK                         _______ _______ _______ _____ _____    ______ ____
ROOT
ATOM      1  N   UNL     1       2.711   7.290   0.015  0.00  0.00    -0.204 N 
ATOM      2  C   UNL     1       4.077   7.070   0.001  0.00  0.00    +0.256 A 
ATOM      3  N   UNL     1       4.903   8.108  -0.006  0.00  0.00    -0.192 NA
ATOM      4  C   UNL     1       6.215   7.895  -0.015  0.00  0.00    +0.163 A 
ATOM      5  C   UNL     1       6.677   6.562  -0.027  0.00  0.00    +0.137 A 
ATOM      6  C   UNL     1       8.148   6.634  -0.040  0.00  0.00    +0.029 A 
ATOM      7  C   UNL     1       9.157   5.673  -0.056  0.00  0.00    +0.012 A 
ATOM      8  C   UNL     1      10.477   6.067  -0.067  0.00  0.00    +0.001 A 
ATOM      9  C   UNL     1      10.805   7.414  -0.062  0.00  0.00    +0.002 A 
ATOM     10  C   UNL     1       9.816   8.375  -0.046  0.00  0.00    +0.026 A 
ATOM     11  C   UNL     1       8.478   7.998  -0.036  0.00  0.00    +0.050 A 
ATOM     12  N   UNL     1       7.303   8.732  -0.020  0.00  0.00    -0.338 N 
ATOM     13  H   UNL     1       7.255   9.701  -0.014  0.00  0.00    +0.167 HD
ATOM     14  N   UNL     1       5.800   5.569  -0.024  0.00  0.00    -0.142 NA
ATOM     15  N   UNL     1       4.536   5.823  -0.011  0.00  0.00    -0.111 NA
ATOM     16  H   UNL     1       2.366   8.196   0.024  0.00  0.00    +0.177 HD
ENDROOT
BRANCH   1  18
ATOM     17  C   UNL     1       0.544   6.410   0.031  0.00  0.00    +0.140 C 
ATOM     18  N   UNL     1       1.826   6.203   0.017  0.00  0.00    -0.187 NA
BRANCH  17  21
ATOM     19  C   UNL     1      -2.558   6.594   0.061  0.00  0.00    +0.064 C 
ATOM     20  C   UNL     1      -1.744   5.326   0.046  0.00  0.00    +0.025 A 
ATOM     21  C   UNL     1      -0.386   5.268   0.033  0.00  0.00    +0.023 A 
ATOM     22  C   UNL     1      -0.025   3.839   0.022  0.00  0.00    +0.009 A 
ATOM     23  C   UNL     1       1.184   3.147   0.007  0.00  0.00    +0.010 A 
ATOM     24  C   UNL     1       1.184   1.779   0.000  0.00  0.00    +0.001 A 
ATOM     25  C   UNL     1      -0.013   1.076   0.008  0.00  0.00    +0.002 A 
ATOM     26  C   UNL     1      -1.218   1.742   0.017  0.00  0.00    +0.026 A 
ATOM     27  C   UNL     1      -1.240   3.133   0.030  0.00  0.00    +0.050 A 
ATOM     28  N   UNL     1      -2.258   4.062   0.044  0.00  0.00    -0.346 N 
ATOM     29  C   UNL     1      -3.687   3.739   0.056  0.00  0.00    +0.149 C 
ENDBRANCH  17  21
ENDBRANCH   1  18
TORSDOF 2
