REMARK  Name = ZINC23864642
REMARK  8 active torsions:
REMARK  status: ('A' for Active; 'I' for Inactive)
REMARK    1  A    between atoms: C_1  and  C_2
REMARK    2  A    between atoms: C_2  and  C_4
REMARK    3  A    between atoms: C_2  and  N_18
REMARK    4  A    between atoms: N_6  and  C_7
REMARK    5  A    between atoms: C_11  and  C_13
REMARK    6  A    between atoms: N_18  and  C_19
REMARK    7  A    between atoms: C_22  and  N_25
REMARK    8  A    between atoms: C_26  and  C_28
REMARK                            x       y       z     vdW  Elec       q    Type
REMARK                         _______ _______ _______ _____ _____    ______ ____
ROOT
ATOM      1  C   UNL     1       5.696   3.978   0.994  0.00  0.00    +0.038 C 
ATOM      2  C   UNL     1       4.839   4.243  -0.245  0.00  0.00    +0.154 C 
ENDROOT
BRANCH   2   3
ATOM      3  C   UNL     1       3.544   3.481  -0.134  0.00  0.00    +0.237 C 
ATOM      4  O   UNL     1       2.487   4.076  -0.136  0.00  0.00    -0.273 OA
ATOM      5  N   UNL     1       3.560   2.137  -0.031  0.00  0.00    -0.284 N 
ATOM      6  H   UNL     1       4.518   1.603   0.056  0.00  0.00    +0.155 HD
BRANCH   5   7
ATOM      7  C   UNL     1       2.358   1.420  -0.034  0.00  0.00    +0.034 A 
ATOM      8  C   UNL     1       1.281   1.872  -0.786  0.00  0.00    +0.025 A 
ATOM      9  C   UNL     1       0.096   1.163  -0.788  0.00  0.00    +0.022 A 
ATOM     10  C   UNL     1      -0.019   0.003  -0.042  0.00  0.00    +0.053 A 
ATOM     11  C   UNL     1       1.052  -0.449   0.708  0.00  0.00    +0.075 A 
ATOM     12  C   UNL     1       2.240   0.256   0.713  0.00  0.00    +0.037 A 
ATOM     13 CL   UNL     1      -1.510  -0.886  -0.046  0.00  0.00    -0.083 Cl
BRANCH  11  14
ATOM     14  C   UNL     1       0.923  -1.713   1.519  0.00  0.00    +0.419 C 
ATOM     15  F   UNL     1       2.128  -1.964   2.185  0.00  0.00    -0.166 F 
ATOM     16  F   UNL     1      -0.105  -1.563   2.455  0.00  0.00    -0.166 F 
ATOM     17  F   UNL     1       0.628  -2.784   0.669  0.00  0.00    -0.166 F 
ENDBRANCH  11  14
ENDBRANCH   5   7
ENDBRANCH   2   3
BRANCH   2  18
ATOM     18  N   UNL     1       4.554   5.677  -0.344  0.00  0.00    -0.333 N 
ATOM     19  H   UNL     1       3.618   6.081   0.067  0.00  0.00    +0.147 HD
BRANCH  18  20
ATOM     20  C   UNL     1       5.474   6.532  -0.961  0.00  0.00    +0.028 A 
ATOM     21  C   UNL     1       6.659   6.022  -1.475  0.00  0.00    +0.025 A 
ATOM     22  C   UNL     1       7.564   6.864  -2.091  0.00  0.00    +0.025 A 
ATOM     23  C   UNL     1       7.294   8.223  -2.184  0.00  0.00    +0.033 A 
ATOM     24  C   UNL     1       6.112   8.734  -1.664  0.00  0.00    +0.025 A 
ATOM     25  C   UNL     1       5.204   7.891  -1.055  0.00  0.00    +0.025 A 
BRANCH  23  26
ATOM     26  N   UNL     1       8.215   9.079  -2.803  0.00  0.00    -0.286 N 
ATOM     27  C   UNL     1       8.389  10.332  -2.336  0.00  0.00    +0.214 C 
ATOM     28  O   UNL     1       7.691  10.746  -1.435  0.00  0.00    -0.276 OA
ATOM     29  C   UNL     1       9.452  11.217  -2.935  0.00  0.00    +0.109 C 
ATOM     30  H   UNL     1       8.795   8.729  -3.669  0.00  0.00    +0.155 HD
ENDBRANCH  23  26
ENDBRANCH  18  20
ENDBRANCH   2  18
TORSDOF 6
