REMARK  Name = ZINC15357149
REMARK  4 active torsions:
REMARK  status: ('A' for Active; 'I' for Inactive)
REMARK    1  A    between atoms: C_6  and  C_7
REMARK    2  A    between atoms: C_7  and  N_8
REMARK    3  A    between atoms: C_9  and  C_11
REMARK    4  A    between atoms: C_12  and  C_13
REMARK                            x       y       z     vdW  Elec       q    Type
REMARK                         _______ _______ _______ _____ _____    ______ ____
ROOT
ATOM      1  C   UNL     1      -6.745  -0.718  -2.668  0.00  0.00    +0.139 C 
ENDROOT
BRANCH   1   7
ATOM      2  C   UNL     1      -5.399   0.502  -0.963  0.00  0.00    +0.007 A 
ATOM      3  C   UNL     1      -4.218   0.926  -0.377  0.00  0.00    +0.026 A 
ATOM      4  C   UNL     1      -3.031   0.507  -0.975  0.00  0.00    +0.047 A 
ATOM      5  C   UNL     1      -3.056  -0.315  -2.131  0.00  0.00    +0.003 A 
ATOM      6  C   UNL     1      -4.264  -0.728  -2.702  0.00  0.00    +0.015 A 
ATOM      7  C   UNL     1      -5.417  -0.301  -2.091  0.00  0.00    -0.030 A 
ATOM      8  C   UNL     1      -1.671  -0.556  -2.479  0.00  0.00    -0.019 A 
ATOM      9  C   UNL     1      -0.914   0.093  -1.569  0.00  0.00    +0.020 A 
ATOM     10  N   UNL     1      -1.721   0.733  -0.665  0.00  0.00    -0.358 N 
ATOM     11  H   UNL     1      -1.409   1.266   0.082  0.00  0.00    +0.166 HD
ATOM     12  C   UNL     1       0.597   0.087  -1.576  0.00  0.00    +0.053 C 
ATOM     13  C   UNL     1       1.077  -1.064  -2.468  0.00  0.00    +0.006 C 
ATOM     14  C   UNL     1       0.357  -0.996  -3.818  0.00  0.00    +0.005 C 
ATOM     15  C   UNL     1      -1.119  -1.366  -3.625  0.00  0.00    +0.037 C 
ENDBRANCH   1   7
BRANCH   1  16
ATOM     16  N   UNL     1      -7.170  -1.979  -2.055  0.00  0.00    -0.308 N 
ATOM     17  C   UNL     1      -8.336  -2.546  -2.419  0.00  0.00    +0.237 C 
ATOM     18  O   UNL     1      -9.038  -2.011  -3.258  0.00  0.00    -0.271 OA
ATOM     19  H   UNL     1      -6.611  -2.405  -1.387  0.00  0.00    +0.149 HD
BRANCH  17  20
ATOM     20  C   UNL     1      -8.760  -3.805  -1.807  0.00  0.00    +0.068 C 
ATOM     21  C   UNL     1      -9.987  -4.304  -2.068  0.00  0.00    +0.013 C 
BRANCH  21  22
ATOM     22  C   UNL     1     -10.983  -3.477  -2.765  0.00  0.00    -0.021 A 
ATOM     23  C   UNL     1     -11.762  -4.030  -3.788  0.00  0.00    +0.012 A 
ATOM     24  C   UNL     1     -12.694  -3.253  -4.439  0.00  0.00    +0.050 A 
ATOM     25  C   UNL     1     -12.866  -1.921  -4.084  0.00  0.00    +0.166 A 
ATOM     26  C   UNL     1     -12.093  -1.363  -3.064  0.00  0.00    +0.167 A 
ATOM     27  C   UNL     1     -11.160  -2.137  -2.404  0.00  0.00    +0.057 A 
ATOM     28  O   UNL     1     -12.453  -0.055  -2.911  0.00  0.00    -0.453 OA
ATOM     29  C   UNL     1     -13.731   0.070  -3.562  0.00  0.00    +0.466 C 
ATOM     30  O   UNL     1     -13.707  -0.962  -4.566  0.00  0.00    -0.453 OA
ENDBRANCH  21  22
ENDBRANCH  17  20
ENDBRANCH   1  16
TORSDOF 4
