REMARK  Name = ZINC57354170
REMARK  2 active torsions:
REMARK  status: ('A' for Active; 'I' for Inactive)
REMARK    1  A    between atoms: C_9  and  O_19
REMARK    2  A    between atoms: C_10  and  O_18
REMARK                            x       y       z     vdW  Elec       q    Type
REMARK                         _______ _______ _______ _____ _____    ______ ____
ROOT
ATOM      1  C   UNL     1      -0.017   1.382   0.010  0.00  0.00    +0.001 A 
ATOM      2  C   UNL     1       1.148   2.123   0.003  0.00  0.00    +0.000 A 
ATOM      3  C   UNL     1       2.403   1.525  -0.021  0.00  0.00    +0.009 A 
ATOM      4  C   UNL     1       2.450   0.147  -0.034  0.00  0.00    +0.018 A 
ATOM      5  C   UNL     1       1.255  -0.622  -0.013  0.00  0.00    +0.030 A 
ATOM      6  C   UNL     1       0.002  -0.004   0.002  0.00  0.00    +0.012 A 
ATOM      7  C   UNL     1       1.594  -2.062   0.013  0.00  0.00    +0.218 C 
ATOM      8  O   UNL     1       0.924  -3.002  -0.358  0.00  0.00    -0.287 OA
ATOM      9  C   UNL     1       2.981  -2.073   0.614  0.00  0.00    +0.248 C 
ATOM     10  C   UNL     1       3.581  -0.809  -0.081  0.00  0.00    +0.213 C 
ATOM     11  N   UNL     1       4.819  -0.494   0.615  0.00  0.00    -0.291 N 
ATOM     12  C   UNL     1       5.702  -1.620   0.714  0.00  0.00    +0.172 A 
ATOM     13  C   UNL     1       5.232  -2.930   0.496  0.00  0.00    +0.172 A 
ATOM     14  N   UNL     1       6.132  -3.884   0.575  0.00  0.00    -0.174 NA
ATOM     15  S   UNL     1       7.546  -3.077   0.957  0.00  0.00    +0.119 S 
ATOM     16  N   UNL     1       6.978  -1.505   1.003  0.00  0.00    -0.174 NA
ATOM     17  N   UNL     1       3.845  -3.187   0.240  0.00  0.00    -0.288 N 
ATOM     18  H   UNL     1       5.025   0.384   0.973  0.00  0.00    +0.151 HD
ATOM     19  H   UNL     1       3.516  -4.016  -0.142  0.00  0.00    +0.151 HD
ENDROOT
BRANCH  10  20
ATOM     20  O   UNL     1       3.882  -1.120  -1.443  0.00  0.00    -0.364 OA
ATOM     21  H   UNL     1       4.154  -0.356  -1.970  0.00  0.00    +0.213 HD
ENDBRANCH  10  20
BRANCH   9  22
ATOM     22  O   UNL     1       2.925  -1.923   2.034  0.00  0.00    -0.362 OA
ATOM     23  H   UNL     1       2.448  -2.633   2.486  0.00  0.00    +0.213 HD
ENDBRANCH   9  22
TORSDOF 2
