REMARK  Name = ZINC14583837
REMARK  3 active torsions:
REMARK  status: ('A' for Active; 'I' for Inactive)
REMARK    1  A    between atoms: C_17  and  O_25
REMARK    2  A    between atoms: C_19  and  O_24
REMARK    3  A    between atoms: C_21  and  O_23
REMARK                            x       y       z     vdW  Elec       q    Type
REMARK                         _______ _______ _______ _____ _____    ______ ____
ROOT
ATOM      1  C   UNL     1       2.411   1.422   0.007  0.00  0.00    +0.058 A 
ATOM      2  C   UNL     1       1.204   2.099   0.002  0.00  0.00    -0.004 A 
ATOM      3  C   UNL     1      -0.017   1.389   0.010  0.00  0.00    +0.048 A 
ATOM      4  C   UNL     1       0.002  -0.004   0.002  0.00  0.00    +0.063 A 
ATOM      5  C   UNL     1       1.212  -0.675  -0.000  0.00  0.00    +0.167 A 
ATOM      6  C   UNL     1       2.416   0.034   0.006  0.00  0.00    +0.167 A 
ATOM      7  O   UNL     1       3.447  -0.859   0.010  0.00  0.00    -0.453 OA
ATOM      8  C   UNL     1       2.873  -2.109  -0.414  0.00  0.00    +0.466 C 
ATOM      9  O   UNL     1       1.496  -2.011  -0.007  0.00  0.00    -0.453 OA
ATOM     10  C   UNL     1      -1.280   2.143   0.014  0.00  0.00    +0.245 C 
ATOM     11  O   UNL     1      -2.330   1.553  -0.154  0.00  0.00    -0.270 OA
ATOM     12  N   UNL     1      -1.292   3.475   0.201  0.00  0.00    -0.302 N 
ATOM     13  C   UNL     1      -0.091   4.211   0.578  0.00  0.00    +0.135 C 
ATOM     14  C   UNL     1       1.130   3.580  -0.024  0.00  0.00    -0.018 C 
ATOM     15  C   UNL     1       2.114   4.270  -0.562  0.00  0.00    +0.012 C 
ATOM     16  C   UNL     1       2.104   5.768  -0.673  0.00  0.00    +0.169 C 
ATOM     17  C   UNL     1       1.160   6.361   0.374  0.00  0.00    +0.177 C 
ATOM     18  C   UNL     1      -0.208   5.686   0.243  0.00  0.00    +0.170 C 
ATOM     19  H   UNL     1      -2.123   3.961   0.080  0.00  0.00    +0.150 HD
ENDROOT
BRANCH  18  20
ATOM     20  O   UNL     1      -1.128   6.306   1.144  0.00  0.00    -0.387 OA
ATOM     21  H   UNL     1      -1.253   7.253   0.989  0.00  0.00    +0.210 HD
ENDBRANCH  18  20
BRANCH  17  22
ATOM     22  O   UNL     1       1.024   7.766   0.154  0.00  0.00    -0.386 OA
ATOM     23  H   UNL     1       1.854   8.257   0.222  0.00  0.00    +0.210 HD
ENDBRANCH  17  22
BRANCH  16  24
ATOM     24  O   UNL     1       3.426   6.266  -0.457  0.00  0.00    -0.385 OA
ATOM     25  H   UNL     1       4.080   5.932  -1.086  0.00  0.00    +0.210 HD
ENDBRANCH  16  24
TORSDOF 3
