REMARK  Name = ZINC14466865
REMARK  7 active torsions:
REMARK  status: ('A' for Active; 'I' for Inactive)
REMARK    1  A    between atoms: C_1  and  O_2
REMARK    2  A    between atoms: O_2  and  C_3
REMARK    3  A    between atoms: C_6  and  N_9
REMARK    4  A    between atoms: N_9  and  S_10
REMARK    5  A    between atoms: S_10  and  C_13
REMARK    6  A    between atoms: C_26  and  C_29
REMARK    7  A    between atoms: C_34  and  O_35
REMARK                            x       y       z     vdW  Elec       q    Type
REMARK                         _______ _______ _______ _____ _____    ______ ____
ROOT
ATOM      1  C   UNL     1      -4.265   2.975   0.686  0.00  0.00    +0.109 A 
ATOM      2  C   UNL     1      -3.648   4.131   1.129  0.00  0.00    +0.030 A 
ATOM      3  C   UNL     1      -4.155   5.365   0.777  0.00  0.00    +0.025 A 
ATOM      4  C   UNL     1      -5.293   5.456  -0.015  0.00  0.00    +0.031 A 
ATOM      5  C   UNL     1      -5.923   4.282  -0.443  0.00  0.00    -0.018 A 
ATOM      6  C   UNL     1      -5.402   3.054  -0.096  0.00  0.00    +0.034 A 
ATOM      7  C   UNL     1      -7.154   4.423  -1.249  0.00  0.00    +0.049 C 
ATOM      8  C   UNL     1      -7.592   3.372  -2.203  0.00  0.00    -0.023 C 
ATOM      9  C   UNL     1      -8.230   3.953  -3.212  0.00  0.00    -0.030 C 
ATOM     10  C   UNL     1      -8.239   5.471  -3.020  0.00  0.00    +0.033 C 
ATOM     11  C   UNL     1      -6.989   5.680  -2.156  0.00  0.00    +0.029 C 
ATOM     12  C   UNL     1      -6.991   6.866  -1.208  0.00  0.00    +0.109 C 
ATOM     13  N   UNL     1      -5.772   6.719  -0.383  0.00  0.00    -0.336 N 
ATOM     14  H   UNL     1      -5.296   7.513  -0.092  0.00  0.00    +0.147 HD
ENDROOT
BRANCH  12  15
ATOM     15  C   UNL     1      -6.939   8.155  -1.988  0.00  0.00    +0.017 A 
ATOM     16  C   UNL     1      -5.721   8.733  -2.288  0.00  0.00    +0.029 A 
ATOM     17  C   UNL     1      -5.672   9.916  -3.003  0.00  0.00    +0.043 A 
ATOM     18  C   UNL     1      -6.844  10.524  -3.420  0.00  0.00    +0.043 A 
ATOM     19  C   UNL     1      -8.065   9.949  -3.122  0.00  0.00    +0.084 A 
ATOM     20  C   UNL     1      -8.115   8.758  -2.409  0.00  0.00    +0.140 A 
ATOM     21 CL   UNL     1      -9.534  10.711  -3.644  0.00  0.00    -0.080 Cl
ATOM     22 CL   UNL     1      -4.140  10.640  -3.379  0.00  0.00    -0.083 Cl
BRANCH  20  23
ATOM     23  O   UNL     1      -9.314   8.188  -2.119  0.00  0.00    -0.505 OA
ATOM     24  H   UNL     1      -9.697   8.480  -1.281  0.00  0.00    +0.292 HD
ENDBRANCH  20  23
ENDBRANCH  12  15
BRANCH   1  25
ATOM     25  S   UNL     1      -3.605   1.401   1.125  0.00  0.00    +0.072 S 
ATOM     26  O   UNL     1      -4.664   0.464   0.986  0.00  0.00    -0.150 OA
ATOM     27  O   UNL     1      -2.902   1.581   2.347  0.00  0.00    -0.150 OA
BRANCH  25  28
ATOM     28  N   UNL     1      -2.473   1.009  -0.019  0.00  0.00    -0.216 N 
ATOM     29  H   UNL     1      -2.607   0.235  -0.589  0.00  0.00    +0.174 HD
BRANCH  28  33
ATOM     30  C   UNL     1       0.950   3.349  -0.443  0.00  0.00    +0.120 A 
ATOM     31  C   UNL     1      -0.069   3.435  -1.380  0.00  0.00    +0.047 A 
ATOM     32  C   UNL     1      -1.202   2.657  -1.242  0.00  0.00    +0.028 A 
ATOM     33  C   UNL     1      -1.323   1.793  -0.162  0.00  0.00    +0.048 A 
ATOM     34  C   UNL     1      -0.300   1.704   0.772  0.00  0.00    +0.028 A 
ATOM     35  C   UNL     1       0.832   2.482   0.633  0.00  0.00    +0.047 A 
BRANCH  30  37
ATOM     36  C   UNL     1       3.074   3.977   0.422  0.00  0.00    +0.277 C 
ATOM     37  O   UNL     1       2.065   4.116  -0.579  0.00  0.00    -0.495 OA
ENDBRANCH  30  37
ENDBRANCH  28  33
ENDBRANCH  25  28
ENDBRANCH   1  25
TORSDOF 6
