REMARK  Name = ZINC36660433
REMARK  12 active torsions:
REMARK  status: ('A' for Active; 'I' for Inactive)
REMARK    1  A    between atoms: C_1  and  C_2
REMARK    2  A    between atoms: C_5  and  C_36
REMARK    3  A    between atoms: N_11  and  C_12
REMARK    4  A    between atoms: C_12  and  C_13
REMARK    5  A    between atoms: C_13  and  N_14
REMARK    6  A    between atoms: N_14  and  C_15
REMARK    7  A    between atoms: N_14  and  C_16
REMARK    8  A    between atoms: C_17  and  C_19
REMARK    9  A    between atoms: N_24  and  S_25
REMARK   10  A    between atoms: S_25  and  C_28
REMARK   11  A    between atoms: C_31  and  O_34
REMARK   12  A    between atoms: O_34  and  C_35
REMARK                            x       y       z     vdW  Elec       q    Type
REMARK                         _______ _______ _______ _____ _____    ______ ____
ROOT
ATOM      1  C   UNL     1       0.604   1.526   0.003  0.00  0.00    +0.046 C 
ATOM      2  C   UNL     1       1.205   0.144   0.035  0.00  0.00    -0.024 A 
ATOM      3  C   UNL     1       1.620  -0.442  -1.133  0.00  0.00    +0.006 A 
ATOM      4  C   UNL     1       2.178  -1.711  -1.148  0.00  0.00    +0.005 A 
ATOM      5  C   UNL     1       2.320  -2.404   0.041  0.00  0.00    -0.035 A 
ATOM      6  C   UNL     1       1.907  -1.825   1.215  0.00  0.00    +0.044 A 
ATOM      7  C   UNL     1       1.339  -0.531   1.269  0.00  0.00    +0.083 A 
ATOM      8  N   UNL     1       0.988  -0.098   2.499  0.00  0.00    -0.224 NA
ATOM      9  C   UNL     1       1.164  -0.823   3.579  0.00  0.00    +0.168 A 
ATOM     10  S   UNL     1       1.891  -2.318   2.922  0.00  0.00    -0.052 S 
ATOM     11  N   UNL     1       0.856  -0.513   4.894  0.00  0.00    -0.251 N 
ATOM     12  C   UNL     1       0.371   0.706   5.203  0.00  0.00    +0.240 C 
ATOM     13  O   UNL     1       0.035   0.955   6.341  0.00  0.00    -0.273 OA
ATOM     14  C   UNL     1       2.923  -3.784   0.047  0.00  0.00    +0.045 C 
ENDROOT
BRANCH  12  15
ATOM     15  C   UNL     1       0.247   1.761   4.133  0.00  0.00    +0.166 C 
ATOM     16  C   UNL     1      -1.101   1.608   3.398  0.00  0.00    +0.031 C 
ATOM     17  C   UNL     1      -2.005   2.648   4.111  0.00  0.00    +0.019 C 
ATOM     18  C   UNL     1      -0.997   3.787   4.405  0.00  0.00    +0.110 C 
ATOM     19  N   UNL     1       0.266   3.098   4.745  0.00  0.00    -0.165 NA
BRANCH  19  20
ATOM     20  S   UNL     1       1.494   3.723   5.662  0.00  0.00    +0.062 S 
ATOM     21  O   UNL     1       0.917   4.728   6.484  0.00  0.00    -0.153 OA
ATOM     22  O   UNL     1       2.205   2.615   6.199  0.00  0.00    -0.153 OA
BRANCH  20  23
ATOM     23  C   UNL     1       2.599   4.545   4.563  0.00  0.00    +0.106 A 
ATOM     24  C   UNL     1       3.648   3.849   3.990  0.00  0.00    +0.032 A 
ATOM     25  C   UNL     1       4.516   4.492   3.129  0.00  0.00    +0.047 A 
ATOM     26  C   UNL     1       4.334   5.836   2.837  0.00  0.00    +0.120 A 
ATOM     27  C   UNL     1       3.280   6.531   3.412  0.00  0.00    +0.047 A 
ATOM     28  C   UNL     1       2.412   5.883   4.269  0.00  0.00    +0.032 A 
BRANCH  26  29
ATOM     29  O   UNL     1       5.186   6.470   1.990  0.00  0.00    -0.495 OA
ATOM     30  C   UNL     1       4.938   7.854   1.736  0.00  0.00    +0.277 C 
ENDBRANCH  26  29
ENDBRANCH  20  23
ENDBRANCH  19  20
ENDBRANCH  12  15
BRANCH  11  31
ATOM     31  C   UNL     1       1.056  -1.510   5.949  0.00  0.00    +0.097 C 
BRANCH  31  32
ATOM     32  C   UNL     1       2.430  -1.303   6.591  0.00  0.00    -0.060 C 
BRANCH  32  33
ATOM     33  N   UNL     1       2.682  -2.376   7.562  0.00  0.00    +0.377 N 
ATOM     34  C   UNL     1       4.046  -2.247   8.091  0.00  0.00    -0.097 C 
ATOM     35  C   UNL     1       1.718  -2.274   8.666  0.00  0.00    -0.097 C 
ATOM     36  H   UNL     1       2.580  -3.272   7.109  0.00  0.00    -0.083 HD
ENDBRANCH  32  33
ENDBRANCH  31  32
ENDBRANCH  11  31
TORSDOF 7
