REMARK  Name = ZINC13914302
REMARK  6 active torsions:
REMARK  status: ('A' for Active; 'I' for Inactive)
REMARK    1  A    between atoms: C_1  and  C_2
REMARK    2  A    between atoms: C_2  and  O_3
REMARK    3  A    between atoms: O_3  and  C_4
REMARK    4  A    between atoms: C_6  and  C_14
REMARK    5  A    between atoms: C_8  and  N_11
REMARK    6  A    between atoms: C_9  and  O_10
REMARK                            x       y       z     vdW  Elec       q    Type
REMARK                         _______ _______ _______ _____ _____    ______ ____
ROOT
ATOM      1  C   UNL     1      -0.229  -4.969   0.478  0.00  0.00    +0.060 C 
ATOM      2  C   UNL     1       0.885  -5.838   1.062  0.00  0.00    +0.109 C 
ATOM      3  C   UNL     1       1.328  -6.848   0.035  0.00  0.00    +0.218 C 
ATOM      4  O   UNL     1       2.500  -7.145  -0.050  0.00  0.00    -0.275 OA
ATOM      5  N   UNL     1       0.433  -7.421  -0.788  0.00  0.00    -0.285 N 
ATOM      6  C   UNL     1      -0.907  -7.021  -0.783  0.00  0.00    +0.038 A 
ATOM      7  C   UNL     1      -1.271  -5.845  -0.168  0.00  0.00    -0.011 A 
ATOM      8  C   UNL     1      -2.622  -5.464  -0.145  0.00  0.00    -0.012 A 
ATOM      9  C   UNL     1      -3.035  -4.287   0.504  0.00  0.00    +0.009 A 
ATOM     10  C   UNL     1      -4.353  -3.948   0.509  0.00  0.00    +0.001 A 
ATOM     11  C   UNL     1      -5.302  -4.750  -0.122  0.00  0.00    +0.001 A 
ATOM     12  C   UNL     1      -4.939  -5.896  -0.760  0.00  0.00    +0.008 A 
ATOM     13  C   UNL     1      -3.587  -6.279  -0.787  0.00  0.00    -0.017 A 
ATOM     14  C   UNL     1      -3.176  -7.455  -1.438  0.00  0.00    +0.010 A 
ATOM     15  C   UNL     1      -1.867  -7.808  -1.432  0.00  0.00    +0.024 A 
ATOM     16  H   UNL     1       0.721  -8.122  -1.393  0.00  0.00    +0.155 HD
ENDROOT
BRANCH   1  19
ATOM     17  C   UNL     1       0.777  -1.811  -1.336  0.00  0.00    +0.164 A 
ATOM     18  C   UNL     1       0.243  -2.669  -0.388  0.00  0.00    +0.053 A 
ATOM     19  C   UNL     1       0.352  -4.037  -0.555  0.00  0.00    -0.034 A 
ATOM     20  C   UNL     1       0.992  -4.552  -1.667  0.00  0.00    +0.041 A 
ATOM     21  C   UNL     1       1.526  -3.702  -2.617  0.00  0.00    +0.171 A 
ATOM     22  C   UNL     1       1.416  -2.330  -2.458  0.00  0.00    +0.189 A 
BRANCH  21  23
ATOM     23  N   UNL     1       2.210  -4.257  -3.806  0.00  0.00    +0.060 N 
ATOM     24  O   UNL     1       2.302  -5.454  -3.946  0.00  0.00    -0.126 OA
ATOM     25  O   UNL     1       2.678  -3.513  -4.636  0.00  0.00    -0.126 OA
ENDBRANCH  21  23
BRANCH  22  26
ATOM     26  O   UNL     1       1.936  -1.492  -3.394  0.00  0.00    -0.502 OA
ATOM     27  H   UNL     1       2.856  -1.241  -3.231  0.00  0.00    +0.292 HD
ENDBRANCH  22  26
BRANCH  17  28
ATOM     28  O   UNL     1       0.671  -0.465  -1.174  0.00  0.00    -0.488 OA
BRANCH  28  30
ATOM     29  C   UNL     1      -0.019   1.526   0.010  0.00  0.00    +0.048 C 
ATOM     30  C   UNL     1       0.002  -0.004   0.002  0.00  0.00    +0.226 C 
ENDBRANCH  28  30
ENDBRANCH  17  28
ENDBRANCH   1  19
TORSDOF 5
