REMARK  Name = ZINC59227656
REMARK  8 active torsions:
REMARK  status: ('A' for Active; 'I' for Inactive)
REMARK    1  A    between atoms: C_1  and  C_2
REMARK    2  A    between atoms: C_5  and  C_8
REMARK    3  A    between atoms: C_8  and  O_9
REMARK    4  A    between atoms: O_9  and  C_10
REMARK    5  A    between atoms: C_13  and  C_16
REMARK    6  A    between atoms: C_18  and  C_25
REMARK    7  A    between atoms: C_19  and  C_24
REMARK    8  A    between atoms: N_27  and  C_28
REMARK                            x       y       z     vdW  Elec       q    Type
REMARK                         _______ _______ _______ _____ _____    ______ ____
ROOT
ATOM      1  C   UNL     1       2.604 -10.790  -0.525  0.00  0.00    +0.139 C 
ATOM      2  C   UNL     1       2.784 -10.945  -2.022  0.00  0.00    +0.056 C 
ATOM      3  C   UNL     1       3.985 -11.370  -2.469  0.00  0.00    +0.017 C 
ATOM      4  N   UNL     1       5.002 -11.650  -1.601  0.00  0.00    -0.300 N 
ATOM      5  C   UNL     1       4.897 -11.530  -0.271  0.00  0.00    +0.135 C 
ATOM      6  S   UNL     1       6.251 -11.913   0.704  0.00  0.00    -0.019 S 
ATOM      7  N   UNL     1       3.761 -11.117   0.324  0.00  0.00    -0.315 N 
ATOM      8  C   UNL     1       4.208 -11.539  -3.950  0.00  0.00    +0.061 C 
ATOM      9  H   UNL     1       5.847 -11.952  -1.968  0.00  0.00    +0.154 HD
ATOM     10  H   UNL     1       3.708 -11.036   1.289  0.00  0.00    +0.149 HD
ENDROOT
BRANCH   1  14
ATOM     11  C   UNL     1       1.503  -6.735   0.254  0.00  0.00    +0.121 A 
ATOM     12  C   UNL     1       0.535  -7.729   0.247  0.00  0.00    +0.046 A 
ATOM     13  C   UNL     1       0.893  -9.039  -0.005  0.00  0.00    +0.009 A 
ATOM     14  C   UNL     1       2.215  -9.360  -0.251  0.00  0.00    -0.022 A 
ATOM     15  C   UNL     1       3.182  -8.371  -0.245  0.00  0.00    +0.009 A 
ATOM     16  C   UNL     1       2.828  -7.059   0.001  0.00  0.00    +0.046 A 
BRANCH  11  17
ATOM     17  O   UNL     1       1.153  -5.445   0.501  0.00  0.00    -0.487 OA
BRANCH  17  18
ATOM     18  C   UNL     1      -0.230  -5.185   0.753  0.00  0.00    +0.264 C 
BRANCH  18  23
ATOM     19  C   UNL     1      -0.986   0.462   1.718  0.00  0.00    +0.044 C 
ATOM     20  C   UNL     1      -0.789  -1.011   1.466  0.00  0.00    -0.050 A 
ATOM     21  C   UNL     1      -0.877  -1.510   0.180  0.00  0.00    +0.004 A 
ATOM     22  C   UNL     1      -0.696  -2.861  -0.050  0.00  0.00    +0.007 A 
ATOM     23  C   UNL     1      -0.426  -3.712   1.005  0.00  0.00    -0.010 A 
ATOM     24  C   UNL     1      -0.337  -3.213   2.291  0.00  0.00    +0.007 A 
ATOM     25  C   UNL     1      -0.513  -1.861   2.521  0.00  0.00    +0.004 A 
ENDBRANCH  18  23
ENDBRANCH  17  18
ENDBRANCH  11  17
ENDBRANCH   1  14
BRANCH   2  26
ATOM     26  C   UNL     1       1.729 -10.655  -2.921  0.00  0.00    +0.248 C 
ATOM     27  O   UNL     1       0.896 -11.505  -3.176  0.00  0.00    -0.270 OA
ATOM     28  N   UNL     1       1.648  -9.439  -3.495  0.00  0.00    -0.282 N 
ATOM     29  H   UNL     1       2.247  -8.729  -3.214  0.00  0.00    +0.155 HD
BRANCH  28  30
ATOM     30  C   UNL     1       0.701  -9.199  -4.496  0.00  0.00    +0.034 A 
ATOM     31  C   UNL     1      -0.555  -9.787  -4.420  0.00  0.00    +0.025 A 
ATOM     32  C   UNL     1      -1.489  -9.548  -5.409  0.00  0.00    +0.022 A 
ATOM     33  C   UNL     1      -1.174  -8.725  -6.476  0.00  0.00    +0.041 A 
ATOM     34  C   UNL     1       0.077  -8.138  -6.554  0.00  0.00    +0.022 A 
ATOM     35  C   UNL     1       1.013  -8.369  -5.565  0.00  0.00    +0.025 A 
ATOM     36 CL   UNL     1      -2.349  -8.428  -7.718  0.00  0.00    -0.084 Cl
ENDBRANCH  28  30
ENDBRANCH   2  26
TORSDOF 6
