REMARK  Name = ZINC39325016
REMARK  9 active torsions:
REMARK  status: ('A' for Active; 'I' for Inactive)
REMARK    1  A    between atoms: C_1  and  C_2
REMARK    2  A    between atoms: C_2  and  C_3
REMARK    3  A    between atoms: C_6  and  C_9
REMARK    4  A    between atoms: N_14  and  C_28
REMARK    5  A    between atoms: C_18  and  C_26
REMARK    6  A    between atoms: C_19  and  N_25
REMARK    7  A    between atoms: C_20  and  C_21
REMARK    8  A    between atoms: C_20  and  C_23
REMARK    9  A    between atoms: C_28  and  C_29
REMARK                            x       y       z     vdW  Elec       q    Type
REMARK                         _______ _______ _______ _____ _____    ______ ____
ROOT
ATOM      1  C   UNL     1       2.707  -1.868  -4.752  0.00  0.00    +0.067 C 
ATOM      2  C   UNL     1       3.683  -0.796  -5.241  0.00  0.00    +0.044 C 
ATOM      3  C   UNL     1       3.011   0.551  -5.390  0.00  0.00    +0.094 C 
ATOM      4  N   UNL     1       2.647   0.831  -6.782  0.00  0.00    -0.294 NA
ATOM      5  C   UNL     1       3.850   0.830  -7.632  0.00  0.00    +0.112 C 
ATOM      6  C   UNL     1       4.439  -0.558  -7.593  0.00  0.00    -0.006 C 
ATOM      7  C   UNL     1       4.316  -1.285  -6.512  0.00  0.00    -0.026 C 
ATOM      8  C   UNL     1       4.792  -2.691  -6.535  0.00  0.00    +0.074 C 
ATOM      9  C   UNL     1       4.386  -3.544  -5.561  0.00  0.00    +0.054 C 
ATOM     10  C   UNL     1       3.487  -3.143  -4.430  0.00  0.00    +0.188 C 
ENDROOT
BRANCH   1  14
ATOM     11  C   UNL     1       0.707  -0.486  -1.240  0.00  0.00    -0.048 A 
ATOM     12  C   UNL     1       2.072  -0.310  -1.373  0.00  0.00    +0.004 A 
ATOM     13  C   UNL     1       2.719  -0.757  -2.509  0.00  0.00    +0.004 A 
ATOM     14  C   UNL     1       2.002  -1.381  -3.513  0.00  0.00    -0.041 A 
ATOM     15  C   UNL     1       0.637  -1.558  -3.379  0.00  0.00    +0.004 A 
ATOM     16  C   UNL     1      -0.009  -1.114  -2.241  0.00  0.00    +0.004 A 
BRANCH  11  18
ATOM     17  C   UNL     1      -0.005  -1.108   1.053  0.00  0.00    +0.009 C 
ATOM     18  C   UNL     1       0.002   0.002  -0.000  0.00  0.00    +0.032 C 
ENDBRANCH  11  18
ENDBRANCH   1  14
BRANCH   9  19
ATOM     19  N   UNL     1       4.817  -4.840  -5.615  0.00  0.00    -0.358 N 
ATOM     20  H   UNL     1       5.398  -5.128  -6.337  0.00  0.00    +0.142 HD
ATOM     21  H   UNL     1       4.542  -5.472  -4.932  0.00  0.00    +0.142 HD
ENDBRANCH   9  19
BRANCH  10  22
ATOM     22  C   UNL     1       4.305  -2.914  -3.228  0.00  0.00    +0.091 C 
ATOM     23  N   UNL     1       4.936  -2.737  -2.300  0.00  0.00    -0.194 NA
ENDBRANCH  10  22
BRANCH  10  24
ATOM     24  C   UNL     1       2.535  -4.233  -4.160  0.00  0.00    +0.091 C 
ATOM     25  N   UNL     1       1.800  -5.074  -3.952  0.00  0.00    -0.194 NA
ENDBRANCH  10  24
BRANCH   8  26
ATOM     26  C   UNL     1       5.669  -3.141  -7.573  0.00  0.00    +0.101 C 
ATOM     27  N   UNL     1       6.365  -3.499  -8.397  0.00  0.00    -0.191 NA
ENDBRANCH   8  26
BRANCH   4  28
ATOM     28  C   UNL     1       1.926   2.106  -6.891  0.00  0.00    +0.120 C 
BRANCH  28  29
ATOM     29  C   UNL     1       1.356   2.244  -8.279  0.00  0.00    -0.033 A 
ATOM     30  C   UNL     1       2.104   2.841  -9.277  0.00  0.00    +0.005 A 
ATOM     31  C   UNL     1       1.581   2.967 -10.550  0.00  0.00    +0.000 A 
ATOM     32  C   UNL     1       0.311   2.497 -10.826  0.00  0.00    +0.000 A 
ATOM     33  C   UNL     1      -0.436   1.899  -9.828  0.00  0.00    +0.000 A 
ATOM     34  C   UNL     1       0.088   1.769  -8.556  0.00  0.00    +0.005 A 
ENDBRANCH  28  29
ENDBRANCH   4  28
TORSDOF 8
