REMARK  Name = ZINC27489247
REMARK  10 active torsions:
REMARK  status: ('A' for Active; 'I' for Inactive)
REMARK    1  A    between atoms: C_1  and  C_2
REMARK    2  A    between atoms: C_2  and  C_3
REMARK    3  A    between atoms: C_3  and  O_4
REMARK    4  A    between atoms: O_4  and  C_5
REMARK    5  A    between atoms: C_5  and  C_7
REMARK    6  A    between atoms: C_11  and  N_12
REMARK    7  A    between atoms: C_13  and  C_15
REMARK    8  A    between atoms: C_17  and  S_23
REMARK    9  A    between atoms: S_23  and  N_26
REMARK   10  A    between atoms: C_28  and  C_32
REMARK                            x       y       z     vdW  Elec       q    Type
REMARK                         _______ _______ _______ _____ _____    ______ ____
ROOT
ATOM      1  N   UNL     1       1.254   3.766   2.497  0.00  0.00    -0.275 N 
ATOM      2  C   UNL     1       1.292   4.621   3.538  0.00  0.00    +0.250 C 
ATOM      3  O   UNL     1       1.337   5.819   3.340  0.00  0.00    -0.270 OA
ATOM      4  H   UNL     1       1.212   2.682   2.676  0.00  0.00    +0.156 HD
ENDROOT
BRANCH   1   9
ATOM      5  C   UNL     1       1.232   3.539   0.009  0.00  0.00    +0.091 A 
ATOM      6  C   UNL     1       1.250   4.300  -1.229  0.00  0.00    -0.021 A 
ATOM      7  C   UNL     1       1.303   5.641  -1.081  0.00  0.00    -0.004 A 
ATOM      8  S   UNL     1       1.331   5.902   0.670  0.00  0.00    -0.077 S 
ATOM      9  C   UNL     1       1.266   4.253   1.200  0.00  0.00    +0.087 A 
ATOM     10  C   UNL     1       1.331   6.670  -2.168  0.00  0.00    +0.046 C 
ATOM     11  C   UNL     1       0.913   5.996  -3.483  0.00  0.00    -0.009 C 
ATOM     12  C   UNL     1       1.699   4.691  -3.639  0.00  0.00    +0.008 C 
ATOM     13  C   UNL     1       1.213   3.665  -2.614  0.00  0.00    +0.037 C 
ATOM     14  C   UNL     1       1.224   6.925  -4.658  0.00  0.00    +0.008 C 
BRANCH   5  15
ATOM     15  C   UNL     1       1.176   2.076   0.002  0.00  0.00    +0.342 C 
ATOM     16  O   UNL     1       2.205   1.428  -0.011  0.00  0.00    -0.245 OA
BRANCH  15  17
ATOM     17  O   UNL     1      -0.018   1.448   0.010  0.00  0.00    -0.461 OA
BRANCH  17  18
ATOM     18  C   UNL     1       0.002  -0.004   0.002  0.00  0.00    +0.232 C 
BRANCH  18  20
ATOM     19  C   UNL     1      -1.413  -2.063   0.004  0.00  0.00    +0.007 C 
ATOM     20  C   UNL     1      -1.433  -0.534   0.013  0.00  0.00    +0.038 C 
ENDBRANCH  18  20
ENDBRANCH  17  18
ENDBRANCH  15  17
ENDBRANCH   5  15
ENDBRANCH   1   9
BRANCH   2  21
ATOM     21  C   UNL     1       1.278   4.101   4.920  0.00  0.00    +0.057 A 
ATOM     22  C   UNL     1       1.220   2.725   5.152  0.00  0.00    +0.044 A 
ATOM     23  C   UNL     1       1.212   2.245   6.444  0.00  0.00    +0.124 A 
ATOM     24  C   UNL     1       1.252   3.126   7.513  0.00  0.00    +0.069 A 
ATOM     25  C   UNL     1       1.305   4.491   7.292  0.00  0.00    +0.042 A 
ATOM     26  C   UNL     1       1.318   4.984   6.003  0.00  0.00    +0.055 A 
ATOM     27 CL   UNL     1       1.383   6.697   5.726  0.00  0.00    -0.083 Cl
ATOM     28 CL   UNL     1       1.236   2.514   9.138  0.00  0.00    -0.081 Cl
BRANCH  23  29
ATOM     29  S   UNL     1       1.146   0.509   6.737  0.00  0.00    +0.057 S 
ATOM     30  O   UNL     1       0.116   0.298   7.693  0.00  0.00    -0.153 OA
ATOM     31  O   UNL     1       1.142  -0.118   5.462  0.00  0.00    -0.153 OA
BRANCH  29  32
ATOM     32  N   UNL     1       2.568   0.082   7.470  0.00  0.00    -0.203 NA
ATOM     33  H   UNL     1       2.566  -1.000   7.671  0.00  0.00    +0.144 HD
ATOM     34  H   UNL     1       2.671   0.630   8.418  0.00  0.00    +0.144 HD
ENDBRANCH  29  32
ENDBRANCH  23  29
ENDBRANCH   2  21
TORSDOF 8
