REMARK  Name = ZINC13592310
REMARK  9 active torsions:
REMARK  status: ('A' for Active; 'I' for Inactive)
REMARK    1  A    between atoms: C_1  and  C_2
REMARK    2  A    between atoms: C_2  and  O_3
REMARK    3  A    between atoms: O_3  and  C_4
REMARK    4  A    between atoms: C_4  and  C_6
REMARK    5  A    between atoms: C_9  and  N_12
REMARK    6  A    between atoms: C_13  and  C_15
REMARK    7  A    between atoms: C_18  and  C_32
REMARK    8  A    between atoms: C_32  and  C_34
REMARK    9  A    between atoms: C_32  and  O_35
REMARK                            x       y       z     vdW  Elec       q    Type
REMARK                         _______ _______ _______ _____ _____    ______ ____
ROOT
ATOM      1  C   UNL     1       4.182  -5.587  -7.339  0.00  0.00    +0.110 C 
ATOM      2  C   UNL     1       5.672  -5.171  -7.303  0.00  0.00    +0.036 C 
ATOM      3  C   UNL     1       6.379  -6.453  -6.795  0.00  0.00    +0.084 C 
ATOM      4  N   UNL     1       5.611  -7.549  -7.444  0.00  0.00    -0.294 NA
ATOM      5  C   UNL     1       4.201  -7.118  -7.416  0.00  0.00    +0.135 C 
ATOM      6  C   UNL     1       3.470  -7.728  -6.251  0.00  0.00    +0.005 A 
ATOM      7  C   UNL     1       3.647  -7.666  -4.886  0.00  0.00    +0.008 A 
ATOM      8  C   UNL     1       2.792  -8.354  -4.045  0.00  0.00    +0.002 A 
ATOM      9  C   UNL     1       1.759  -9.104  -4.576  0.00  0.00    +0.022 A 
ATOM     10  C   UNL     1       1.576  -9.169  -5.943  0.00  0.00    +0.062 A 
ATOM     11  C   UNL     1       2.434  -8.478  -6.798  0.00  0.00    +0.057 A 
ATOM     12  N   UNL     1       2.455  -8.386  -8.191  0.00  0.00    -0.282 N 
ATOM     13  C   UNL     1       3.460  -7.607  -8.634  0.00  0.00    +0.243 C 
ATOM     14  O   UNL     1       3.718  -7.348  -9.790  0.00  0.00    -0.273 OA
ATOM     15 CL   UNL     1       0.276 -10.114  -6.599  0.00  0.00    -0.082 Cl
ATOM     16  H   UNL     1       5.924  -7.697  -8.392  0.00  0.00    +0.124 HD
ATOM     17  H   UNL     1       1.820  -8.832  -8.773  0.00  0.00    +0.155 HD
ENDROOT
BRANCH   1  19
ATOM     18  N   UNL     1       2.136  -5.038  -6.062  0.00  0.00    -0.285 N 
ATOM     19  C   UNL     1       3.480  -5.134  -6.085  0.00  0.00    +0.223 C 
ATOM     20  O   UNL     1       4.125  -4.855  -5.096  0.00  0.00    -0.275 OA
ATOM     21  H   UNL     1       1.616  -5.332  -6.826  0.00  0.00    +0.155 HD
BRANCH  18  25
ATOM     22  C   UNL     1       0.215  -3.484  -2.708  0.00  0.00    +0.059 A 
ATOM     23  C   UNL     1       1.473  -3.000  -3.083  0.00  0.00    +0.017 A 
ATOM     24  C   UNL     1       2.104  -3.517  -4.191  0.00  0.00    +0.024 A 
ATOM     25  C   UNL     1       1.493  -4.518  -4.939  0.00  0.00    +0.033 A 
ATOM     26  C   UNL     1       0.242  -5.002  -4.570  0.00  0.00    +0.024 A 
ATOM     27  C   UNL     1      -0.393  -4.494  -3.459  0.00  0.00    +0.017 A 
BRANCH  22  28
ATOM     28  C   UNL     1      -0.464  -2.933  -1.521  0.00  0.00    +0.339 C 
ATOM     29  O   UNL     1      -1.555  -3.358  -1.194  0.00  0.00    -0.245 OA
BRANCH  28  30
ATOM     30  O   UNL     1       0.124  -1.960  -0.799  0.00  0.00    -0.461 OA
BRANCH  30  32
ATOM     31  C   UNL     1       0.228  -0.380   1.027  0.00  0.00    +0.048 C 
ATOM     32  C   UNL     1      -0.592  -1.473   0.338  0.00  0.00    +0.229 C 
ENDBRANCH  30  32
ENDBRANCH  28  30
ENDBRANCH  22  28
ENDBRANCH  18  25
ENDBRANCH   1  19
BRANCH   3  33
ATOM     33  C   UNL     1       7.842  -6.477  -7.242  0.00  0.00    +0.128 C 
ATOM     34  C   UNL     1       8.512  -7.752  -6.726  0.00  0.00    +0.039 C 
BRANCH  33  35
ATOM     35  O   UNL     1       8.519  -5.335  -6.713  0.00  0.00    -0.391 OA
ATOM     36  H   UNL     1       9.454  -5.285  -6.957  0.00  0.00    +0.210 HD
ENDBRANCH  33  35
ENDBRANCH   3  33
TORSDOF 7
