REMARK  Name = ZINC05850614
REMARK  8 active torsions:
REMARK  status: ('A' for Active; 'I' for Inactive)
REMARK    1  A    between atoms: C_1  and  C_2
REMARK    2  A    between atoms: C_2  and  O_4
REMARK    3  A    between atoms: O_4  and  C_5
REMARK    4  A    between atoms: C_13  and  C_20
REMARK    5  A    between atoms: N_15  and  O_16
REMARK    6  A    between atoms: O_16  and  C_17
REMARK    7  A    between atoms: C_17  and  C_19
REMARK    8  A    between atoms: C_29  and  N_31
REMARK                            x       y       z     vdW  Elec       q    Type
REMARK                         _______ _______ _______ _____ _____    ______ ____
ROOT
ATOM      1  C   UNL     1      -1.799  -1.641  -1.055  0.00  0.00    +0.249 C 
ATOM      2  C   UNL     1      -1.712  -3.114  -0.559  0.00  0.00    +0.175 C 
ATOM      3  C   UNL     1      -1.917  -2.927   0.956  0.00  0.00    +0.171 C 
ATOM      4  C   UNL     1      -1.413  -4.132   1.720  0.00  0.00    +0.195 C 
ATOM      5  O   UNL     1      -0.069  -4.426   1.407  0.00  0.00    -0.352 OA
ATOM      6  C   UNL     1       0.403  -4.284   0.101  0.00  0.00    +0.260 C 
ATOM      7  N   UNL     1      -0.385  -3.603  -0.878  0.00  0.00    -0.096 NA
ATOM      8  O   UNL     1      -1.188  -1.729   1.269  0.00  0.00    -0.345 OA
ATOM      9  C   UNL     1      -1.452  -0.807   0.194  0.00  0.00    +0.266 C 
ENDROOT
BRANCH   9  10
ATOM     10  N   UNL     1      -0.264   0.009  -0.066  0.00  0.00    -0.270 N 
ATOM     11  C   UNL     1      -0.367   1.374  -0.074  0.00  0.00    +0.098 A 
ATOM     12  C   UNL     1       0.729   2.126  -0.313  0.00  0.00    +0.088 A 
ATOM     13  C   UNL     1       1.967   1.482  -0.551  0.00  0.00    +0.254 A 
ATOM     14  O   UNL     1       2.969   2.139  -0.768  0.00  0.00    -0.268 OA
ATOM     15  N   UNL     1       2.027   0.135  -0.534  0.00  0.00    -0.275 N 
ATOM     16  H   UNL     1       2.898  -0.327  -0.702  0.00  0.00    +0.173 HD
ATOM     17  C   UNL     1       0.919  -0.590  -0.293  0.00  0.00    +0.331 A 
ATOM     18  O   UNL     1       0.988  -1.804  -0.281  0.00  0.00    -0.246 OA
ENDBRANCH   9  10
BRANCH   6  19
ATOM     19  C   UNL     1       0.677  -5.667  -0.429  0.00  0.00    +0.052 A 
ATOM     20  C   UNL     1      -0.366  -6.562  -0.602  0.00  0.00    +0.132 A 
ATOM     21  C   UNL     1      -0.113  -7.833  -1.090  0.00  0.00    +0.039 A 
ATOM     22  C   UNL     1       1.180  -8.208  -1.405  0.00  0.00    +0.004 A 
ATOM     23  C   UNL     1       2.220  -7.315  -1.232  0.00  0.00    +0.020 A 
ATOM     24  C   UNL     1       1.969  -6.043  -0.750  0.00  0.00    +0.051 A 
ATOM     25 CL   UNL     1       3.276  -4.919  -0.541  0.00  0.00    -0.083 Cl
ATOM     26  F   UNL     1      -1.629  -6.195  -0.294  0.00  0.00    -0.205 F 
ENDBRANCH   6  19
BRANCH   1  27
ATOM     27  O   UNL     1      -0.834  -1.400  -2.113  0.00  0.00    -0.455 OA
BRANCH  27  29
ATOM     28  C   UNL     1      -0.165  -0.113  -4.111  0.00  0.00    +0.136 C 
ATOM     29  C   UNL     1      -1.119  -0.421  -2.986  0.00  0.00    +0.304 C 
ATOM     30  O   UNL     1      -2.142   0.213  -2.870  0.00  0.00    -0.251 OA
ENDBRANCH  27  29
ENDBRANCH   1  27
BRANCH   7  31
ATOM     31  O   UNL     1      -0.385  -4.250  -2.010  0.00  0.00    -0.364 OA
BRANCH  31  32
ATOM     32  C   UNL     1       0.512  -3.865  -2.931  0.00  0.00    +0.323 C 
ATOM     33  O   UNL     1       1.333  -3.020  -2.660  0.00  0.00    -0.249 OA
ATOM     34  C   UNL     1       0.497  -4.487  -4.303  0.00  0.00    +0.138 C 
ENDBRANCH  31  32
ENDBRANCH   7  31
TORSDOF 6
