REMARK  Name = ZINC66625982
REMARK  5 active torsions:
REMARK  status: ('A' for Active; 'I' for Inactive)
REMARK    1  A    between atoms: C_1  and  N_2
REMARK    2  A    between atoms: C_3  and  C_8
REMARK    3  A    between atoms: C_8  and  N_9
REMARK    4  A    between atoms: C_10  and  C_12
REMARK    5  A    between atoms: C_12  and  N_13
REMARK                            x       y       z     vdW  Elec       q    Type
REMARK                         _______ _______ _______ _____ _____    ______ ____
ROOT
ATOM      1  C   UNL     1      -1.000   7.777  -1.529  0.00  0.00    +0.213 C 
ENDROOT
BRANCH   1   2
ATOM      2  N   UNL     1      -0.551   8.932  -0.748  0.00  0.00    -0.215 N 
ATOM      3  C   UNL     1      -1.277   9.516   0.228  0.00  0.00    +0.247 C 
ATOM      4  O   UNL     1      -2.382   9.197   0.611  0.00  0.00    -0.273 OA
ATOM      5  C   UNL     1      -0.422  10.651   0.743  0.00  0.00    +0.113 C 
ATOM      6  C   UNL     1      -0.095  10.443   2.217  0.00  0.00    +0.035 C 
ATOM      7  C   UNL     1       0.796  11.586   2.711  0.00  0.00    +0.003 C 
ATOM      8  C   UNL     1       0.069  12.918   2.514  0.00  0.00    +0.000 C 
ATOM      9  C   UNL     1      -0.231  13.123   1.028  0.00  0.00    +0.003 C 
ATOM     10  C   UNL     1      -1.126  11.986   0.528  0.00  0.00    +0.035 C 
ATOM     11  N   UNL     1       0.798  10.575  -0.071  0.00  0.00    -0.285 N 
ATOM     12  C   UNL     1       0.632   9.536  -0.911  0.00  0.00    +0.310 C 
ATOM     13  O   UNL     1       1.462   9.188  -1.728  0.00  0.00    -0.252 OA
ATOM     14  H   UNL     1       1.572  11.157  -0.012  0.00  0.00    +0.151 HD
ENDBRANCH   1   2
BRANCH   1  16
ATOM     15  N   UNL     1      -0.882   5.311  -1.377  0.00  0.00    -0.307 N 
ATOM     16  C   UNL     1      -0.576   6.507  -0.837  0.00  0.00    +0.231 C 
ATOM     17  O   UNL     1       0.041   6.562   0.206  0.00  0.00    -0.274 OA
ATOM     18  H   UNL     1      -1.375   5.267  -2.211  0.00  0.00    +0.149 HD
BRANCH  15  19
ATOM     19  C   UNL     1      -0.469   4.076  -0.704  0.00  0.00    +0.180 C 
BRANCH  19  22
ATOM     20  C   UNL     1      -0.013   1.086   0.008  0.00  0.00    +0.152 C 
ATOM     21  N   UNL     1      -0.721   1.571  -1.179  0.00  0.00    -0.309 N 
ATOM     22  C   UNL     1      -0.931   2.888  -1.508  0.00  0.00    +0.149 A 
ATOM     23  N   UNL     1      -1.590   2.941  -2.620  0.00  0.00    -0.157 NA
ATOM     24  N   UNL     1      -1.829   1.628  -3.048  0.00  0.00    -0.254 N 
ATOM     25  C   UNL     1      -1.274   0.801  -2.138  0.00  0.00    +0.175 A 
ATOM     26  S   UNL     1      -1.274  -0.910  -2.189  0.00  0.00    -0.011 S 
ATOM     27  H   UNL     1      -2.303   1.363  -3.852  0.00  0.00    +0.191 HD
ENDBRANCH  19  22
ENDBRANCH  15  19
ENDBRANCH   1  16
TORSDOF 4
