REMARK  Name = ZINC34775598
REMARK  7 active torsions:
REMARK  status: ('A' for Active; 'I' for Inactive)
REMARK    1  A    between atoms: C_1  and  C_2
REMARK    2  A    between atoms: C_5  and  N_8
REMARK    3  A    between atoms: C_9  and  C_11
REMARK    4  A    between atoms: C_11  and  N_12
REMARK    5  A    between atoms: N_20  and  C_21
REMARK    6  A    between atoms: C_22  and  C_32
REMARK    7  A    between atoms: C_23  and  C_26
REMARK                            x       y       z     vdW  Elec       q    Type
REMARK                         _______ _______ _______ _____ _____    ______ ____
ROOT
ATOM      1  N   UNL     1       0.428  -6.846   2.493  0.00  0.00    +0.387 N 
ATOM      2  C   UNL     1       1.668  -6.343   3.098  0.00  0.00    -0.059 C 
ATOM      3  C   UNL     1       1.724  -6.764   4.570  0.00  0.00    +0.091 C 
ATOM      4  N   UNL     1       1.563  -8.225   4.643  0.00  0.00    -0.289 N 
ATOM      5  C   UNL     1       0.434  -8.835   3.925  0.00  0.00    +0.091 C 
ATOM      6  C   UNL     1       0.438  -8.315   2.483  0.00  0.00    -0.059 C 
ATOM      7  C   UNL     1       2.427  -8.983   5.348  0.00  0.00    +0.307 C 
ATOM      8  O   UNL     1       3.300  -8.455   6.009  0.00  0.00    -0.252 OA
ATOM      9  N   UNL     1       2.321 -10.326   5.321  0.00  0.00    -0.263 N 
ATOM     10  H   UNL     1       1.581 -10.745   4.855  0.00  0.00    +0.157 HD
ATOM     11  H   UNL     1      -0.362  -6.520   3.029  0.00  0.00    -0.081 HD
ENDROOT
BRANCH   9  12
ATOM     12  C   UNL     1       3.272 -11.109   5.958  0.00  0.00    +0.086 A 
ATOM     13  C   UNL     1       3.325 -12.491   6.027  0.00  0.00    +0.073 A 
ATOM     14  C   UNL     1       4.438 -13.063   6.764  0.00  0.00    +0.003 A 
ATOM     15  C   UNL     1       5.302 -12.164   7.303  0.00  0.00    +0.056 A 
ATOM     16  S   UNL     1       4.621 -10.596   6.812  0.00  0.00    -0.080 S 
BRANCH  14  17
ATOM     17  C   UNL     1       4.618 -14.526   6.918  0.00  0.00    -0.017 A 
ATOM     18  C   UNL     1       3.555 -15.320   7.346  0.00  0.00    +0.008 A 
ATOM     19  C   UNL     1       3.728 -16.682   7.488  0.00  0.00    +0.001 A 
ATOM     20  C   UNL     1       4.954 -17.259   7.207  0.00  0.00    +0.000 A 
ATOM     21  C   UNL     1       6.012 -16.476   6.783  0.00  0.00    +0.001 A 
ATOM     22  C   UNL     1       5.849 -15.114   6.631  0.00  0.00    +0.008 A 
ENDBRANCH  14  17
BRANCH  13  23
ATOM     23  C   UNL     1       2.310 -13.333   5.390  0.00  0.00    +0.244 C 
ATOM     24  O   UNL     1       2.462 -13.706   4.241  0.00  0.00    -0.270 OA
ATOM     25  N   UNL     1       1.208 -13.696   6.075  0.00  0.00    -0.325 N 
ATOM     26  H   UNL     1       1.086 -13.399   6.991  0.00  0.00    +0.145 HD
ATOM     27  H   UNL     1       0.536 -14.254   5.653  0.00  0.00    +0.145 HD
ENDBRANCH  13  23
ENDBRANCH   9  12
BRANCH   1  28
ATOM     28  C   UNL     1       0.321  -6.350   1.115  0.00  0.00    +0.019 C 
BRANCH  28  30
ATOM     29  N   UNL     1       0.074  -4.170  -0.028  0.00  0.00    -0.287 N 
ATOM     30  C   UNL     1       0.188  -4.849   1.131  0.00  0.00    +0.201 C 
ATOM     31  O   UNL     1       0.182  -4.252   2.186  0.00  0.00    -0.278 OA
ATOM     32  H   UNL     1       0.011  -4.652  -0.868  0.00  0.00    +0.155 HD
BRANCH  29  37
ATOM     33  C   UNL     1      -0.031   1.502   0.006  0.00  0.00    +0.044 C 
ATOM     34  C   UNL     1      -0.003  -0.005  -0.003  0.00  0.00    -0.050 A 
ATOM     35  C   UNL     1      -0.593  -0.712   1.029  0.00  0.00    +0.005 A 
ATOM     36  C   UNL     1      -0.569  -2.093   1.024  0.00  0.00    +0.023 A 
ATOM     37  C   UNL     1       0.048  -2.771  -0.020  0.00  0.00    +0.033 A 
ATOM     38  C   UNL     1       0.638  -2.058  -1.055  0.00  0.00    +0.023 A 
ATOM     39  C   UNL     1       0.607  -0.677  -1.046  0.00  0.00    +0.005 A 
ENDBRANCH  29  37
ENDBRANCH  28  30
ENDBRANCH   1  28
TORSDOF 6
