REMARK  Name = ZINC67470115
REMARK  6 active torsions:
REMARK  status: ('A' for Active; 'I' for Inactive)
REMARK    1  A    between atoms: C_4  and  N_7
REMARK    2  A    between atoms: N_10  and  N_11
REMARK    3  A    between atoms: N_14  and  C_15
REMARK    4  A    between atoms: C_15  and  C_16
REMARK    5  A    between atoms: C_16  and  C_19
REMARK    6  A    between atoms: C_23  and  C_25
REMARK                            x       y       z     vdW  Elec       q    Type
REMARK                         _______ _______ _______ _____ _____    ______ ____
ROOT
ATOM      1  N   UNL     1       4.766  -2.898   0.517  0.00  0.00    -0.217 N 
ATOM      2  C   UNL     1       6.082  -3.127   0.333  0.00  0.00    +0.316 C 
ATOM      3  O   UNL     1       6.836  -2.199   0.113  0.00  0.00    -0.251 OA
ATOM      4  N   UNL     1       6.561  -4.386   0.393  0.00  0.00    -0.297 N 
ATOM      5  H   UNL     1       4.432  -1.988   0.547  0.00  0.00    +0.174 HD
ATOM      6  H   UNL     1       5.952  -5.133   0.496  0.00  0.00    +0.150 HD
ENDROOT
BRANCH   1  10
ATOM      7  N   UNL     1       2.080  -2.491   0.682  0.00  0.00    -0.268 N 
ATOM      8  C   UNL     1       2.555  -3.750   0.745  0.00  0.00    +0.320 C 
ATOM      9  O   UNL     1       1.788  -4.684   0.873  0.00  0.00    -0.251 OA
ATOM     10  N   UNL     1       3.882  -3.974   0.665  0.00  0.00    -0.217 N 
ATOM     11  H   UNL     1       2.684  -1.752   0.505  0.00  0.00    +0.156 HD
ATOM     12  H   UNL     1       4.224  -4.881   0.711  0.00  0.00    +0.174 HD
BRANCH   7  16
ATOM     13  C   UNL     1      -1.984  -1.767   1.246  0.00  0.00    +0.000 A 
ATOM     14  C   UNL     1      -1.051  -0.859   1.712  0.00  0.00    +0.002 A 
ATOM     15  C   UNL     1       0.297  -1.096   1.526  0.00  0.00    +0.023 A 
ATOM     16  C   UNL     1       0.715  -2.248   0.872  0.00  0.00    +0.035 A 
ATOM     17  C   UNL     1      -0.225  -3.158   0.406  0.00  0.00    +0.023 A 
ATOM     18  C   UNL     1      -1.572  -2.915   0.594  0.00  0.00    +0.002 A 
ENDBRANCH   7  16
ENDBRANCH   1  10
BRANCH   4  19
ATOM     19  C   UNL     1       8.004  -4.625   0.304  0.00  0.00    +0.117 C 
BRANCH  19  20
ATOM     20  C   UNL     1       8.271  -6.131   0.279  0.00  0.00    +0.011 C 
ATOM     21  C   UNL     1       9.224  -6.697   1.333  0.00  0.00    +0.014 C 
ATOM     22  C   UNL     1       7.721  -6.965   1.437  0.00  0.00    +0.014 C 
BRANCH  20  23
ATOM     23  C   UNL     1       8.288  -6.765  -1.088  0.00  0.00    -0.039 A 
ATOM     24  C   UNL     1       7.378  -7.757  -1.402  0.00  0.00    +0.004 A 
ATOM     25  C   UNL     1       7.394  -8.339  -2.655  0.00  0.00    +0.001 A 
ATOM     26  C   UNL     1       8.320  -7.928  -3.596  0.00  0.00    +0.012 A 
ATOM     27  C   UNL     1       9.229  -6.936  -3.283  0.00  0.00    +0.055 A 
ATOM     28  C   UNL     1       9.211  -6.351  -2.031  0.00  0.00    +0.016 A 
BRANCH  27  29
ATOM     29  C   UNL     1      10.239  -6.488  -4.309  0.00  0.00    +0.417 C 
ATOM     30  F   UNL     1      10.060  -7.218  -5.489  0.00  0.00    -0.166 F 
ATOM     31  F   UNL     1      10.065  -5.125  -4.572  0.00  0.00    -0.166 F 
ATOM     32  F   UNL     1      11.531  -6.707  -3.817  0.00  0.00    -0.166 F 
ENDBRANCH  27  29
ENDBRANCH  20  23
ENDBRANCH  19  20
ENDBRANCH   4  19
TORSDOF 6
