REMARK  Name = ZINC66122499
REMARK  9 active torsions:
REMARK  status: ('A' for Active; 'I' for Inactive)
REMARK    1  A    between atoms: C_1  and  C_2
REMARK    2  A    between atoms: C_2  and  C_3
REMARK    3  A    between atoms: C_2  and  C_4
REMARK    4  A    between atoms: C_9  and  N_10
REMARK    5  A    between atoms: N_10  and  C_11
REMARK    6  A    between atoms: C_11  and  N_13
REMARK    7  A    between atoms: N_13  and  N_14
REMARK    8  A    between atoms: C_15  and  C_17
REMARK    9  A    between atoms: N_25  and  C_26
REMARK                            x       y       z     vdW  Elec       q    Type
REMARK                         _______ _______ _______ _____ _____    ______ ____
ROOT
ATOM      1  N   UNL     1      -0.698  -1.525  -4.612  0.00  0.00    -0.245 N 
ATOM      2  H   UNL     1      -1.030  -1.919  -5.434  0.00  0.00    +0.172 HD
ENDROOT
BRANCH   1   3
ATOM      3  N   UNL     1       0.682  -1.437  -4.385  0.00  0.00    -0.230 N 
ATOM      4  C   UNL     1       1.548  -1.898  -5.310  0.00  0.00    +0.277 C 
ATOM      5  O   UNL     1       1.133  -2.470  -6.300  0.00  0.00    -0.267 OA
ATOM      6  H   UNL     1       1.014  -1.043  -3.563  0.00  0.00    +0.173 HD
BRANCH   4   7
ATOM      7  C   UNL     1       2.994  -1.710  -5.122  0.00  0.00    +0.107 A 
ATOM      8  C   UNL     1       3.581  -1.161  -4.026  0.00  0.00    +0.041 A 
ATOM      9  C   UNL     1       4.980  -1.163  -4.240  0.00  0.00    +0.001 A 
ATOM     10  C   UNL     1       6.072  -0.732  -3.474  0.00  0.00    +0.010 A 
ATOM     11  C   UNL     1       7.339  -0.869  -3.960  0.00  0.00    +0.001 A 
ATOM     12  C   UNL     1       7.559  -1.434  -5.211  0.00  0.00    +0.002 A 
ATOM     13  C   UNL     1       6.504  -1.865  -5.982  0.00  0.00    +0.026 A 
ATOM     14  C   UNL     1       5.201  -1.736  -5.508  0.00  0.00    +0.049 A 
ATOM     15  N   UNL     1       3.973  -2.068  -6.028  0.00  0.00    -0.339 N 
ATOM     16  C   UNL     1       3.740  -2.697  -7.330  0.00  0.00    +0.149 C 
ENDBRANCH   4   7
ENDBRANCH   1   3
BRANCH   1  17
ATOM     17  C   UNL     1      -1.563  -1.064  -3.687  0.00  0.00    +0.151 C 
ATOM     18  S   UNL     1      -3.249  -1.173  -3.964  0.00  0.00    -0.017 S 
BRANCH  17  19
ATOM     19  N   UNL     1      -1.101  -0.518  -2.545  0.00  0.00    -0.296 N 
ATOM     20  H   UNL     1      -0.148  -0.387  -2.421  0.00  0.00    +0.154 HD
BRANCH  19  26
ATOM     21  C   UNL     1      -1.704  -0.410  -0.209  0.00  0.00    -0.024 A 
ATOM     22  C   UNL     1      -2.587  -0.030   0.783  0.00  0.00    +0.006 A 
ATOM     23  C   UNL     1      -3.764   0.616   0.452  0.00  0.00    +0.000 A 
ATOM     24  C   UNL     1      -4.062   0.882  -0.873  0.00  0.00    +0.002 A 
ATOM     25  C   UNL     1      -3.183   0.504  -1.869  0.00  0.00    +0.023 A 
ATOM     26  C   UNL     1      -1.997  -0.139  -1.539  0.00  0.00    +0.036 A 
BRANCH  21  28
ATOM     27  C   UNL     1       0.452  -0.181   0.995  0.00  0.00    +0.012 C 
ATOM     28  C   UNL     1      -0.421  -1.113   0.153  0.00  0.00    +0.015 C 
ATOM     29  C   UNL     1      -0.740  -2.376   0.956  0.00  0.00    +0.012 C 
ENDBRANCH  21  28
ENDBRANCH  19  26
ENDBRANCH  17  19
ENDBRANCH   1  17
TORSDOF 6
