REMARK  Name = ZINC04676917
REMARK  7 active torsions:
REMARK  status: ('A' for Active; 'I' for Inactive)
REMARK    1  A    between atoms: C_1  and  C_2
REMARK    2  A    between atoms: C_2  and  N_3
REMARK    3  A    between atoms: N_3  and  N_4
REMARK    4  A    between atoms: C_5  and  C_7
REMARK    5  A    between atoms: C_12  and  O_13
REMARK    6  A    between atoms: C_15  and  C_16
REMARK    7  A    between atoms: N_18  and  C_19
REMARK                            x       y       z     vdW  Elec       q    Type
REMARK                         _______ _______ _______ _____ _____    ______ ____
ROOT
ATOM      1  N   UNL     1      -0.052   1.739  -2.377  0.00  0.00    -0.268 N 
ATOM      2  H   UNL     1       0.918   1.707  -2.377  0.00  0.00    +0.170 HD
ENDROOT
BRANCH   1   3
ATOM      3  N   UNL     1      -0.748   1.871  -3.585  0.00  0.00    -0.233 N 
ATOM      4  C   UNL     1      -0.071   1.953  -4.748  0.00  0.00    +0.264 C 
ATOM      5  O   UNL     1       1.144   1.913  -4.748  0.00  0.00    -0.269 OA
ATOM      6  H   UNL     1      -1.718   1.902  -3.585  0.00  0.00    +0.173 HD
BRANCH   4   7
ATOM      7  C   UNL     1      -0.805   2.091  -6.020  0.00  0.00    +0.081 A 
ATOM      8  C   UNL     1      -2.201   2.143  -6.024  0.00  0.00    +0.032 A 
ATOM      9  C   UNL     1      -2.880   2.273  -7.217  0.00  0.00    +0.019 A 
ATOM     10  C   UNL     1      -2.184   2.352  -8.413  0.00  0.00    +0.019 A 
ATOM     11  C   UNL     1      -0.804   2.301  -8.422  0.00  0.00    +0.047 A 
ATOM     12  C   UNL     1      -0.105   2.177  -7.231  0.00  0.00    +0.129 A 
ATOM     13 BR   UNL     1      -4.770   2.343  -7.221  0.00  0.00    -0.050 Br
BRANCH  12  14
ATOM     14  O   UNL     1       1.251   2.133  -7.239  0.00  0.00    -0.506 OA
ATOM     15  H   UNL     1       1.615   1.241  -7.320  0.00  0.00    +0.292 HD
ENDBRANCH  12  14
ENDBRANCH   4   7
ENDBRANCH   1   3
BRANCH   1  17
ATOM     16  C   UNL     1       0.011   1.514   0.102  0.00  0.00    +0.062 C 
ATOM     17  C   UNL     1      -0.738   1.656  -1.198  0.00  0.00    +0.024 C 
ATOM     18  C   UNL     1      -2.087   1.700  -1.198  0.00  0.00    +0.087 C 
BRANCH  18  19
ATOM     19  C   UNL     1      -2.803   1.437  -0.007  0.00  0.00    +0.243 C 
ATOM     20  O   UNL     1      -2.202   1.192   1.023  0.00  0.00    -0.270 OA
ATOM     21  N   UNL     1      -4.150   1.456  -0.013  0.00  0.00    -0.282 N 
ATOM     22  H   UNL     1      -4.628   1.713  -0.817  0.00  0.00    +0.155 HD
BRANCH  21  23
ATOM     23  C   UNL     1      -4.860   1.106   1.140  0.00  0.00    +0.034 A 
ATOM     24  C   UNL     1      -4.363   1.444   2.392  0.00  0.00    +0.023 A 
ATOM     25  C   UNL     1      -5.066   1.097   3.529  0.00  0.00    +0.002 A 
ATOM     26  C   UNL     1      -6.264   0.414   3.422  0.00  0.00    +0.000 A 
ATOM     27  C   UNL     1      -6.761   0.076   2.176  0.00  0.00    +0.002 A 
ATOM     28  C   UNL     1      -6.066   0.425   1.035  0.00  0.00    +0.023 A 
ENDBRANCH  21  23
ENDBRANCH  18  19
ENDBRANCH   1  17
TORSDOF 6
