REMARK  Name = ZINC57543754
REMARK  9 active torsions:
REMARK  status: ('A' for Active; 'I' for Inactive)
REMARK    1  A    between atoms: C_1  and  C_2
REMARK    2  A    between atoms: C_5  and  N_22
REMARK    3  A    between atoms: C_7  and  N_8
REMARK    4  A    between atoms: N_11  and  C_12
REMARK    5  A    between atoms: N_15  and  C_18
REMARK    6  A    between atoms: C_18  and  C_19
REMARK    7  A    between atoms: C_19  and  C_20
REMARK    8  A    between atoms: C_19  and  C_21
REMARK    9  A    between atoms: C_23  and  C_25
REMARK                            x       y       z     vdW  Elec       q    Type
REMARK                         _______ _______ _______ _____ _____    ______ ____
ROOT
ATOM      1  N   UNL     1       0.436  -0.233   2.349  0.00  0.00    -0.269 N 
ATOM      2  C   UNL     1       0.824  -0.934   3.433  0.00  0.00    +0.304 C 
ATOM      3  O   UNL     1       1.081  -2.118   3.332  0.00  0.00    -0.253 OA
ATOM      4  N   UNL     1       0.926  -0.321   4.629  0.00  0.00    -0.296 N 
ATOM      5  H   UNL     1       0.292   0.724   2.416  0.00  0.00    +0.156 HD
ATOM      6  H   UNL     1       0.721   0.623   4.710  0.00  0.00    +0.151 HD
ENDROOT
BRANCH   1  13
ATOM      7  C   UNL     1      -1.443   0.870   0.522  0.00  0.00    +0.045 C 
ATOM      8  C   UNL     1      -0.665  -0.382   0.204  0.00  0.00    -0.029 A 
ATOM      9  C   UNL     1      -0.853  -1.023  -1.005  0.00  0.00    +0.007 A 
ATOM     10  C   UNL     1      -0.142  -2.170  -1.300  0.00  0.00    +0.024 A 
ATOM     11  C   UNL     1       0.764  -2.683  -0.379  0.00  0.00    +0.035 A 
ATOM     12  C   UNL     1       0.954  -2.042   0.836  0.00  0.00    +0.047 A 
ATOM     13  C   UNL     1       0.243  -0.886   1.126  0.00  0.00    +0.039 A 
BRANCH  11  14
ATOM     14  N   UNL     1       1.483  -3.846  -0.678  0.00  0.00    -0.285 N 
ATOM     15  C   UNL     1       1.895  -4.078  -1.940  0.00  0.00    +0.220 C 
ATOM     16  O   UNL     1       1.574  -3.321  -2.832  0.00  0.00    -0.275 OA
ATOM     17  H   UNL     1       1.684  -4.485   0.023  0.00  0.00    +0.155 HD
BRANCH  15  18
ATOM     18  C   UNL     1       2.756  -5.277  -2.243  0.00  0.00    +0.075 C 
ATOM     19  C   UNL     1       4.208  -5.020  -2.650  0.00  0.00    +0.013 C 
ATOM     20  C   UNL     1       3.192  -5.485  -3.695  0.00  0.00    +0.013 C 
ENDBRANCH  15  18
ENDBRANCH  11  14
ENDBRANCH   1  13
BRANCH   4  21
ATOM     21  C   UNL     1       1.347  -1.083   5.808  0.00  0.00    +0.071 C 
ATOM     22  C   UNL     1       0.131  -1.767   6.438  0.00  0.00    +0.004 C 
ATOM     23  C   UNL     1       0.564  -2.494   7.712  0.00  0.00    -0.077 C 
ATOM     24  N   UNL     1       1.131  -1.529   8.662  0.00  0.00    +0.380 N 
ATOM     25  C   UNL     1       2.340  -0.922   8.093  0.00  0.00    -0.077 C 
ATOM     26  C   UNL     1       1.975  -0.134   6.833  0.00  0.00    +0.004 C 
ATOM     27  H   UNL     1       0.451  -0.808   8.853  0.00  0.00    -0.082 HD
BRANCH  24  28
ATOM     28  C   UNL     1       1.473  -2.219   9.913  0.00  0.00    -0.076 C 
BRANCH  28  29
ATOM     29  C   UNL     1       1.947  -1.196  10.947  0.00  0.00    -0.034 C 
ATOM     30  C   UNL     1       0.791  -0.259  11.304  0.00  0.00    +0.005 C 
ATOM     31  C   UNL     1       2.421  -1.925  12.206  0.00  0.00    +0.005 C 
ENDBRANCH  28  29
ENDBRANCH  24  28
ENDBRANCH   4  21
TORSDOF 6
