REMARK  Name = ZINC57315855
REMARK  6 active torsions:
REMARK  status: ('A' for Active; 'I' for Inactive)
REMARK    1  A    between atoms: C_4  and  C_7
REMARK    2  A    between atoms: C_10  and  C_12
REMARK    3  A    between atoms: C_13  and  C_14
REMARK    4  A    between atoms: N_16  and  C_17
REMARK    5  A    between atoms: C_17  and  N_19
REMARK    6  A    between atoms: N_19  and  C_20
REMARK                            x       y       z     vdW  Elec       q    Type
REMARK                         _______ _______ _______ _____ _____    ______ ____
ROOT
ATOM      1  C   UNL     1       9.186   0.714  -0.878  0.00  0.00    +0.242 C 
ATOM      2  O   UNL     1       9.961  -0.157  -1.230  0.00  0.00    -0.270 OA
ATOM      3  N   UNL     1       9.656   1.912  -0.477  0.00  0.00    -0.264 N 
ATOM      4  H   UNL     1       9.039   2.606  -0.196  0.00  0.00    +0.157 HD
ENDROOT
BRANCH   1   6
ATOM      5  C   UNL     1       7.321  -0.738  -1.294  0.00  0.00    +0.051 C 
ATOM      6  C   UNL     1       7.795   0.469  -0.889  0.00  0.00    +0.071 C 
BRANCH   5  10
ATOM      7  C   UNL     1       3.762  -0.684  -1.081  0.00  0.00    +0.136 A 
ATOM      8  C   UNL     1       3.940  -1.967  -1.547  0.00  0.00    +0.050 A 
ATOM      9  C   UNL     1       5.316  -2.161  -1.692  0.00  0.00    +0.050 A 
ATOM     10  C   UNL     1       5.929  -0.983  -1.305  0.00  0.00    +0.129 A 
ATOM     11  O   UNL     1       4.968  -0.106  -0.946  0.00  0.00    -0.455 OA
BRANCH   7  15
ATOM     12  C   UNL     1       0.027   1.146  -0.229  0.00  0.00    +0.000 A 
ATOM     13  C   UNL     1       1.200   1.856  -0.044  0.00  0.00    +0.001 A 
ATOM     14  C   UNL     1       2.417   1.268  -0.319  0.00  0.00    +0.011 A 
ATOM     15  C   UNL     1       2.463  -0.048  -0.784  0.00  0.00    +0.017 A 
ATOM     16  C   UNL     1       1.275  -0.760  -0.968  0.00  0.00    +0.011 A 
ATOM     17  C   UNL     1       0.065  -0.159  -0.689  0.00  0.00    +0.001 A 
ENDBRANCH   7  15
ENDBRANCH   5  10
ENDBRANCH   1   6
BRANCH   3  18
ATOM     18  C   UNL     1      10.984   2.145  -0.466  0.00  0.00    +0.141 C 
ATOM     19  S   UNL     1      12.072   0.920  -0.961  0.00  0.00    -0.018 S 
BRANCH  18  20
ATOM     20  N   UNL     1      11.454   3.343  -0.065  0.00  0.00    -0.297 N 
ATOM     21  H   UNL     1      10.836   4.057   0.157  0.00  0.00    +0.154 HD
BRANCH  20  22
ATOM     22  C   UNL     1      12.835   3.557   0.032  0.00  0.00    +0.035 A 
ATOM     23  C   UNL     1      13.675   3.140  -0.995  0.00  0.00    +0.025 A 
ATOM     24  C   UNL     1      15.036   3.348  -0.906  0.00  0.00    +0.029 A 
ATOM     25  C   UNL     1      15.569   3.974   0.211  0.00  0.00    +0.067 A 
ATOM     26  C   UNL     1      14.728   4.394   1.244  0.00  0.00    +0.069 A 
ATOM     27  C   UNL     1      13.361   4.188   1.149  0.00  0.00    +0.051 A 
ATOM     28  N   UNL     1      15.541   4.980   2.212  0.00  0.00    -0.306 N 
ATOM     29  H   UNL     1      15.238   5.365   3.049  0.00  0.00    +0.170 HD
ATOM     30  C   UNL     1      16.817   4.919   1.788  0.00  0.00    +0.325 A 
ATOM     31  O   UNL     1      17.779   5.343   2.401  0.00  0.00    -0.247 OA
ATOM     32  N   UNL     1      16.868   4.319   0.585  0.00  0.00    -0.306 N 
ATOM     33  H   UNL     1      17.671   4.153   0.066  0.00  0.00    +0.170 HD
ENDBRANCH  20  22
ENDBRANCH  18  20
ENDBRANCH   3  18
TORSDOF 6
