REMARK  Name = ZINC52266261
REMARK  3 active torsions:
REMARK  status: ('A' for Active; 'I' for Inactive)
REMARK    1  A    between atoms: C_7  and  C_9
REMARK    2  A    between atoms: C_7  and  O_15
REMARK    3  A    between atoms: C_9  and  C_10
REMARK                            x       y       z     vdW  Elec       q    Type
REMARK                         _______ _______ _______ _____ _____    ______ ____
ROOT
ATOM      1  C   UNL     1      -0.079   1.493  -0.009  0.00  0.00    -0.012 C 
ATOM      2  C   UNL     1       1.350   2.041  -0.041  0.00  0.00    -0.078 C 
ATOM      3  N   UNL     1       2.311   0.936  -0.049  0.00  0.00    +0.382 N 
ATOM      4  C   UNL     1       2.133   0.107  -1.243  0.00  0.00    -0.078 C 
ATOM      5  C   UNL     1       0.730  -0.506  -1.251  0.00  0.00    -0.012 C 
ATOM      6  C   UNL     1      -0.021  -0.040   0.003  0.00  0.00    +0.022 C 
ATOM      7  C   UNL     1       0.776  -0.484   1.236  0.00  0.00    +0.128 C 
ATOM      8  C   UNL     1       2.177   0.128   1.165  0.00  0.00    -0.037 C 
ATOM      9  H   UNL     1       3.242   1.323  -0.074  0.00  0.00    -0.082 HD
ENDROOT
BRANCH   7  10
ATOM     10  C   UNL     1       0.070  -0.002   2.505  0.00  0.00    +0.373 C 
ATOM     11  F   UNL     1       0.712  -0.535   3.628  0.00  0.00    -0.190 F 
ATOM     12  F   UNL     1       0.116   1.395   2.561  0.00  0.00    -0.190 F 
BRANCH  10  13
ATOM     13  C   UNL     1      -1.367  -0.457   2.484  0.00  0.00    +0.427 C 
ATOM     14  O   UNL     1      -1.628  -1.647   2.435  0.00  0.00    -0.240 OA
ATOM     15  O   UNL     1      -2.267   0.365   2.515  0.00  0.00    -0.240 OA
ENDBRANCH  10  13
ENDBRANCH   7  10
BRANCH   7  16
ATOM     16  O   UNL     1       0.877  -1.910   1.254  0.00  0.00    -0.384 OA
ATOM     17  H   UNL     1       1.369  -2.260   2.009  0.00  0.00    +0.210 HD
ENDBRANCH   7  16
TORSDOF 3
