REMARK  Name = ZINC49118156
REMARK  6 active torsions:
REMARK  status: ('A' for Active; 'I' for Inactive)
REMARK    1  A    between atoms: C_1  and  C_2
REMARK    2  A    between atoms: C_2  and  C_3
REMARK    3  A    between atoms: C_6  and  S_10
REMARK    4  A    between atoms: C_8  and  N_9
REMARK    5  A    between atoms: S_10  and  N_13
REMARK    6  A    between atoms: N_13  and  C_14
REMARK                            x       y       z     vdW  Elec       q    Type
REMARK                         _______ _______ _______ _____ _____    ______ ____
ROOT
ATOM      1  S   UNL     1       3.032  -1.304  -4.433  0.00  0.00    +0.072 S 
ATOM      2  O   UNL     1       4.303  -1.908  -4.238  0.00  0.00    -0.150 OA
ATOM      3  O   UNL     1       1.817  -2.033  -4.325  0.00  0.00    -0.150 OA
ENDROOT
BRANCH   1   7
ATOM      4  C   UNL     1       2.747   2.115  -1.472  0.00  0.00    -0.027 A 
ATOM      5  C   UNL     1       1.605   1.457  -1.884  0.00  0.00    +0.007 A 
ATOM      6  C   UNL     1       1.693   0.414  -2.787  0.00  0.00    +0.029 A 
ATOM      7  C   UNL     1       2.925   0.026  -3.282  0.00  0.00    +0.110 A 
ATOM      8  C   UNL     1       4.071   0.680  -2.876  0.00  0.00    +0.051 A 
ATOM      9  C   UNL     1       3.985   1.732  -1.972  0.00  0.00    +0.030 A 
BRANCH   9  10
ATOM     10  N   UNL     1       5.142   2.399  -1.562  0.00  0.00    -0.358 N 
ATOM     11  H   UNL     1       5.081   3.130  -0.928  0.00  0.00    +0.142 HD
ATOM     12  H   UNL     1       6.006   2.130  -1.912  0.00  0.00    +0.142 HD
ENDBRANCH   9  10
BRANCH   4  14
ATOM     13  C   UNL     1       2.591   4.579  -1.245  0.00  0.00    +0.009 C 
ATOM     14  C   UNL     1       2.650   3.251  -0.487  0.00  0.00    +0.033 C 
ENDBRANCH   4  14
ENDBRANCH   1   7
BRANCH   1  15
ATOM     15  N   UNL     1       3.051  -0.639  -5.949  0.00  0.00    -0.216 N 
ATOM     16  H   UNL     1       3.826  -0.758  -6.521  0.00  0.00    +0.174 HD
BRANCH  15  17
ATOM     17  C   UNL     1       1.952   0.093  -6.406  0.00  0.00    +0.051 A 
ATOM     18  C   UNL     1       0.791  -0.564  -6.794  0.00  0.00    +0.026 A 
ATOM     19  C   UNL     1      -0.295   0.161  -7.244  0.00  0.00    +0.025 A 
ATOM     20  C   UNL     1      -0.228   1.542  -7.310  0.00  0.00    +0.076 A 
ATOM     21  C   UNL     1       0.929   2.201  -6.924  0.00  0.00    +0.143 A 
ATOM     22  C   UNL     1       2.017   1.479  -6.466  0.00  0.00    +0.064 A 
ATOM     23  F   UNL     1       0.992   3.549  -6.989  0.00  0.00    -0.204 F 
ATOM     24 CL   UNL     1      -1.595   2.450  -7.877  0.00  0.00    -0.081 Cl
ENDBRANCH  15  17
ENDBRANCH   1  15
TORSDOF 5
