REMARK  Name = ZINC37737400
REMARK  2 active torsions:
REMARK  status: ('A' for Active; 'I' for Inactive)
REMARK    1  A    between atoms: C_4  and  C_8
REMARK    2  A    between atoms: C_11  and  C_16
REMARK                            x       y       z     vdW  Elec       q    Type
REMARK                         _______ _______ _______ _____ _____    ______ ____
ROOT
ATOM      1  C   UNK     1       3.711  -0.710  -0.036  0.00  0.00    +0.023 C 
ATOM      2  N   UNK     1       3.487  -2.114  -0.409  0.00  0.00    +0.399 N 
ATOM      3  C   UNK     1       4.740  -2.866  -0.324  0.00  0.00    +0.046 C 
ATOM      4  C   UNK     1       5.660  -2.531  -1.494  0.00  0.00    +0.006 C 
ATOM      5  C   UNK     1       6.217  -1.112  -1.319  0.00  0.00    +0.067 C 
ATOM      6  S   UNK     1       4.818   0.051  -1.262  0.00  0.00    -0.172 S 
ATOM      7  H   UNK     1       2.809  -2.522   0.217  0.00  0.00    -0.083 HD
ATOM      8  H   UNK     1       3.135  -2.158  -1.354  0.00  0.00    -0.083 HD
ENDROOT
BRANCH   1  12
ATOM      9  C   UNK     1      -0.021   1.375   0.013  0.00  0.00    +0.041 A 
ATOM     10  C   UNK     1       1.166   2.084   0.005  0.00  0.00    +0.041 A 
ATOM     11  C   UNK     1       2.375   1.409  -0.010  0.00  0.00    +0.126 A 
ATOM     12  C   UNK     1       2.395   0.025  -0.019  0.00  0.00    -0.014 A 
ATOM     13  C   UNK     1       1.208  -0.683  -0.011  0.00  0.00    +0.044 A 
ATOM     14  C   UNK     1      -0.001  -0.009   0.005  0.00  0.00    +0.124 A 
ATOM     15  F   UNK     1      -1.161  -0.701   0.012  0.00  0.00    -0.205 F 
ATOM     16  F   UNK     1       3.535   2.102  -0.018  0.00  0.00    -0.205 F 
ENDBRANCH   1  12
BRANCH   3  17
ATOM     17  C   UNK     1       5.437  -2.522   0.967  0.00  0.00    +0.343 C 
ATOM     18  O   UNK     1       4.792  -2.118   1.920  0.00  0.00    -0.248 OA
ATOM     19  O   UNK     1       6.646  -2.646   1.059  0.00  0.00    -0.248 OA
ENDBRANCH   3  17
TORSDOF 2
