REMARK  Name = ZINC36502375
REMARK  17 active torsions:
REMARK  status: ('A' for Active; 'I' for Inactive)
REMARK    1  A    between atoms: C_1  and  C_2
REMARK    2  A    between atoms: C_2  and  C_3
REMARK    3  A    between atoms: C_2  and  C_4
REMARK    4  A    between atoms: C_2  and  C_5
REMARK    5  A    between atoms: C_5  and  C_6
REMARK    6  A    between atoms: C_6  and  C_7
REMARK    7  A    between atoms: C_6  and  C_8
REMARK    8  A    between atoms: C_6  and  N_9
REMARK    9  A    between atoms: C_10  and  C_12
REMARK   10  A    between atoms: C_12  and  C_14
REMARK   11  A    between atoms: C_12  and  N_23
REMARK   12  A    between atoms: C_15  and  O_22
REMARK   13  A    between atoms: C_17  and  O_21
REMARK   14  A    between atoms: C_19  and  O_20
REMARK   15  A    between atoms: N_23  and  C_24
REMARK   16  A    between atoms: C_24  and  C_25
REMARK   17  A    between atoms: C_30  and  C_32
REMARK                            x       y       z     vdW  Elec       q    Type
REMARK                         _______ _______ _______ _____ _____    ______ ____
ROOT
ATOM      1  C   UNL     1       5.254  -0.643  -3.894  0.00  0.00    +0.200 C 
ENDROOT
BRANCH   1   2
ATOM      2  C   UNL     1       5.279  -2.145  -3.782  0.00  0.00    +0.065 A 
ATOM      3  C   UNL     1       5.993  -2.753  -2.760  0.00  0.00    +0.129 A 
ATOM      4  C   UNL     1       6.016  -4.136  -2.657  0.00  0.00    +0.091 A 
ATOM      5  C   UNL     1       5.324  -4.911  -3.575  0.00  0.00    +0.124 A 
ATOM      6  C   UNL     1       4.609  -4.303  -4.596  0.00  0.00    +0.091 A 
ATOM      7  C   UNL     1       4.582  -2.921  -4.697  0.00  0.00    +0.129 A 
BRANCH   7   8
ATOM      8  O   UNL     1       3.878  -2.325  -5.695  0.00  0.00    -0.506 OA
ATOM      9  H   UNL     1       4.387  -2.180  -6.504  0.00  0.00    +0.292 HD
ENDBRANCH   7   8
BRANCH   5  10
ATOM     10  O   UNL     1       5.347  -6.266  -3.475  0.00  0.00    -0.507 OA
ATOM     11  H   UNL     1       4.638  -6.632  -2.929  0.00  0.00    +0.292 HD
ENDBRANCH   5  10
BRANCH   3  12
ATOM     12  O   UNL     1       6.671  -1.993  -1.860  0.00  0.00    -0.506 OA
ATOM     13  H   UNL     1       6.178  -1.810  -1.049  0.00  0.00    +0.292 HD
ENDBRANCH   3  12
ENDBRANCH   1   2
BRANCH   1  15
ATOM     14  N   UNL     1       3.297  -0.387  -2.402  0.00  0.00    -0.308 N 
ATOM     15  C   UNL     1       4.574  -0.060  -2.682  0.00  0.00    +0.239 C 
ATOM     16  O   UNL     1       5.177   0.704  -1.957  0.00  0.00    -0.273 OA
ATOM     17  H   UNL     1       2.815  -0.997  -2.982  0.00  0.00    +0.149 HD
BRANCH  14  18
ATOM     18  C   UNL     1       2.637   0.180  -1.224  0.00  0.00    +0.030 C 
ATOM     19  C   UNL     1       2.818   1.699  -1.219  0.00  0.00    +0.031 C 
ATOM     20  C   UNL     1       3.258  -0.411   0.043  0.00  0.00    +0.031 C 
BRANCH  18  21
ATOM     21  C   UNL     1       1.145  -0.156  -1.265  0.00  0.00    +0.031 C 
BRANCH  21  23
ATOM     22  C   UNL     1       0.963  -1.084  -3.577  0.00  0.00    +0.010 C 
ATOM     23  C   UNL     1       0.603   0.097  -2.673  0.00  0.00    -0.036 C 
ATOM     24  C   UNL     1       1.224   1.377  -3.236  0.00  0.00    +0.010 C 
ATOM     25  C   UNL     1      -0.918   0.250  -2.615  0.00  0.00    +0.010 C 
ENDBRANCH  21  23
ENDBRANCH  18  21
ENDBRANCH  14  18
ENDBRANCH   1  15
BRANCH   1  26
ATOM     26  N   UNL     1       6.626  -0.137  -3.975  0.00  0.00    -0.274 N 
ATOM     27  C   UNL     1       6.861   1.189  -3.904  0.00  0.00    +0.248 C 
ATOM     28  O   UNL     1       8.001   1.600  -3.809  0.00  0.00    -0.270 OA
BRANCH  27  29
ATOM     29  C   UNL     1       5.732   2.143  -3.941  0.00  0.00    +0.037 A 
ATOM     30  C   UNL     1       4.432   1.682  -4.158  0.00  0.00    +0.013 A 
ATOM     31  C   UNL     1       3.383   2.577  -4.191  0.00  0.00    +0.001 A 
ATOM     32  C   UNL     1       3.617   3.929  -4.010  0.00  0.00    +0.000 A 
ATOM     33  C   UNL     1       4.903   4.392  -3.795  0.00  0.00    +0.001 A 
ATOM     34  C   UNL     1       5.960   3.507  -3.753  0.00  0.00    +0.013 A 
ENDBRANCH  27  29
BRANCH  26  35
ATOM     35  C   UNL     1       7.743  -1.071  -4.135  0.00  0.00    +0.183 C 
BRANCH  35  36
ATOM     36  C   UNL     1       8.531  -0.706  -5.366  0.00  0.00    +0.122 A 
ATOM     37  C   UNL     1       9.640   0.055  -5.394  0.00  0.00    +0.046 A 
ATOM     38  C   UNL     1      10.046   0.139  -6.746  0.00  0.00    +0.041 A 
ATOM     39  C   UNL     1       9.161  -0.576  -7.463  0.00  0.00    +0.195 A 
ATOM     40  O   UNL     1       8.249  -1.091  -6.622  0.00  0.00    -0.466 OA
ENDBRANCH  35  36
ENDBRANCH  26  35
ENDBRANCH   1  26
TORSDOF 12
