REMARK  Name = ZINC36502076
REMARK  13 active torsions:
REMARK  status: ('A' for Active; 'I' for Inactive)
REMARK    1  A    between atoms: C_1  and  C_2
REMARK    2  A    between atoms: C_2  and  C_3
REMARK    3  A    between atoms: C_2  and  C_4
REMARK    4  A    between atoms: C_2  and  N_5
REMARK    5  A    between atoms: C_6  and  C_8
REMARK    6  A    between atoms: C_8  and  C_10
REMARK    7  A    between atoms: C_8  and  N_22
REMARK    8  A    between atoms: C_19  and  O_20
REMARK    9  A    between atoms: O_20  and  C_21
REMARK   10  A    between atoms: N_22  and  C_23
REMARK   11  A    between atoms: C_23  and  C_24
REMARK   12  A    between atoms: C_29  and  C_31
REMARK   13  A    between atoms: C_31  and  C_32
REMARK                            x       y       z     vdW  Elec       q    Type
REMARK                         _______ _______ _______ _____ _____    ______ ____
ROOT
ATOM      1  C   UNL     1       2.656  -0.585  -2.697  0.00  0.00    +0.197 C 
ENDROOT
BRANCH   1   2
ATOM      2  C   UNL     1       1.841  -0.180  -3.898  0.00  0.00    +0.031 A 
ATOM      3  C   UNL     1       0.977  -1.103  -4.510  0.00  0.00    -0.009 A 
ATOM      4  C   UNL     1       0.851  -2.416  -4.024  0.00  0.00    +0.009 A 
ATOM      5  C   UNL     1       0.003  -3.284  -4.641  0.00  0.00    +0.001 A 
ATOM      6  C   UNL     1      -0.743  -2.891  -5.751  0.00  0.00    +0.001 A 
ATOM      7  C   UNL     1      -0.646  -1.628  -6.249  0.00  0.00    +0.008 A 
ATOM      8  C   UNL     1       0.218  -0.704  -5.638  0.00  0.00    -0.017 A 
ATOM      9  C   UNL     1       0.343   0.609  -6.126  0.00  0.00    +0.012 A 
ATOM     10  C   UNL     1       1.188   1.479  -5.512  0.00  0.00    +0.046 A 
ATOM     11  C   UNL     1       1.935   1.089  -4.395  0.00  0.00    +0.126 A 
BRANCH  11  12
ATOM     12  O   UNL     1       2.767   1.983  -3.799  0.00  0.00    -0.495 OA
ATOM     13  C   UNL     1       2.915   3.255  -4.434  0.00  0.00    +0.277 C 
ENDBRANCH  11  12
ENDBRANCH   1   2
BRANCH   1  15
ATOM     14  N   UNL     1       0.815   0.418  -1.385  0.00  0.00    -0.309 N 
ATOM     15  C   UNL     1       2.124   0.111  -1.471  0.00  0.00    +0.239 C 
ATOM     16  O   UNL     1       2.875   0.395  -0.562  0.00  0.00    -0.273 OA
ATOM     17  H   UNL     1       0.215   0.191  -2.112  0.00  0.00    +0.149 HD
BRANCH  14  19
ATOM     18  C   UNL     1       1.005   2.441  -0.024  0.00  0.00    +0.031 C 
ATOM     19  C   UNL     1       0.298   1.095  -0.193  0.00  0.00    +0.026 C 
ATOM     20  C   UNL     1       0.556   0.225   1.039  0.00  0.00    +0.031 C 
ATOM     21  C   UNL     1      -1.206   1.325  -0.349  0.00  0.00    +0.031 C 
ENDBRANCH  14  19
ENDBRANCH   1  15
BRANCH   1  22
ATOM     22  N   UNL     1       4.056  -0.206  -2.906  0.00  0.00    -0.278 N 
ATOM     23  C   UNL     1       4.770  -0.782  -3.893  0.00  0.00    +0.221 C 
ATOM     24  O   UNL     1       4.255  -1.615  -4.608  0.00  0.00    -0.275 OA
BRANCH  22  25
ATOM     25  C   UNL     1       4.679   0.800  -2.042  0.00  0.00    +0.183 C 
BRANCH  25  26
ATOM     26  C   UNL     1       5.459   0.113  -0.952  0.00  0.00    +0.122 A 
ATOM     27  C   UNL     1       6.780  -0.141  -0.971  0.00  0.00    +0.046 A 
ATOM     28  C   UNL     1       7.088  -0.796   0.244  0.00  0.00    +0.041 A 
ATOM     29  C   UNL     1       5.937  -0.903   0.932  0.00  0.00    +0.195 A 
ATOM     30  O   UNL     1       4.955  -0.345   0.205  0.00  0.00    -0.466 OA
ENDBRANCH  25  26
ENDBRANCH  22  25
BRANCH  23  31
ATOM     31  C   UNL     1       6.210  -0.392  -4.108  0.00  0.00    +0.131 C 
BRANCH  31  32
ATOM     32  C   UNL     1       6.776  -1.176  -5.263  0.00  0.00    -0.035 A 
ATOM     33  C   UNL     1       7.377  -2.400  -5.038  0.00  0.00    +0.008 A 
ATOM     34  C   UNL     1       7.897  -3.123  -6.095  0.00  0.00    +0.050 A 
ATOM     35  C   UNL     1       7.818  -2.622  -7.384  0.00  0.00    +0.166 A 
ATOM     36  C   UNL     1       7.213  -1.388  -7.611  0.00  0.00    +0.166 A 
ATOM     37  C   UNL     1       6.688  -0.671  -6.548  0.00  0.00    +0.053 A 
ATOM     38  O   UNL     1       7.260  -1.119  -8.948  0.00  0.00    -0.453 OA
ATOM     39  C   UNL     1       8.260  -2.006  -9.484  0.00  0.00    +0.466 C 
ATOM     40  O   UNL     1       8.244  -3.125  -8.579  0.00  0.00    -0.453 OA
ENDBRANCH  31  32
ENDBRANCH  23  31
ENDBRANCH   1  22
TORSDOF 9
