REMARK  Name = ZINC49122823
REMARK  4 active torsions:
REMARK  status: ('A' for Active; 'I' for Inactive)
REMARK    1  A    between atoms: C_4  and  N_8
REMARK    2  A    between atoms: N_8  and  S_9
REMARK    3  A    between atoms: S_9  and  C_12
REMARK    4  A    between atoms: N_18  and  N_19
REMARK                            x       y       z     vdW  Elec       q    Type
REMARK                         _______ _______ _______ _____ _____    ______ ____
ROOT
ATOM      1  S   UNL     1       3.645  -2.306  -0.046  0.00  0.00    +0.092 S 
ATOM      2  O   UNL     1       3.113  -2.727   1.202  0.00  0.00    -0.148 OA
ATOM      3  O   UNL     1       3.088  -2.714  -1.288  0.00  0.00    -0.148 OA
ENDROOT
BRANCH   1   4
ATOM      4  C   UNL     1       5.336  -2.802  -0.066  0.00  0.00    +0.115 A 
ATOM      5  C   UNL     1       6.007  -2.990  -1.268  0.00  0.00    +0.046 A 
ATOM      6  C   UNL     1       7.331  -3.378  -1.250  0.00  0.00    +0.086 A 
ATOM      7  N   UNL     1       7.964  -3.571  -0.108  0.00  0.00    -0.349 N 
ATOM      8  C   UNL     1       7.359  -3.403   1.058  0.00  0.00    +0.112 A 
ATOM      9  C   UNL     1       6.027  -3.007   1.114  0.00  0.00    +0.071 A 
ATOM     10  N   UNL     1       8.064  -3.618   2.237  0.00  0.00    -0.269 N 
ATOM     11  H   UNL     1       7.625  -3.496   3.093  0.00  0.00    +0.167 HD
ATOM     12  H   UNL     1       8.895  -3.844  -0.123  0.00  0.00    +0.167 HD
BRANCH  10  13
ATOM     13  N   UNL     1       9.374  -4.002   2.189  0.00  0.00    -0.255 NA
ATOM     14  H   UNL     1       9.751  -4.119   3.118  0.00  0.00    +0.140 HD
ATOM     15  H   UNL     1       9.485  -4.844   1.645  0.00  0.00    +0.140 HD
ENDBRANCH  10  13
ENDBRANCH   1   4
BRANCH   1  16
ATOM     16  N   UNL     1       3.621  -0.650  -0.037  0.00  0.00    -0.097 NA
BRANCH  16  20
ATOM     17  C   UNL     1      -0.017   1.379   0.010  0.00  0.00    +0.016 A 
ATOM     18  C   UNL     1       1.170   2.090   0.002  0.00  0.00    +0.018 A 
ATOM     19  C   UNL     1       2.378   1.420  -0.013  0.00  0.00    +0.042 A 
ATOM     20  C   UNL     1       2.400   0.030  -0.021  0.00  0.00    +0.089 A 
ATOM     21  C   UNL     1       1.208  -0.680  -0.013  0.00  0.00    +0.043 A 
ATOM     22  C   UNL     1       0.002  -0.004   0.002  0.00  0.00    +0.020 A 
ATOM     23 BR   UNL     1      -1.623  -0.971   0.013  0.00  0.00    -0.050 Br
ATOM     24 BR   UNL     1       3.999   2.393  -0.025  0.00  0.00    -0.048 Br
ENDBRANCH  16  20
ENDBRANCH   1  16
TORSDOF 4
