REMARK  Name = ZINC13130134
REMARK  10 active torsions:
REMARK  status: ('A' for Active; 'I' for Inactive)
REMARK    1  A    between atoms: C_1  and  C_2
REMARK    2  A    between atoms: C_9  and  N_14
REMARK    3  A    between atoms: C_10  and  C_11
REMARK    4  A    between atoms: C_15  and  C_17
REMARK    5  A    between atoms: C_17  and  C_19
REMARK    6  A    between atoms: C_17  and  N_23
REMARK    7  A    between atoms: C_19  and  C_20
REMARK    8  A    between atoms: C_20  and  S_21
REMARK    9  A    between atoms: S_21  and  C_22
REMARK   10  A    between atoms: C_24  and  C_26
REMARK                            x       y       z     vdW  Elec       q    Type
REMARK                         _______ _______ _______ _____ _____    ______ ____
ROOT
ATOM      1  N   UNL     1      -1.438  -0.888   2.498  0.00  0.00    -0.278 N 
ATOM      2  C   UNL     1      -2.167  -1.334   3.540  0.00  0.00    +0.238 C 
ATOM      3  O   UNL     1      -3.197  -1.944   3.343  0.00  0.00    -0.273 OA
ATOM      4  H   UNL     1      -0.615  -0.400   2.655  0.00  0.00    +0.155 HD
ENDROOT
BRANCH   1  12
ATOM      5  C   UNL     1      -4.237  -2.367  -4.656  0.00  0.00    +0.008 C 
ATOM      6  C   UNL     1      -3.567  -1.651  -3.482  0.00  0.00    -0.009 C 
ATOM      7  C   UNL     1      -2.045  -1.717  -3.638  0.00  0.00    +0.008 C 
ATOM      8  C   UNL     1      -1.376  -0.799  -2.613  0.00  0.00    +0.037 C 
ATOM      9  C   UNL     1      -1.920  -1.129  -1.228  0.00  0.00    -0.023 A 
ATOM     10  C   UNL     1      -3.069  -1.821  -1.079  0.00  0.00    -0.004 A 
ATOM     11  S   UNL     1      -3.285  -1.969   0.672  0.00  0.00    -0.077 S 
ATOM     12  C   UNL     1      -1.865  -1.129   1.200  0.00  0.00    +0.084 A 
ATOM     13  C   UNL     1      -1.258  -0.754   0.010  0.00  0.00    +0.068 A 
ATOM     14  C   UNL     1      -3.960  -2.339  -2.166  0.00  0.00    +0.046 C 
BRANCH  13  15
ATOM     15  C   UNL     1       0.002  -0.004   0.002  0.00  0.00    +0.244 C 
ATOM     16  O   UNL     1       1.064  -0.598  -0.011  0.00  0.00    -0.270 OA
ATOM     17  N   UNL     1      -0.016   1.344   0.009  0.00  0.00    -0.325 N 
ATOM     18  H   UNL     1       0.817   1.840   0.004  0.00  0.00    +0.145 HD
ATOM     19  H   UNL     1      -0.863   1.817   0.016  0.00  0.00    +0.145 HD
ENDBRANCH  13  15
ENDBRANCH   1  12
BRANCH   2  20
ATOM     20  C   UNL     1      -1.704  -1.073   4.950  0.00  0.00    +0.160 C 
BRANCH  20  21
ATOM     21  N   UNL     1      -2.662  -1.653   5.894  0.00  0.00    -0.300 N 
ATOM     22  C   UNL     1      -2.260  -2.001   7.133  0.00  0.00    +0.246 C 
ATOM     23  O   UNL     1      -1.104  -1.834   7.467  0.00  0.00    -0.270 OA
ATOM     24  H   UNL     1      -3.585  -1.787   5.628  0.00  0.00    +0.150 HD
BRANCH  22  25
ATOM     25  C   UNL     1      -3.226  -2.587   8.085  0.00  0.00    +0.055 A 
ATOM     26  C   UNL     1      -4.556  -2.780   7.705  0.00  0.00    +0.016 A 
ATOM     27  C   UNL     1      -5.453  -3.327   8.598  0.00  0.00    +0.021 A 
ATOM     28  C   UNL     1      -5.038  -3.685   9.870  0.00  0.00    +0.042 A 
ATOM     29  C   UNL     1      -3.722  -3.496  10.254  0.00  0.00    +0.040 A 
ATOM     30  C   UNL     1      -2.812  -2.954   9.368  0.00  0.00    +0.054 A 
ATOM     31 CL   UNL     1      -1.160  -2.724   9.848  0.00  0.00    -0.083 Cl
ATOM     32 CL   UNL     1      -6.174  -4.373  10.988  0.00  0.00    -0.083 Cl
ENDBRANCH  22  25
ENDBRANCH  20  21
BRANCH  20  33
ATOM     33  C   UNL     1      -1.607   0.436   5.184  0.00  0.00    +0.042 C 
BRANCH  33  34
ATOM     34  C   UNL     1      -1.019   0.701   6.572  0.00  0.00    +0.071 C 
BRANCH  34  35
ATOM     35  S   UNL     1      -0.905   2.490   6.849  0.00  0.00    -0.164 S 
ATOM     36  C   UNL     1      -0.198   2.631   8.514  0.00  0.00    +0.084 C 
ENDBRANCH  34  35
ENDBRANCH  33  34
ENDBRANCH  20  33
ENDBRANCH   2  20
TORSDOF 8
