REMARK  Name = ZINC39353585
REMARK  8 active torsions:
REMARK  status: ('A' for Active; 'I' for Inactive)
REMARK    1  A    between atoms: C_1  and  S_2
REMARK    2  A    between atoms: S_2  and  C_3
REMARK    3  A    between atoms: C_7  and  C_17
REMARK    4  A    between atoms: N_9  and  C_10
REMARK    5  A    between atoms: C_17  and  C_18
REMARK    6  A    between atoms: C_18  and  N_19
REMARK    7  A    between atoms: C_20  and  C_22
REMARK    8  A    between atoms: C_25  and  C_28
REMARK                            x       y       z     vdW  Elec       q    Type
REMARK                         _______ _______ _______ _____ _____    ______ ____
ROOT
ATOM      1  C   UNL     1       1.893   2.668  -1.162  0.00  0.00    +0.058 C 
ENDROOT
BRANCH   1   5
ATOM      2  C   UNL     1       1.347  -0.798  -2.079  0.00  0.00    +0.217 C 
ATOM      3  N   UNL     1       0.437  -0.124  -3.032  0.00  0.00    -0.226 NA
ATOM      4  N   UNL     1       0.417   1.279  -2.588  0.00  0.00    -0.234 NA
ATOM      5  C   UNL     1       1.822   1.515  -2.166  0.00  0.00    +0.159 C 
ATOM      6  N   UNL     1       2.230   0.246  -1.529  0.00  0.00    -0.288 N 
ATOM      7  H   UNL     1      -0.487  -0.528  -2.996  0.00  0.00    +0.143 HD
ATOM      8  H   UNL     1      -0.219   1.405  -1.815  0.00  0.00    +0.143 HD
BRANCH   6   9
ATOM      9  C   UNL     1       3.250   0.069  -0.589  0.00  0.00    +0.033 A 
ATOM     10  C   UNL     1       2.998   0.282   0.760  0.00  0.00    +0.026 A 
ATOM     11  C   UNL     1       4.007   0.107   1.686  0.00  0.00    +0.040 A 
ATOM     12  C   UNL     1       5.270  -0.281   1.271  0.00  0.00    +0.124 A 
ATOM     13  C   UNL     1       5.524  -0.494  -0.074  0.00  0.00    +0.040 A 
ATOM     14  C   UNL     1       4.516  -0.325  -1.003  0.00  0.00    +0.026 A 
ATOM     15  F   UNL     1       6.256  -0.451   2.179  0.00  0.00    -0.205 F 
ENDBRANCH   6   9
BRANCH   2  17
ATOM     16  C   UNL     1      -0.536  -0.192  -0.016  0.00  0.00    +0.087 C 
ATOM     17  S   UNL     1       0.391  -1.570  -0.745  0.00  0.00    -0.125 S 
ENDBRANCH   2  17
ENDBRANCH   1   5
BRANCH   1  18
ATOM     18  C   UNL     1       1.469   3.968  -1.848  0.00  0.00    +0.107 C 
BRANCH  18  19
ATOM     19  N   UNL     1       1.536   5.072  -0.887  0.00  0.00    -0.313 N 
ATOM     20  C   UNL     1       1.205   6.321  -1.271  0.00  0.00    +0.243 C 
ATOM     21  O   UNL     1       0.851   6.531  -2.412  0.00  0.00    -0.273 OA
ATOM     22  H   UNL     1       1.819   4.904   0.025  0.00  0.00    +0.149 HD
BRANCH  20  23
ATOM     23  C   UNL     1       1.274   7.456  -0.282  0.00  0.00    +0.238 C 
ATOM     24  C   UNL     1       0.021   7.499   0.574  0.00  0.00    +0.040 C 
ATOM     25  C   UNL     1      -0.520   8.700   0.293  0.00  0.00    +0.092 C 
ATOM     26  N   UNL     1       0.246   9.366  -0.610  0.00  0.00    -0.153 NA
ATOM     27  N   UNL     1       1.255   8.753  -0.978  0.00  0.00    -0.170 NA
BRANCH  25  28
ATOM     28  C   UNL     1      -1.776   9.222   0.887  0.00  0.00    +0.002 A 
ATOM     29  C   UNL     1      -2.484   8.456   1.811  0.00  0.00    +0.010 A 
ATOM     30  C   UNL     1      -3.651   8.947   2.360  0.00  0.00    +0.001 A 
ATOM     31  C   UNL     1      -4.119  10.196   1.995  0.00  0.00    +0.000 A 
ATOM     32  C   UNL     1      -3.420  10.961   1.078  0.00  0.00    +0.001 A 
ATOM     33  C   UNL     1      -2.249  10.482   0.526  0.00  0.00    +0.010 A 
ENDBRANCH  25  28
ENDBRANCH  20  23
ENDBRANCH  18  19
ENDBRANCH   1  18
TORSDOF 7
