REMARK  Name = ZINC62961589
REMARK  4 active torsions:
REMARK  status: ('A' for Active; 'I' for Inactive)
REMARK    1  A    between atoms: C_1  and  O_2
REMARK    2  A    between atoms: O_2  and  C_3
REMARK    3  A    between atoms: C_4  and  N_11
REMARK    4  A    between atoms: N_11  and  C_12
REMARK                            x       y       z     vdW  Elec       q    Type
REMARK                         _______ _______ _______ _____ _____    ______ ____
ROOT
ATOM      1  C   UNL     1      -1.202  -0.638   0.010  0.00  0.00    +0.155 A 
ATOM      2  C   UNL     1      -1.810  -0.965   1.220  0.00  0.00    +0.072 A 
ATOM      3  C   UNL     1      -3.038  -1.611   1.223  0.00  0.00    +0.046 A 
ATOM      4  C   UNL     1      -3.654  -1.929   0.026  0.00  0.00    +0.044 A 
ATOM      5  C   UNL     1      -3.049  -1.605  -1.175  0.00  0.00    +0.039 A 
ATOM      6  C   UNL     1      -1.827  -0.955  -1.185  0.00  0.00    +0.063 A 
ATOM      7 BR   UNL     1      -1.008  -0.507  -2.829  0.00  0.00    -0.046 Br
ATOM      8 CL   UNL     1      -5.190  -2.738   0.031  0.00  0.00    -0.083 Cl
ENDROOT
BRANCH   1  10
ATOM      9  C   UNL     1      -0.017   1.425   0.010  0.00  0.00    +0.277 C 
ATOM     10  O   UNL     1       0.002  -0.004   0.002  0.00  0.00    -0.492 OA
ENDBRANCH   1  10
BRANCH   2  11
ATOM     11  N   UNL     1      -1.185  -0.642   2.430  0.00  0.00    -0.337 N 
ATOM     12  H   UNL     1      -0.326  -0.191   2.426  0.00  0.00    +0.147 HD
BRANCH  11  13
ATOM     13  C   UNL     1      -1.826  -0.987   3.701  0.00  0.00    +0.093 C 
ATOM     14  C   UNL     1      -2.797   0.133   4.113  0.00  0.00    +0.046 C 
ATOM     15  C   UNL     1      -3.232  -0.061   5.585  0.00  0.00    +0.168 C 
ATOM     16  S   UNL     1      -1.791  -0.937   6.320  0.00  0.00    -0.029 S 
ATOM     17  O   UNL     1      -1.135  -0.066   7.230  0.00  0.00    -0.174 OA
ATOM     18  O   UNL     1      -2.207  -2.223   6.759  0.00  0.00    -0.174 OA
ATOM     19  C   UNL     1      -0.748  -1.126   4.813  0.00  0.00    +0.188 C 
ENDBRANCH  11  13
ENDBRANCH   2  11
TORSDOF 3
