REMARK  Name = ZINC05671377
REMARK  3 active torsions:
REMARK  status: ('A' for Active; 'I' for Inactive)
REMARK    1  A    between atoms: C_3  and  C_10
REMARK    2  A    between atoms: C_5  and  N_7
REMARK    3  A    between atoms: N_13  and  N_14
REMARK                            x       y       z     vdW  Elec       q    Type
REMARK                         _______ _______ _______ _____ _____    ______ ____
ROOT
ATOM      1  C   UNL     1       0.000   5.366   0.030  0.00  0.00    +0.024 C 
ATOM      2  C   UNL     1       0.008   4.025   0.463  0.00  0.00    +0.079 C 
ATOM      3  C   UNL     1       1.165   3.238   0.365  0.00  0.00    +0.156 C 
ATOM      4  N   UNL     1       2.320   3.760  -0.158  0.00  0.00    -0.173 NA
ATOM      5  N   UNL     1       1.123   1.946   0.798  0.00  0.00    -0.252 N 
ATOM      6  C   UNL     1       0.005   1.414   1.313  0.00  0.00    +0.312 C 
ATOM      7  O   UNL     1       0.027   0.257   1.683  0.00  0.00    -0.252 OA
ATOM      8  N   UNL     1      -1.138   2.108   1.432  0.00  0.00    -0.236 N 
ATOM      9  C   UNL     1      -1.207   3.397   1.039  0.00  0.00    +0.255 C 
ATOM     10  O   UNL     1      -2.240   4.028   1.151  0.00  0.00    -0.270 OA
ATOM     11  H   UNL     1       1.921   1.399   0.731  0.00  0.00    +0.158 HD
ATOM     12  H   UNL     1      -1.923   1.679   1.808  0.00  0.00    +0.159 HD
ENDROOT
BRANCH   1  15
ATOM     13  C   UNL     1      -2.509   8.050   0.358  0.00  0.00    +0.003 A 
ATOM     14  C   UNL     1      -1.323   7.378   0.454  0.00  0.00    +0.008 A 
ATOM     15  C   UNL     1      -1.218   6.070  -0.062  0.00  0.00    -0.022 A 
ATOM     16  C   UNL     1      -2.339   5.474  -0.674  0.00  0.00    +0.040 A 
ATOM     17  C   UNL     1      -3.515   6.164  -0.753  0.00  0.00    +0.127 A 
ATOM     18  C   UNL     1      -3.606   7.451  -0.242  0.00  0.00    +0.033 A 
BRANCH  17  19
ATOM     19  N   UNL     1      -4.695   5.539  -1.391  0.00  0.00    +0.056 N 
ATOM     20  O   UNL     1      -5.829   6.204  -1.472  0.00  0.00    -0.126 OA
ATOM     21  O   UNL     1      -4.612   4.318  -1.877  0.00  0.00    -0.126 OA
ENDBRANCH  17  19
ENDBRANCH   1  15
BRANCH   4  22
ATOM     22  N   UNL     1       3.378   3.027  -0.243  0.00  0.00    -0.281 N 
ATOM     23  H   UNL     1       3.357   2.107   0.063  0.00  0.00    +0.164 HD
ATOM     24  H   UNL     1       4.196   3.396  -0.613  0.00  0.00    +0.164 HD
ENDBRANCH   4  22
TORSDOF 3
