REMARK  Name = ZINC06149302
REMARK  14 active torsions:
REMARK  status: ('A' for Active; 'I' for Inactive)
REMARK    1  A    between atoms: C_1  and  C_2
REMARK    2  A    between atoms: C_2  and  C_3
REMARK    3  A    between atoms: C_3  and  C_4
REMARK    4  A    between atoms: C_3  and  C_5
REMARK    5  A    between atoms: C_3  and  N_6
REMARK    6  A    between atoms: C_7  and  C_11
REMARK    7  A    between atoms: C_11  and  C_13
REMARK    8  A    between atoms: C_11  and  N_75
REMARK    9  A    between atoms: C_19  and  C_25
REMARK   10  A    between atoms: C_26  and  C_27
REMARK   11  A    between atoms: C_26  and  N_75
REMARK   12  A    between atoms: C_27  and  C_28
REMARK   13  A    between atoms: C_34  and  C_35
REMARK   14  A    between atoms: C_34  and  N_75
REMARK                            x       y       z     vdW  Elec       q    Type
REMARK                         _______ _______ _______ _____ _____    ______ ____
ROOT
ATOM      1  C   UNL     1       1.163  -3.237   5.100  0.00  0.00    +0.039 C 
ENDROOT
BRANCH   1   2
ATOM      2  C   UNL     1       1.184  -2.205   4.002  0.00  0.00    +0.011 A 
ATOM      3  C   UNL     1       0.121  -1.381   3.829  0.00  0.00    +0.017 A 
ATOM      4  C   UNL     1       0.174  -0.389   2.753  0.00  0.00    -0.001 A 
ATOM      5  C   UNL     1      -0.892   0.488   2.526  0.00  0.00    +0.010 A 
ATOM      6  C   UNL     1      -0.812   1.402   1.514  0.00  0.00    +0.001 A 
ATOM      7  C   UNL     1       0.320   1.472   0.713  0.00  0.00    +0.005 A 
ATOM      8  C   UNL     1       1.379   0.615   0.915  0.00  0.00    -0.026 A 
ATOM      9  C   UNL     1       1.320  -0.325   1.940  0.00  0.00    +0.052 A 
ATOM     10  N   UNL     1       2.368  -1.192   2.168  0.00  0.00    -0.322 N 
ATOM     11  H   UNL     1       3.181  -1.145   1.588  0.00  0.00    +0.169 HD
ATOM     12  C   UNL     1       2.311  -2.099   3.159  0.00  0.00    +0.251 A 
ATOM     13  O   UNL     1       3.256  -2.849   3.332  0.00  0.00    -0.268 OA
ATOM     14  C   UNL     1       2.599   0.699   0.035  0.00  0.00    +0.046 C 
ENDBRANCH   1   2
BRANCH   1  16
ATOM     15  N   UNL     1      -1.058  -3.879   6.178  0.00  0.00    -0.225 N 
ATOM     16  C   UNL     1      -0.045  -3.017   5.974  0.00  0.00    +0.143 A 
ATOM     17  N   UNL     1      -0.316  -1.945   6.678  0.00  0.00    -0.115 NA
ATOM     18  N   UNL     1      -1.434  -2.141   7.287  0.00  0.00    -0.023 NA
ATOM     19  N   UNL     1      -1.883  -3.310   6.990  0.00  0.00    -0.043 NA
BRANCH  15  20
ATOM     20  C   UNL     1      -1.195  -5.215   5.592  0.00  0.00    +0.061 C 
ATOM     21  C   UNL     1      -1.268  -5.098   4.068  0.00  0.00    +0.036 C 
ATOM     22  C   UNL     1       0.014  -6.069   5.980  0.00  0.00    +0.036 C 
BRANCH  20  24
ATOM     23  C   UNL     1      -2.616  -7.268   5.503  0.00  0.00    +0.006 C 
ATOM     24  C   UNL     1      -2.473  -5.873   6.115  0.00  0.00    +0.026 C 
ENDBRANCH  20  24
ENDBRANCH  15  20
ENDBRANCH   1  16
BRANCH   1  25
ATOM     25  N   UNL     1       2.405  -3.115   5.892  0.00  0.00    +0.392 N 
ATOM     26  H   UNL     1       3.206  -3.076   5.252  0.00  0.00    -0.080 HD
BRANCH  25  27
ATOM     27  C   UNL     1       2.556  -4.288   6.779  0.00  0.00    -0.072 C 
BRANCH  27  28
ATOM     28  C   UNL     1       3.923  -4.219   7.461  0.00  0.00    +0.016 C 
BRANCH  28  29
ATOM     29  C   UNL     1       4.157  -5.484   8.247  0.00  0.00    -0.049 A 
ATOM     30  C   UNL     1       3.764  -5.558   9.570  0.00  0.00    +0.003 A 
ATOM     31  C   UNL     1       3.974  -6.720  10.289  0.00  0.00    +0.000 A 
ATOM     32  C   UNL     1       4.587  -7.804   9.688  0.00  0.00    +0.000 A 
ATOM     33  C   UNL     1       4.985  -7.727   8.366  0.00  0.00    +0.000 A 
ATOM     34  C   UNL     1       4.770  -6.567   7.646  0.00  0.00    +0.003 A 
ENDBRANCH  28  29
ENDBRANCH  27  28
ENDBRANCH  25  27
BRANCH  25  35
ATOM     35  C   UNL     1       2.371  -1.875   6.696  0.00  0.00    -0.042 C 
BRANCH  35  36
ATOM     36  C   UNL     1       2.713  -0.711   5.802  0.00  0.00    -0.064 A 
ATOM     37  C   UNL     1       4.024  -0.493   5.422  0.00  0.00    +0.002 A 
ATOM     38  C   UNL     1       4.337   0.571   4.597  0.00  0.00    +0.000 A 
ATOM     39  C   UNL     1       3.340   1.424   4.162  0.00  0.00    +0.000 A 
ATOM     40  C   UNL     1       2.030   1.210   4.546  0.00  0.00    +0.000 A 
ATOM     41  C   UNL     1       1.716   0.142   5.366  0.00  0.00    +0.002 A 
ENDBRANCH  35  36
ENDBRANCH  25  35
ENDBRANCH   1  25
TORSDOF 10
