REMARK  Name = ZINC16238333
REMARK  8 active torsions:
REMARK  status: ('A' for Active; 'I' for Inactive)
REMARK    1  A    between atoms: C_3  and  S_21
REMARK    2  A    between atoms: C_6  and  N_7
REMARK    3  A    between atoms: N_7  and  C_8
REMARK    4  A    between atoms: C_8  and  N_10
REMARK    5  A    between atoms: N_10  and  C_11
REMARK    6  A    between atoms: C_14  and  N_20
REMARK    7  A    between atoms: C_15  and  N_17
REMARK    8  A    between atoms: S_21  and  C_22
REMARK                            x       y       z     vdW  Elec       q    Type
REMARK                         _______ _______ _______ _____ _____    ______ ____
ROOT
ATOM      1  C   UNL     1      -1.479  -2.020  -0.738  0.00  0.00    +0.139 C 
ATOM      2  S   UNL     1      -0.070  -2.796  -1.325  0.00  0.00    -0.018 S 
ENDROOT
BRANCH   1   3
ATOM      3  N   UNL     1      -1.541  -0.674  -0.701  0.00  0.00    -0.297 N 
ATOM      4  H   UNL     1      -2.310  -0.234  -0.306  0.00  0.00    +0.154 HD
BRANCH   3  10
ATOM      5  C   UNL     1      -0.773   1.182  -2.044  0.00  0.00    +0.024 A 
ATOM      6  C   UNL     1       0.259   1.936  -2.567  0.00  0.00    +0.017 A 
ATOM      7  C   UNL     1       1.577   1.603  -2.280  0.00  0.00    +0.013 A 
ATOM      8  C   UNL     1       1.856   0.511  -1.467  0.00  0.00    +0.017 A 
ATOM      9  C   UNL     1       0.824  -0.242  -0.944  0.00  0.00    +0.024 A 
ATOM     10  C   UNL     1      -0.493   0.091  -1.231  0.00  0.00    +0.033 A 
BRANCH   7  11
ATOM     11  S   UNL     1       2.894   2.564  -2.947  0.00  0.00    -0.056 S 
BRANCH  11  12
ATOM     12  C   UNL     1       4.390   1.762  -2.309  0.00  0.00    +0.404 C 
ATOM     13  F   UNL     1       4.374   1.790  -0.910  0.00  0.00    -0.197 F 
ATOM     14  F   UNL     1       4.431   0.434  -2.748  0.00  0.00    -0.197 F 
ENDBRANCH  11  12
ENDBRANCH   7  11
ENDBRANCH   3  10
ENDBRANCH   1   3
BRANCH   1  15
ATOM     15  N   UNL     1      -2.526  -2.755  -0.314  0.00  0.00    -0.297 N 
ATOM     16  H   UNL     1      -3.348  -2.317  -0.045  0.00  0.00    +0.154 HD
BRANCH  15  17
ATOM     17  C   UNL     1      -2.426  -4.151  -0.261  0.00  0.00    +0.035 A 
ATOM     18  C   UNL     1      -2.885  -4.838   0.856  0.00  0.00    +0.025 A 
ATOM     19  C   UNL     1      -2.787  -6.214   0.908  0.00  0.00    +0.027 A 
ATOM     20  C   UNL     1      -2.228  -6.912  -0.156  0.00  0.00    +0.055 A 
ATOM     21  C   UNL     1      -1.769  -6.224  -1.272  0.00  0.00    +0.148 A 
ATOM     22  C   UNL     1      -1.873  -4.848  -1.326  0.00  0.00    +0.058 A 
BRANCH  21  23
ATOM     23  N   UNL     1      -1.173  -6.967  -2.405  0.00  0.00    +0.058 N 
ATOM     24  O   UNL     1      -0.204  -6.524  -2.976  0.00  0.00    -0.126 OA
ATOM     25  O   UNL     1      -1.656  -8.017  -2.760  0.00  0.00    -0.126 OA
ENDBRANCH  21  23
BRANCH  20  26
ATOM     26  N   UNL     1      -2.127  -8.306  -0.102  0.00  0.00    -0.356 N 
ATOM     27  H   UNL     1      -2.540  -8.795   0.627  0.00  0.00    +0.142 HD
ATOM     28  H   UNL     1      -1.645  -8.784  -0.795  0.00  0.00    +0.142 HD
ENDBRANCH  20  26
ENDBRANCH  15  17
ENDBRANCH   1  15
TORSDOF 8
