REMARK  Name = ZINC00821999
REMARK  7 active torsions:
REMARK  status: ('A' for Active; 'I' for Inactive)
REMARK    1  A    between atoms: C_1  and  C_2
REMARK    2  A    between atoms: C_5  and  N_8
REMARK    3  A    between atoms: C_9  and  C_11
REMARK    4  A    between atoms: C_11  and  N_12
REMARK    5  A    between atoms: N_20  and  N_21
REMARK    6  A    between atoms: C_22  and  C_24
REMARK    7  A    between atoms: C_29  and  N_30
REMARK                            x       y       z     vdW  Elec       q    Type
REMARK                         _______ _______ _______ _____ _____    ______ ____
ROOT
ATOM      1  N   UNL     1      -0.245  -4.552   3.396  0.00  0.00    -0.257 N 
ATOM      2  C   UNL     1       0.919  -4.476   4.152  0.00  0.00    +0.047 A 
ATOM      3  C   UNL     1       2.123  -3.815   3.932  0.00  0.00    +0.024 A 
ATOM      4  C   UNL     1       3.142  -3.904   4.858  0.00  0.00    +0.002 A 
ATOM      5  C   UNL     1       2.981  -4.648   6.015  0.00  0.00    +0.001 A 
ATOM      6  C   UNL     1       1.793  -5.312   6.251  0.00  0.00    +0.012 A 
ATOM      7  C   UNL     1       0.761  -5.229   5.323  0.00  0.00    +0.028 A 
ATOM      8  C   UNL     1      -0.604  -5.803   5.270  0.00  0.00    +0.153 C 
ATOM      9  N   UNL     1      -1.180  -6.575   6.159  0.00  0.00    -0.174 NA
ATOM     10  C   UNL     1      -1.176  -5.310   4.001  0.00  0.00    +0.272 C 
ATOM     11  O   UNL     1      -2.291  -5.550   3.577  0.00  0.00    -0.268 OA
ENDROOT
BRANCH   9  12
ATOM     12  N   UNL     1      -2.488  -7.032   5.947  0.00  0.00    -0.202 N 
ATOM     13  C   UNL     1      -3.080  -7.826   6.861  0.00  0.00    +0.265 C 
ATOM     14  O   UNL     1      -2.480  -8.147   7.869  0.00  0.00    -0.268 OA
ATOM     15  H   UNL     1      -2.967  -6.776   5.144  0.00  0.00    +0.178 HD
BRANCH  13  16
ATOM     16  C   UNL     1      -4.455  -8.306   6.639  0.00  0.00    +0.059 A 
ATOM     17  C   UNL     1      -5.110  -8.032   5.434  0.00  0.00    +0.015 A 
ATOM     18  C   UNL     1      -6.395  -8.484   5.233  0.00  0.00    +0.001 A 
ATOM     19  C   UNL     1      -7.046  -9.209   6.219  0.00  0.00    +0.002 A 
ATOM     20  C   UNL     1      -6.414  -9.488   7.413  0.00  0.00    +0.023 A 
ATOM     21  C   UNL     1      -5.115  -9.047   7.633  0.00  0.00    +0.037 A 
BRANCH  21  22
ATOM     22  N   UNL     1      -4.474  -9.331   8.832  0.00  0.00    -0.357 N 
ATOM     23  H   UNL     1      -3.505  -9.348   8.872  0.00  0.00    +0.142 HD
ATOM     24  H   UNL     1      -4.996  -9.512   9.629  0.00  0.00    +0.142 HD
ENDBRANCH  21  22
ENDBRANCH  13  16
ENDBRANCH   9  12
BRANCH   1  25
ATOM     25  C   UNL     1      -0.436  -3.886   2.105  0.00  0.00    +0.210 C 
BRANCH  25  27
ATOM     26  N   UNL     1      -1.262  -1.705   1.279  0.00  0.00    -0.284 N 
ATOM     27  C   UNL     1      -1.003  -2.508   2.331  0.00  0.00    +0.235 C 
ATOM     28  O   UNL     1      -1.226  -2.121   3.458  0.00  0.00    -0.274 OA
ATOM     29  H   UNL     1      -1.157  -2.041   0.375  0.00  0.00    +0.155 HD
BRANCH  26  34
ATOM     30  C   UNL     1      -2.970   3.636   2.139  0.00  0.00    +0.044 C 
ATOM     31  C   UNL     1      -2.517   2.217   1.911  0.00  0.00    -0.050 A 
ATOM     32  C   UNL     1      -1.640   1.622   2.799  0.00  0.00    +0.005 A 
ATOM     33  C   UNL     1      -1.222   0.322   2.592  0.00  0.00    +0.023 A 
ATOM     34  C   UNL     1      -1.684  -0.388   1.492  0.00  0.00    +0.033 A 
ATOM     35  C   UNL     1      -2.565   0.212   0.602  0.00  0.00    +0.023 A 
ATOM     36  C   UNL     1      -2.983   1.511   0.817  0.00  0.00    +0.005 A 
ENDBRANCH  26  34
ENDBRANCH  25  27
ENDBRANCH   1  25
TORSDOF 6
