REMARK  Name = ZINC09758832
REMARK  11 active torsions:
REMARK  status: ('A' for Active; 'I' for Inactive)
REMARK    1  A    between atoms: C_1  and  C_2
REMARK    2  A    between atoms: C_2  and  C_3
REMARK    3  A    between atoms: C_6  and  C_9
REMARK    4  A    between atoms: C_9  and  C_11
REMARK    5  A    between atoms: C_9  and  N_14
REMARK    6  A    between atoms: C_11  and  C_12
REMARK    7  A    between atoms: C_11  and  C_13
REMARK    8  A    between atoms: N_17  and  C_18
REMARK    9  A    between atoms: C_18  and  C_19
REMARK   10  A    between atoms: C_22  and  S_25
REMARK   11  A    between atoms: S_25  and  N_28
REMARK                            x       y       z     vdW  Elec       q    Type
REMARK                         _______ _______ _______ _____ _____    ______ ____
ROOT
ATOM      1  N   UNL     1       3.993  -1.180  -4.884  0.00  0.00    -0.292 N 
ATOM      2  C   UNL     1       4.564  -1.046  -6.098  0.00  0.00    +0.300 C 
ATOM      3  O   UNL     1       4.012  -1.496  -7.083  0.00  0.00    -0.253 OA
ATOM      4  N   UNL     1       5.748  -0.413  -6.219  0.00  0.00    -0.295 N 
ATOM      5  H   UNL     1       4.434  -0.821  -4.098  0.00  0.00    +0.151 HD
ATOM      6  H   UNL     1       6.189  -0.054  -5.433  0.00  0.00    +0.151 HD
ENDROOT
BRANCH   1   7
ATOM      7  C   UNL     1       2.707  -1.868  -4.752  0.00  0.00    +0.107 C 
BRANCH   7  11
ATOM      8  C   UNL     1       0.707  -0.490  -1.238  0.00  0.00    -0.048 A 
ATOM      9  C   UNL     1      -0.011  -0.719  -2.397  0.00  0.00    +0.004 A 
ATOM     10  C   UNL     1       0.636  -1.164  -3.534  0.00  0.00    +0.006 A 
ATOM     11  C   UNL     1       2.002  -1.381  -3.513  0.00  0.00    -0.027 A 
ATOM     12  C   UNL     1       2.720  -1.152  -2.354  0.00  0.00    +0.006 A 
ATOM     13  C   UNL     1       2.073  -0.702  -1.218  0.00  0.00    +0.004 A 
BRANCH   8  15
ATOM     14  C   UNL     1      -0.019   1.526   0.010  0.00  0.00    +0.009 C 
ATOM     15  C   UNL     1       0.002  -0.004   0.002  0.00  0.00    +0.032 C 
ENDBRANCH   8  15
ENDBRANCH   7  11
BRANCH   7  16
ATOM     16  C   UNL     1       2.943  -3.376  -4.645  0.00  0.00    +0.008 C 
ATOM     17  C   UNL     1       1.600  -4.095  -4.508  0.00  0.00    +0.009 C 
ATOM     18  C   UNL     1       3.659  -3.870  -5.904  0.00  0.00    +0.009 C 
ENDBRANCH   7  16
ENDBRANCH   1   7
BRANCH   4  19
ATOM     19  C   UNL     1       6.369  -0.267  -7.538  0.00  0.00    +0.141 C 
BRANCH  19  20
ATOM     20  C   UNL     1       7.675   0.472  -7.399  0.00  0.00    -0.030 A 
ATOM     21  C   UNL     1       7.701   1.851  -7.484  0.00  0.00    +0.007 A 
ATOM     22  C   UNL     1       8.899   2.529  -7.357  0.00  0.00    +0.029 A 
ATOM     23  C   UNL     1      10.071   1.827  -7.145  0.00  0.00    +0.105 A 
ATOM     24  C   UNL     1      10.045   0.448  -7.059  0.00  0.00    +0.029 A 
ATOM     25  C   UNL     1       8.846  -0.230  -7.182  0.00  0.00    +0.007 A 
BRANCH  23  26
ATOM     26  S   UNL     1      11.598   2.691  -6.984  0.00  0.00    +0.056 S 
ATOM     27  O   UNL     1      12.624   1.772  -7.336  0.00  0.00    -0.153 OA
ATOM     28  O   UNL     1      11.432   3.937  -7.647  0.00  0.00    -0.153 OA
BRANCH  26  29
ATOM     29  N   UNL     1      11.801   3.033  -5.377  0.00  0.00    -0.204 NA
ATOM     30  H   UNL     1      12.693   3.095  -5.003  0.00  0.00    +0.144 HD
ATOM     31  H   UNL     1      11.026   3.172  -4.809  0.00  0.00    +0.144 HD
ENDBRANCH  26  29
ENDBRANCH  23  26
ENDBRANCH  19  20
ENDBRANCH   4  19
TORSDOF 8
