REMARK  Name = ZINC13152244
REMARK  5 active torsions:
REMARK  status: ('A' for Active; 'I' for Inactive)
REMARK    1  A    between atoms: C_1  and  C_2
REMARK    2  A    between atoms: C_2  and  C_3
REMARK    3  A    between atoms: C_3  and  C_4
REMARK    4  A    between atoms: N_12  and  C_15
REMARK    5  A    between atoms: N_22  and  C_23
REMARK                            x       y       z     vdW  Elec       q    Type
REMARK                         _______ _______ _______ _____ _____    ______ ____
ROOT
ATOM      1  C   UNL     1      -1.623  -1.994  -0.305  0.00  0.00    +0.127 C 
ATOM      2  C   UNL     1      -3.015  -2.624  -0.063  0.00  0.00    +0.141 C 
ATOM      3  C   UNL     1      -3.006  -2.945   1.456  0.00  0.00    +0.249 C 
ATOM      4  C   UNL     1      -3.024  -4.456   1.495  0.00  0.00    +0.258 C 
ATOM      5  O   UNL     1      -3.015  -5.132   2.501  0.00  0.00    -0.272 OA
ATOM      6  N   UNL     1      -3.051  -4.932   0.244  0.00  0.00    -0.208 N 
ATOM      7  C   UNL     1      -3.059  -3.984  -0.725  0.00  0.00    +0.234 C 
ATOM      8  O   UNL     1      -3.093  -4.180  -1.921  0.00  0.00    -0.274 OA
ATOM      9  O   UNL     1      -1.746  -2.456   1.948  0.00  0.00    -0.258 OA
ATOM     10  N   UNL     1      -0.827  -2.496   0.842  0.00  0.00    -0.248 N 
ENDROOT
BRANCH   6  11
ATOM     11  C   UNL     1      -3.078  -6.304  -0.044  0.00  0.00    +0.044 A 
ATOM     12  C   UNL     1      -1.987  -6.907  -0.656  0.00  0.00    +0.024 A 
ATOM     13  C   UNL     1      -2.015  -8.258  -0.939  0.00  0.00    +0.002 A 
ATOM     14  C   UNL     1      -3.129  -9.011  -0.614  0.00  0.00    +0.000 A 
ATOM     15  C   UNL     1      -4.217  -8.413  -0.005  0.00  0.00    +0.002 A 
ATOM     16  C   UNL     1      -4.192  -7.063   0.285  0.00  0.00    +0.024 A 
ENDBRANCH   6  11
BRANCH  10  17
ATOM     17  C   UNL     1       0.508  -2.904   0.841  0.00  0.00    +0.065 A 
ATOM     18  C   UNL     1       1.250  -2.861  -0.333  0.00  0.00    +0.028 A 
ATOM     19  C   UNL     1       2.570  -3.265  -0.329  0.00  0.00    +0.002 A 
ATOM     20  C   UNL     1       3.155  -3.713   0.841  0.00  0.00    +0.000 A 
ATOM     21  C   UNL     1       2.420  -3.758   2.012  0.00  0.00    +0.002 A 
ATOM     22  C   UNL     1       1.100  -3.349   2.017  0.00  0.00    +0.028 A 
ENDBRANCH  10  17
BRANCH   1  23
ATOM     23  C   UNL     1      -1.708  -0.467  -0.280  0.00  0.00    +0.028 C 
BRANCH  23  25
ATOM     24  C   UNL     1      -0.414   1.653  -0.557  0.00  0.00    +0.004 C 
ATOM     25  C   UNL     1      -0.330   0.125  -0.583  0.00  0.00    -0.001 C 
ENDBRANCH  23  25
ENDBRANCH   1  23
TORSDOF 4
