REMARK  Name = ZINC39029489
REMARK  7 active torsions:
REMARK  status: ('A' for Active; 'I' for Inactive)
REMARK    1  A    between atoms: C_3  and  S_26
REMARK    2  A    between atoms: C_6  and  C_7
REMARK    3  A    between atoms: C_10  and  C_12
REMARK    4  A    between atoms: C_13  and  C_14
REMARK    5  A    between atoms: C_13  and  C_16
REMARK    6  A    between atoms: C_18  and  C_24
REMARK    7  A    between atoms: S_26  and  N_29
REMARK                            x       y       z     vdW  Elec       q    Type
REMARK                         _______ _______ _______ _____ _____    ______ ____
ROOT
ATOM      1  C   UNL     1      -1.276  -0.816   0.013  0.00  0.00    +0.136 A 
ATOM      2  C   UNL     1      -1.405  -2.116  -0.386  0.00  0.00    +0.050 A 
ATOM      3  C   UNL     1      -2.773  -2.384  -0.482  0.00  0.00    +0.050 A 
ATOM      4  C   UNL     1      -3.432  -1.220  -0.133  0.00  0.00    +0.130 A 
ATOM      5  O   UNL     1      -2.504  -0.288   0.168  0.00  0.00    -0.455 OA
ENDROOT
BRANCH   1  11
ATOM      6  C   UNL     1      -0.003   1.225   0.656  0.00  0.00    +0.013 A 
ATOM      7  C   UNL     1       1.192   1.880   0.869  0.00  0.00    +0.029 A 
ATOM      8  C   UNL     1       2.392   1.218   0.672  0.00  0.00    +0.105 A 
ATOM      9  C   UNL     1       2.401  -0.103   0.262  0.00  0.00    +0.029 A 
ATOM     10  C   UNL     1       1.214  -0.770   0.045  0.00  0.00    +0.013 A 
ATOM     11  C   UNL     1      -0.001  -0.109   0.242  0.00  0.00    +0.017 A 
BRANCH   8  12
ATOM     12  S   UNL     1       3.914   2.062   0.946  0.00  0.00    +0.056 S 
ATOM     13  O   UNL     1       4.896   1.391   0.168  0.00  0.00    -0.153 OA
ATOM     14  O   UNL     1       3.641   3.449   0.798  0.00  0.00    -0.153 OA
BRANCH  12  15
ATOM     15  N   UNL     1       4.325   1.828   2.533  0.00  0.00    -0.204 NA
ATOM     16  H   UNL     1       3.751   1.301   3.110  0.00  0.00    +0.144 HD
ATOM     17  H   UNL     1       5.141   2.217   2.885  0.00  0.00    +0.144 HD
ENDBRANCH  12  15
ENDBRANCH   8  12
ENDBRANCH   1  11
BRANCH   4  18
ATOM     18  C   UNL     1      -4.835  -1.040  -0.093  0.00  0.00    +0.062 C 
ATOM     19  C   UNL     1      -5.354   0.192   0.142  0.00  0.00    +0.056 C 
BRANCH  19  20
ATOM     20  C   UNL     1      -4.455   1.401   0.138  0.00  0.00    +0.154 C 
ATOM     21  C   UNL     1      -4.465   2.090   1.517  0.00  0.00    +0.182 C 
ATOM     22  C   UNL     1      -5.011   3.470   1.231  0.00  0.00    +0.130 C 
ATOM     23  N   UNL     1      -5.266   3.580  -0.021  0.00  0.00    -0.175 NA
ATOM     24  N   UNL     1      -4.981   2.435  -0.768  0.00  0.00    -0.258 N 
ATOM     25  N   UNL     1      -5.206   4.466   2.178  0.00  0.00    -0.344 N 
ATOM     26  H   UNL     1      -5.109   2.335  -1.725  0.00  0.00    +0.169 HD
ATOM     27  H   UNL     1      -4.987   4.301   3.108  0.00  0.00    +0.143 HD
ATOM     28  H   UNL     1      -5.562   5.328   1.909  0.00  0.00    +0.143 HD
BRANCH  21  29
ATOM     29  C   UNL     1      -3.100   2.174   2.062  0.00  0.00    +0.076 C 
ATOM     30  N   UNL     1      -2.046   2.239   2.482  0.00  0.00    -0.196 NA
ENDBRANCH  21  29
ENDBRANCH  19  20
BRANCH  19  31
ATOM     31  C   UNL     1      -6.756   0.342   0.393  0.00  0.00    +0.097 C 
ATOM     32  N   UNL     1      -7.868   0.461   0.593  0.00  0.00    -0.191 NA
ENDBRANCH  19  31
ENDBRANCH   4  18
TORSDOF 7
