REMARK  Name = ZINC22707963
REMARK  5 active torsions:
REMARK  status: ('A' for Active; 'I' for Inactive)
REMARK    1  A    between atoms: C_1  and  C_2
REMARK    2  A    between atoms: C_5  and  C_8
REMARK    3  A    between atoms: C_10  and  C_13
REMARK    4  A    between atoms: C_13  and  N_14
REMARK    5  A    between atoms: C_16  and  C_22
REMARK                            x       y       z     vdW  Elec       q    Type
REMARK                         _______ _______ _______ _____ _____    ______ ____
ROOT
ATOM      1  C   UNL     1       0.102  -7.482   1.642  0.00  0.00    +0.223 C 
ENDROOT
BRANCH   1   2
ATOM      2  N   UNL     1      -1.274  -7.883   1.946  0.00  0.00    -0.304 N 
ATOM      3  C   UNL     1      -1.915  -7.332   3.008  0.00  0.00    +0.102 A 
ATOM      4  C   UNL     1      -3.186  -7.686   3.309  0.00  0.00    +0.073 A 
ATOM      5  C   UNL     1      -3.855  -8.632   2.519  0.00  0.00    +0.039 A 
ATOM      6  C   UNL     1      -3.210  -9.185   1.452  0.00  0.00    +0.106 A 
ATOM      7  C   UNL     1      -1.891  -8.790   1.165  0.00  0.00    +0.270 A 
ATOM      8  O   UNL     1      -1.304  -9.273   0.210  0.00  0.00    -0.266 OA
ATOM      9 CL   UNL     1      -4.011 -10.360   0.455  0.00  0.00    -0.078 Cl
BRANCH   4  10
ATOM     10  C   UNL     1      -3.882  -7.064   4.492  0.00  0.00    +0.419 C 
ATOM     11  F   UNL     1      -4.643  -5.971   4.065  0.00  0.00    -0.166 F 
ATOM     12  F   UNL     1      -4.721  -8.011   5.090  0.00  0.00    -0.166 F 
ATOM     13  F   UNL     1      -2.928  -6.634   5.421  0.00  0.00    -0.166 F 
ENDBRANCH   4  10
ENDBRANCH   1   2
BRANCH   1  16
ATOM     14  C   UNL     1       0.059  -4.256  -0.021  0.00  0.00    +0.202 A 
ATOM     15  N   UNL     1       0.070  -5.047   1.067  0.00  0.00    -0.190 NA
ATOM     16  C   UNL     1       0.086  -6.299   0.708  0.00  0.00    +0.248 A 
ATOM     17  O   UNL     1       0.086  -6.357  -0.630  0.00  0.00    -0.336 OA
ATOM     18  N   UNL     1       0.064  -5.015  -1.090  0.00  0.00    -0.056 NA
BRANCH  14  23
ATOM     19  C   UNL     1      -0.018   1.503   0.010  0.00  0.00    +0.044 C 
ATOM     20  C   UNL     1       0.002  -0.004   0.002  0.00  0.00    -0.050 A 
ATOM     21  C   UNL     1       0.006  -0.686  -1.201  0.00  0.00    +0.004 A 
ATOM     22  C   UNL     1       0.024  -2.067  -1.214  0.00  0.00    +0.012 A 
ATOM     23  C   UNL     1       0.040  -2.772  -0.013  0.00  0.00    +0.022 A 
ATOM     24  C   UNL     1       0.036  -2.080   1.196  0.00  0.00    +0.012 A 
ATOM     25  C   UNL     1       0.023  -0.700   1.198  0.00  0.00    +0.004 A 
ENDBRANCH  14  23
ENDBRANCH   1  16
TORSDOF 4
