REMARK  Name = ZINC20921650
REMARK  12 active torsions:
REMARK  status: ('A' for Active; 'I' for Inactive)
REMARK    1  A    between atoms: C_1  and  C_2
REMARK    2  A    between atoms: C_4  and  C_30
REMARK    3  A    between atoms: C_6  and  N_8
REMARK    4  A    between atoms: C_9  and  C_11
REMARK    5  A    between atoms: C_11  and  S_12
REMARK    6  A    between atoms: S_12  and  C_13
REMARK    7  A    between atoms: N_17  and  N_18
REMARK    8  A    between atoms: N_19  and  N_20
REMARK    9  A    between atoms: C_21  and  C_22
REMARK   10  A    between atoms: N_25  and  C_27
REMARK   11  A    between atoms: C_27  and  C_28
REMARK   12  A    between atoms: C_27  and  C_29
REMARK                            x       y       z     vdW  Elec       q    Type
REMARK                         _______ _______ _______ _____ _____    ______ ____
ROOT
ATOM      1  C   UNL     1      -4.128   1.720  -0.348  0.00  0.00    +0.210 A 
ATOM      2  N   UNL     1      -4.177   3.018  -0.168  0.00  0.00    -0.119 NA
ATOM      3  N   UNL     1      -5.522   3.410  -0.203  0.00  0.00    -0.109 NA
ATOM      4  C   UNL     1      -6.251   2.337  -0.397  0.00  0.00    +0.254 A 
ATOM      5  N   UNL     1      -5.409   1.265  -0.491  0.00  0.00    -0.211 N 
ATOM      6  N   UNL     1      -7.635   2.298  -0.488  0.00  0.00    -0.204 N 
ATOM      7  H   UNL     1      -8.148   1.339  -0.652  0.00  0.00    +0.177 HD
ENDROOT
BRANCH   5   8
ATOM      8  N   UNL     1      -5.782  -0.034  -0.694  0.00  0.00    -0.294 N 
ATOM      9  H   UNL     1      -6.846  -0.291  -0.796  0.00  0.00    +0.163 HD
ATOM     10  H   UNL     1      -5.017  -0.822  -0.755  0.00  0.00    +0.163 HD
ENDBRANCH   5   8
BRANCH   6  11
ATOM     11  N   UNL     1      -8.379   3.480  -0.372  0.00  0.00    -0.187 NA
ATOM     12  C   UNL     1      -9.673   3.443  -0.459  0.00  0.00    +0.141 C 
BRANCH  12  13
ATOM     13  C   UNL     1     -10.457   4.688  -0.336  0.00  0.00    +0.032 A 
ATOM     14  C   UNL     1      -9.940   5.983  -0.120  0.00  0.00    +0.143 A 
ATOM     15  N   UNL     1     -10.944   6.818  -0.073  0.00  0.00    -0.179 NA
ATOM     16  N   UNL     1     -12.135   6.103  -0.246  0.00  0.00    -0.268 N 
ATOM     17  C   UNL     1     -11.828   4.800  -0.407  0.00  0.00    +0.118 A 
BRANCH  16  18
ATOM     18  C   UNL     1     -13.484   6.674  -0.251  0.00  0.00    +0.101 C 
ATOM     19  C   UNL     1     -13.914   6.954  -1.692  0.00  0.00    +0.032 C 
ATOM     20  C   UNL     1     -14.459   5.683   0.389  0.00  0.00    +0.032 C 
ENDBRANCH  16  18
ENDBRANCH  12  13
ENDBRANCH   6  11
BRANCH   1  21
ATOM     21  S   UNL     1      -2.668   0.735  -0.392  0.00  0.00    -0.075 S 
BRANCH  21  22
ATOM     22  C   UNL     1      -1.326   1.929  -0.144  0.00  0.00    +0.173 C 
BRANCH  22  24
ATOM     23  N   UNL     1       1.143   1.898   0.001  0.00  0.00    -0.285 N 
ATOM     24  C   UNL     1      -0.003   1.208  -0.160  0.00  0.00    +0.227 C 
ATOM     25  O   UNL     1       0.031   0.006  -0.322  0.00  0.00    -0.275 OA
ATOM     26  H   UNL     1       1.120   2.997   0.061  0.00  0.00    +0.155 HD
BRANCH  23  32
ATOM     27  C   UNL     1       5.978   1.746  -0.877  0.00  0.00    +0.044 C 
ATOM     28  C   UNL     1       4.723   1.121  -0.326  0.00  0.00    -0.048 A 
ATOM     29  C   UNL     1       4.775  -0.125   0.271  0.00  0.00    +0.006 A 
ATOM     30  C   UNL     1       3.625  -0.701   0.778  0.00  0.00    -0.048 A 
ATOM     31  C   UNL     1       2.420  -0.033   0.690  0.00  0.00    +0.026 A 
ATOM     32  C   UNL     1       2.363   1.219   0.092  0.00  0.00    +0.034 A 
ATOM     33  C   UNL     1       3.519   1.792  -0.422  0.00  0.00    +0.026 A 
ATOM     34  C   UNL     1       3.687  -2.060   1.428  0.00  0.00    +0.044 C 
ENDBRANCH  23  32
ENDBRANCH  22  24
ENDBRANCH  21  22
ENDBRANCH   1  21
TORSDOF 8
