REMARK  Name = ZINC08915424
REMARK  9 active torsions:
REMARK  status: ('A' for Active; 'I' for Inactive)
REMARK    1  A    between atoms: C_1  and  C_2
REMARK    2  A    between atoms: C_2  and  C_3
REMARK    3  A    between atoms: C_2  and  C_4
REMARK    4  A    between atoms: C_2  and  C_5
REMARK    5  A    between atoms: C_8  and  C_11
REMARK    6  A    between atoms: C_13  and  C_25
REMARK    7  A    between atoms: C_15  and  C_20
REMARK    8  A    between atoms: C_15  and  O_24
REMARK    9  A    between atoms: C_25  and  C_27
REMARK                            x       y       z     vdW  Elec       q    Type
REMARK                         _______ _______ _______ _____ _____    ______ ____
ROOT
ATOM      1  C   UNL     1       2.368  -2.205  -4.297  0.00  0.00    +0.120 C 
ATOM      2  C   UNL     1       3.679  -2.992  -4.380  0.00  0.00    +0.145 C 
ATOM      3  C   UNL     1       4.297  -2.768  -5.764  0.00  0.00    +0.243 C 
ATOM      4  N   UNL     1       4.457  -1.330  -5.991  0.00  0.00    -0.264 N 
ATOM      5  C   UNL     1       3.634  -0.438  -5.419  0.00  0.00    +0.302 C 
ATOM      6  O   UNL     1       3.804   0.744  -5.649  0.00  0.00    -0.253 OA
ATOM      7  N   UNL     1       2.630  -0.798  -4.605  0.00  0.00    -0.292 N 
ATOM      8  H   UNL     1       5.171  -1.017  -6.567  0.00  0.00    +0.153 HD
ATOM      9  H   UNL     1       2.068  -0.113  -4.211  0.00  0.00    +0.151 HD
ENDROOT
BRANCH   1  13
ATOM     10  C   UNL     1       0.752  -2.526  -0.356  0.00  0.00    -0.042 A 
ATOM     11  C   UNL     1       1.672  -1.536  -0.647  0.00  0.00    +0.004 A 
ATOM     12  C   UNL     1       2.195  -1.433  -1.923  0.00  0.00    +0.006 A 
ATOM     13  C   UNL     1       1.798  -2.319  -2.906  0.00  0.00    -0.026 A 
ATOM     14  C   UNL     1       0.879  -3.309  -2.615  0.00  0.00    +0.006 A 
ATOM     15  C   UNL     1       0.359  -3.415  -1.338  0.00  0.00    +0.004 A 
BRANCH  10  17
ATOM     16  C   UNL     1       0.528  -4.011   1.618  0.00  0.00    +0.015 C 
ATOM     17  C   UNL     1       0.182  -2.639   1.035  0.00  0.00    -0.013 C 
ATOM     18  C   UNL     1      -1.338  -2.478   0.977  0.00  0.00    +0.015 C 
ATOM     19  C   UNL     1       0.778  -1.544   1.921  0.00  0.00    +0.015 C 
ENDBRANCH  10  17
ENDBRANCH   1  13
BRANCH   3  20
ATOM     20  C   UNL     1       5.665  -3.450  -5.830  0.00  0.00    +0.436 C 
ATOM     21  F   UNL     1       5.512  -4.823  -5.606  0.00  0.00    -0.166 F 
ATOM     22  F   UNL     1       6.228  -3.245  -7.095  0.00  0.00    -0.166 F 
ATOM     23  F   UNL     1       6.505  -2.908  -4.852  0.00  0.00    -0.166 F 
ENDBRANCH   3  20
BRANCH   3  24
ATOM     24  O   UNL     1       3.438  -3.317  -6.765  0.00  0.00    -0.364 OA
ATOM     25  H   UNL     1       3.768  -3.210  -7.668  0.00  0.00    +0.212 HD
ENDBRANCH   3  24
BRANCH   2  26
ATOM     26  C   UNL     1       4.628  -2.508  -3.313  0.00  0.00    +0.179 C 
ATOM     27  O   UNL     1       4.794  -1.317  -3.144  0.00  0.00    -0.291 OA
BRANCH  26  28
ATOM     28  C   UNL     1       5.324  -3.440  -2.511  0.00  0.00    +0.055 A 
ATOM     29  C   UNL     1       6.230  -3.206  -1.481  0.00  0.00    +0.019 A 
ATOM     30  C   UNL     1       6.747  -4.325  -0.880  0.00  0.00    +0.008 A 
ATOM     31  C   UNL     1       6.355  -5.551  -1.315  0.00  0.00    +0.046 A 
ATOM     32  S   UNL     1       5.265  -5.221  -2.550  0.00  0.00    -0.094 S 
ENDBRANCH  26  28
ENDBRANCH   2  26
TORSDOF 6
