REMARK  Name = ZINC04729729
REMARK  8 active torsions:
REMARK  status: ('A' for Active; 'I' for Inactive)
REMARK    1  A    between atoms: C_1  and  C_2
REMARK    2  A    between atoms: C_10  and  C_22
REMARK    3  A    between atoms: C_12  and  C_18
REMARK    4  A    between atoms: C_12  and  C_20
REMARK    5  A    between atoms: C_13  and  N_17
REMARK    6  A    between atoms: C_14  and  C_15
REMARK    7  A    between atoms: C_26  and  O_28
REMARK    8  A    between atoms: O_28  and  C_29
REMARK                            x       y       z     vdW  Elec       q    Type
REMARK                         _______ _______ _______ _____ _____    ______ ____
ROOT
ATOM      1  C   UNL     1       1.259   1.372   2.362  0.00  0.00    +0.008 C 
ATOM      2  C   UNL     1       1.328   2.598   3.275  0.00  0.00    -0.010 C 
ATOM      3  C   UNL     1       2.514   2.459   4.239  0.00  0.00    +0.030 C 
ATOM      4  C   UNL     1       3.765   2.313   3.412  0.00  0.00    -0.021 C 
ATOM      5  C   UNL     1       3.878   2.904   2.239  0.00  0.00    -0.029 C 
ATOM      6  C   UNL     1       2.829   3.799   1.649  0.00  0.00    +0.031 C 
ATOM      7  C   UNL     1       1.538   3.855   2.432  0.00  0.00    +0.012 C 
ATOM      8  C   UNL     1       2.597   3.375   0.197  0.00  0.00    +0.066 C 
ATOM      9  C   UNL     1       3.887   3.588  -0.596  0.00  0.00    +0.188 C 
ATOM     10  C   UNL     1       5.065   2.959   0.090  0.00  0.00    +0.054 C 
ATOM     11  C   UNL     1       5.084   2.644   1.410  0.00  0.00    +0.074 C 
ENDROOT
BRANCH   8  12
ATOM     12  C   UNL     1       2.211   1.919   0.151  0.00  0.00    -0.037 A 
ATOM     13  C   UNL     1       3.157   0.945   0.411  0.00  0.00    +0.004 A 
ATOM     14  C   UNL     1       2.806  -0.392   0.370  0.00  0.00    +0.004 A 
ATOM     15  C   UNL     1       1.508  -0.757   0.069  0.00  0.00    +0.045 A 
ATOM     16  C   UNL     1       0.557   0.218  -0.192  0.00  0.00    +0.120 A 
ATOM     17  C   UNL     1       0.912   1.559  -0.150  0.00  0.00    +0.049 A 
BRANCH  16  18
ATOM     18  O   UNL     1      -0.721  -0.139  -0.489  0.00  0.00    -0.495 OA
ATOM     19  C   UNL     1      -1.014  -1.537  -0.514  0.00  0.00    +0.277 C 
ENDBRANCH  16  18
ENDBRANCH   8  12
BRANCH  10  20
ATOM     20  N   UNL     1       6.178   2.690  -0.655  0.00  0.00    -0.358 N 
ATOM     21  H   UNL     1       7.058   2.229  -0.183  0.00  0.00    +0.142 HD
ATOM     22  H   UNL     1       6.194   2.933  -1.728  0.00  0.00    +0.142 HD
ENDBRANCH  10  20
BRANCH  11  23
ATOM     23  C   UNL     1       6.255   2.067   1.998  0.00  0.00    +0.101 C 
ATOM     24  N   UNL     1       7.184   1.608   2.465  0.00  0.00    -0.191 NA
ENDBRANCH  11  23
BRANCH   9  25
ATOM     25  C   UNL     1       3.732   2.993  -1.933  0.00  0.00    +0.091 C 
ATOM     26  N   UNL     1       3.612   2.533  -2.966  0.00  0.00    -0.194 NA
ENDBRANCH   9  25
BRANCH   9  27
ATOM     27  C   UNL     1       4.129   5.032  -0.740  0.00  0.00    +0.091 C 
ATOM     28  N   UNL     1       4.317   6.147  -0.852  0.00  0.00    -0.194 NA
ENDBRANCH   9  27
TORSDOF 6
