REMARK  Name = ZINC19878724
REMARK  4 active torsions:
REMARK  status: ('A' for Active; 'I' for Inactive)
REMARK    1  A    between atoms: C_3  and  S_10
REMARK    2  A    between atoms: C_6  and  C_7
REMARK    3  A    between atoms: S_10  and  N_13
REMARK    4  A    between atoms: N_13  and  N_14
REMARK                            x       y       z     vdW  Elec       q    Type
REMARK                         _______ _______ _______ _____ _____    ______ ____
ROOT
ATOM      1  C   UNL     1      -2.561   1.401   3.117  0.00  0.00    +0.017 A 
ATOM      2  C   UNL     1      -1.846   1.030   1.998  0.00  0.00    +0.025 A 
ATOM      3  C   UNL     1      -0.927   1.900   1.439  0.00  0.00    +0.062 A 
ATOM      4  C   UNL     1      -0.714   3.147   2.002  0.00  0.00    +0.025 A 
ATOM      5  C   UNL     1      -1.427   3.533   3.118  0.00  0.00    +0.017 A 
ATOM      6  C   UNL     1      -2.356   2.660   3.687  0.00  0.00    +0.063 A 
ENDROOT
BRANCH   6   7
ATOM      7  C   UNL     1      -3.118   3.065   4.885  0.00  0.00    +0.387 C 
ATOM      8  O   UNL     1      -3.926   2.303   5.378  0.00  0.00    -0.241 OA
ATOM      9  O   UNL     1      -2.918   4.280   5.432  0.00  0.00    -0.241 OA
ENDBRANCH   6   7
BRANCH   3  10
ATOM     10  S   UNL     1      -0.017   1.417   0.010  0.00  0.00    -0.096 S 
ATOM     11  O   UNL     1       0.002  -0.004   0.002  0.00  0.00    -0.195 OA
ATOM     12  O   UNL     1       1.172   2.195   0.003  0.00  0.00    -0.195 OA
BRANCH  10  13
ATOM     13  N   UNL     1      -0.897   1.885  -1.312  0.00  0.00    +0.409 NA
BRANCH  13  14
ATOM     14  N   UNL     1      -1.196   3.205  -1.501  0.00  0.00    +0.372 N 
ATOM     15  H   UNL     1      -1.782   3.320  -2.425  0.00  0.00    -0.137 HD
ATOM     16  H   UNL     1      -0.265   3.784  -1.583  0.00  0.00    -0.137 HD
ATOM     17  H   UNL     1      -1.783   3.574  -0.647  0.00  0.00    -0.137 HD
ENDBRANCH  13  14
ENDBRANCH  10  13
ENDBRANCH   3  10
TORSDOF 4
