REMARK  Name = ZINC18200591
REMARK  8 active torsions:
REMARK  status: ('A' for Active; 'I' for Inactive)
REMARK    1  A    between atoms: C_1  and  O_2
REMARK    2  A    between atoms: O_2  and  C_3
REMARK    3  A    between atoms: C_6  and  C_11
REMARK    4  A    between atoms: C_8  and  O_9
REMARK    5  A    between atoms: O_9  and  C_10
REMARK    6  A    between atoms: C_16  and  C_27
REMARK    7  A    between atoms: C_24  and  O_25
REMARK    8  A    between atoms: C_30  and  C_33
REMARK                            x       y       z     vdW  Elec       q    Type
REMARK                         _______ _______ _______ _____ _____    ______ ____
ROOT
ATOM      1  C   UNL     1       2.507  -2.501  -4.386  0.00  0.00    +0.032 C 
ATOM      2  C   UNL     1       3.972  -2.066  -4.459  0.00  0.00    +0.059 C 
ATOM      3  C   UNL     1       4.634  -2.703  -5.659  0.00  0.00    +0.017 C 
ATOM      4  C   UNL     1       3.927  -2.964  -6.780  0.00  0.00    +0.024 C 
ATOM      5  C   UNL     1       4.556  -3.582  -8.011  0.00  0.00    +0.092 C 
ATOM      6  C   UNL     1       5.900  -4.152  -7.659  0.00  0.00    +0.067 A 
ATOM      7  C   UNL     1       6.539  -3.853  -6.484  0.00  0.00    +0.126 A 
ATOM      8  N   UNL     1       7.712  -4.514  -6.475  0.00  0.00    -0.260 N 
ATOM      9  H   UNL     1       8.376  -4.491  -5.768  0.00  0.00    +0.190 HD
ATOM     10  N   UNL     1       7.802  -5.244  -7.671  0.00  0.00    -0.134 NA
ATOM     11  C   UNL     1       6.714  -5.023  -8.377  0.00  0.00    +0.237 A 
ATOM     12  N   UNL     1       5.968  -3.002  -5.546  0.00  0.00    -0.303 N 
ATOM     13  C   UNL     1       2.553  -2.675  -6.850  0.00  0.00    +0.162 C 
ATOM     14  O   UNL     1       1.947  -2.914  -7.876  0.00  0.00    -0.292 OA
ATOM     15  C   UNL     1       1.814  -2.077  -5.686  0.00  0.00    +0.088 C 
ATOM     16  H   UNL     1       6.501  -2.627  -4.827  0.00  0.00    +0.153 HD
ENDROOT
BRANCH   1  20
ATOM     17  C   UNL     1       0.606  -0.608  -1.056  0.00  0.00    +0.161 A 
ATOM     18  C   UNL     1       1.173   0.159  -2.062  0.00  0.00    +0.049 A 
ATOM     19  C   UNL     1       1.787  -0.456  -3.137  0.00  0.00    +0.008 A 
ATOM     20  C   UNL     1       1.837  -1.836  -3.212  0.00  0.00    -0.040 A 
ATOM     21  C   UNL     1       1.273  -2.606  -2.212  0.00  0.00    +0.053 A 
ATOM     22  C   UNL     1       0.662  -1.996  -1.129  0.00  0.00    +0.162 A 
BRANCH  17  24
ATOM     23  C   UNL     1      -0.017   1.425   0.010  0.00  0.00    +0.277 C 
ATOM     24  O   UNL     1       0.002  -0.004   0.002  0.00  0.00    -0.491 OA
ENDBRANCH  17  24
BRANCH  22  25
ATOM     25  O   UNL     1       0.112  -2.753  -0.142  0.00  0.00    -0.491 OA
ATOM     26  C   UNL     1       0.206  -4.171  -0.283  0.00  0.00    +0.277 C 
ENDBRANCH  22  25
ENDBRANCH   1  20
BRANCH   5  27
ATOM     27  C   UNL     1       4.722  -2.527  -9.073  0.00  0.00    -0.035 A 
ATOM     28  C   UNL     1       5.505  -1.414  -8.826  0.00  0.00    +0.005 A 
ATOM     29  C   UNL     1       5.657  -0.446  -9.801  0.00  0.00    +0.012 A 
ATOM     30  C   UNL     1       5.027  -0.590 -11.023  0.00  0.00    +0.055 A 
ATOM     31  C   UNL     1       4.244  -1.703 -11.270  0.00  0.00    +0.012 A 
ATOM     32  C   UNL     1       4.096  -2.673 -10.297  0.00  0.00    +0.005 A 
BRANCH  30  33
ATOM     33  C   UNL     1       5.192   0.466 -12.085  0.00  0.00    +0.417 C 
ATOM     34  F   UNL     1       6.298   0.156 -12.883  0.00  0.00    -0.166 F 
ATOM     35  F   UNL     1       4.041   0.512 -12.880  0.00  0.00    -0.166 F 
ATOM     36  F   UNL     1       5.389   1.711 -11.478  0.00  0.00    -0.166 F 
ENDBRANCH  30  33
ENDBRANCH   5  27
BRANCH  11  38
ATOM     37  H   UNL     1       6.744  -5.020 -10.339  0.00  0.00    +0.294 HD
ATOM     38  O   UNL     1       6.433  -5.554  -9.596  0.00  0.00    -0.491 OA
ENDBRANCH  11  38
TORSDOF 6
