REMARK  Name = ZINC20218287
REMARK  3 active torsions:
REMARK  status: ('A' for Active; 'I' for Inactive)
REMARK    1  A    between atoms: C_6  and  N_7
REMARK    2  A    between atoms: C_11  and  C_13
REMARK    3  A    between atoms: C_14  and  C_15
REMARK                            x       y       z     vdW  Elec       q    Type
REMARK                         _______ _______ _______ _____ _____    ______ ____
ROOT
ATOM      1  N   UNL     1      -2.295  -2.731   0.009  0.00  0.00    -0.269 N 
ATOM      2  C   UNL     1      -1.138  -2.041   0.000  0.00  0.00    +0.310 C 
ATOM      3  O   UNL     1      -0.077  -2.634  -0.022  0.00  0.00    -0.252 OA
ATOM      4  N   UNL     1      -1.156  -0.694   0.015  0.00  0.00    -0.236 N 
ATOM      5  C   UNL     1       0.002  -0.004   0.006  0.00  0.00    +0.244 C 
ATOM      6  O   UNL     1       1.062  -0.597  -0.016  0.00  0.00    -0.270 OA
ATOM      7  H   UNL     1      -3.253  -2.198   0.106  0.00  0.00    +0.156 HD
ATOM      8  H   UNL     1      -2.116  -0.157   0.035  0.00  0.00    +0.159 HD
ENDROOT
BRANCH   1  14
ATOM      9  C   UNL     1      -3.295  -4.780  -0.789  0.00  0.00    +0.024 A 
ATOM     10  C   UNL     1      -3.275  -6.156  -0.904  0.00  0.00    +0.017 A 
ATOM     11  C   UNL     1      -2.249  -6.884  -0.328  0.00  0.00    +0.018 A 
ATOM     12  C   UNL     1      -1.239  -6.236   0.361  0.00  0.00    +0.017 A 
ATOM     13  C   UNL     1      -1.252  -4.859   0.474  0.00  0.00    +0.024 A 
ATOM     14  C   UNL     1      -2.280  -4.126  -0.104  0.00  0.00    +0.035 A 
ATOM     15 BR   UNL     1      -2.228  -8.769  -0.481  0.00  0.00    -0.050 Br
ENDBRANCH   1  14
BRANCH   5  16
ATOM     16  C   UNL     1      -0.018   1.472   0.023  0.00  0.00    +0.075 C 
ATOM     17  C   UNL     1       1.135   2.159   0.013  0.00  0.00    +0.101 C 
BRANCH  17  18
ATOM     18  C   UNL     1       1.115   3.634   0.030  0.00  0.00    +0.380 C 
ATOM     19  O   UNL     1       0.056   4.227   0.052  0.00  0.00    -0.241 OA
ATOM     20  O   UNL     1       2.273   4.324   0.021  0.00  0.00    -0.241 OA
ENDBRANCH  17  18
ENDBRANCH   5  16
TORSDOF 3
