REMARK  Name = ZINC00664300
REMARK  4 active torsions:
REMARK  status: ('A' for Active; 'I' for Inactive)
REMARK    1  A    between atoms: C_14  and  C_16
REMARK    2  A    between atoms: C_16  and  O_17
REMARK    3  A    between atoms: C_19  and  N_23
REMARK    4  A    between atoms: C_20  and  C_21
REMARK                            x       y       z     vdW  Elec       q    Type
REMARK                         _______ _______ _______ _____ _____    ______ ____
ROOT
ATOM      1  C   UNL     1      -0.017   1.376   0.010  0.00  0.00    +0.022 A 
ATOM      2  C   UNL     1       1.150   2.126   0.003  0.00  0.00    +0.025 A 
ATOM      3  C   UNL     1       2.358   1.428  -0.013  0.00  0.00    +0.038 A 
ATOM      4  C   UNL     1       2.363   0.028  -0.020  0.00  0.00    +0.003 A 
ATOM      5  C   UNL     1       1.201  -0.712  -0.013  0.00  0.00    +0.027 A 
ATOM      6  C   UNL     1       0.002  -0.004   0.002  0.00  0.00    +0.041 A 
ATOM      7 CL   UNL     1      -1.500  -0.875   0.011  0.00  0.00    -0.084 Cl
ATOM      8  C   UNL     1       3.801  -0.387  -0.036  0.00  0.00    +0.174 C 
ATOM      9  C   UNL     1       4.141  -1.173   1.204  0.00  0.00    +0.176 A 
ATOM     10  C   UNL     1       4.324  -2.508   1.131  0.00  0.00    +0.216 A 
ATOM     11  C   UNL     1       4.640  -3.229   2.318  0.00  0.00    +0.228 A 
ATOM     12  O   UNL     1       4.816  -4.438   2.292  0.00  0.00    -0.284 OA
ATOM     13  C   UNL     1       4.745  -2.501   3.529  0.00  0.00    +0.098 A 
ATOM     14  C   UNL     1       4.547  -1.168   3.502  0.00  0.00    +0.134 A 
ATOM     15  O   UNL     1       4.259  -0.524   2.372  0.00  0.00    -0.457 OA
ATOM     16  O   UNL     1       4.215  -3.178  -0.043  0.00  0.00    -0.434 OA
ATOM     17  C   UNL     1       4.310  -2.517  -1.209  0.00  0.00    +0.200 C 
ATOM     18  C   UNL     1       4.121  -1.175  -1.272  0.00  0.00    +0.113 C 
ATOM     19  C   UNL     1       4.566   0.920  -0.039  0.00  0.00    +0.241 C 
ATOM     20  O   UNL     1       5.772   1.049  -0.052  0.00  0.00    -0.274 OA
ATOM     21  N   UNL     1       3.654   1.914  -0.024  0.00  0.00    -0.284 N 
ATOM     22  H   UNL     1       3.879   2.857  -0.021  0.00  0.00    +0.155 HD
ENDROOT
BRANCH  17  23
ATOM     23  N   UNL     1       4.603  -3.212  -2.356  0.00  0.00    -0.328 N 
ATOM     24  H   UNL     1       4.740  -4.171  -2.320  0.00  0.00    +0.145 HD
ATOM     25  H   UNL     1       4.673  -2.743  -3.202  0.00  0.00    +0.145 HD
ENDBRANCH  17  23
BRANCH  18  26
ATOM     26  C   UNL     1       4.227  -0.503  -2.532  0.00  0.00    +0.102 C 
ATOM     27  N   UNL     1       4.312   0.030  -3.532  0.00  0.00    -0.191 NA
ENDBRANCH  18  26
BRANCH  14  28
ATOM     28  C   UNL     1       4.654  -0.386   4.786  0.00  0.00    +0.230 C 
BRANCH  28  29
ATOM     29  O   UNL     1       4.967  -1.274   5.861  0.00  0.00    -0.387 OA
ATOM     30  H   UNL     1       5.051  -0.838   6.720  0.00  0.00    +0.210 HD
ENDBRANCH  28  29
ENDBRANCH  14  28
TORSDOF 4
