REMARK  Name = ZINC05426572
REMARK  6 active torsions:
REMARK  status: ('A' for Active; 'I' for Inactive)
REMARK    1  A    between atoms: C_1  and  C_2
REMARK    2  A    between atoms: C_5  and  N_8
REMARK    3  A    between atoms: N_8  and  C_9
REMARK    4  A    between atoms: C_9  and  N_11
REMARK    5  A    between atoms: N_11  and  N_12
REMARK    6  A    between atoms: C_16  and  C_24
REMARK                            x       y       z     vdW  Elec       q    Type
REMARK                         _______ _______ _______ _____ _____    ______ ____
ROOT
ATOM      1  N   UNL     1       0.295  -6.880  -0.096  0.00  0.00    -0.175 NA
ATOM      2  C   UNL     1       0.312  -8.192  -0.108  0.00  0.00    +0.152 C 
ATOM      3  C   UNL     1       0.426  -9.103   1.055  0.00  0.00    +0.028 A 
ATOM      4  C   UNL     1       0.543  -8.889   2.424  0.00  0.00    +0.016 A 
ATOM      5  C   UNL     1       0.633  -9.968   3.280  0.00  0.00    -0.036 A 
ATOM      6  C   UNL     1       0.606 -11.259   2.776  0.00  0.00    +0.023 A 
ATOM      7  C   UNL     1       0.491 -11.480   1.418  0.00  0.00    +0.039 A 
ATOM      8  C   UNL     1       0.398 -10.405   0.540  0.00  0.00    +0.044 A 
ATOM      9  N   UNL     1       0.276 -10.351  -0.844  0.00  0.00    -0.280 N 
ATOM     10  C   UNL     1       0.214  -9.082  -1.281  0.00  0.00    +0.269 C 
ATOM     11  O   UNL     1       0.101  -8.728  -2.441  0.00  0.00    -0.268 OA
ATOM     12 BR   UNL     1       0.730 -12.729   3.958  0.00  0.00    -0.050 Br
ATOM     13  C   UNL     1       0.761  -9.742   4.764  0.00  0.00    +0.045 C 
ATOM     14  H   UNL     1       0.237 -11.130  -1.420  0.00  0.00    +0.155 HD
ENDROOT
BRANCH   1  15
ATOM     15  N   UNL     1       0.243  -6.191   1.122  0.00  0.00    -0.217 N 
ATOM     16  H   UNL     1       0.136  -6.681   1.952  0.00  0.00    +0.176 HD
BRANCH  15  17
ATOM     17  C   UNL     1       0.344  -4.847   1.141  0.00  0.00    +0.154 C 
ATOM     18  S   UNL     1       0.280  -4.005   2.630  0.00  0.00    -0.017 S 
BRANCH  17  19
ATOM     19  N   UNL     1       0.493  -4.166  -0.012  0.00  0.00    -0.296 N 
ATOM     20  H   UNL     1       0.446  -4.633  -0.861  0.00  0.00    +0.154 HD
BRANCH  19  25
ATOM     21  C   UNL     1       1.402   1.432   0.095  0.00  0.00    +0.044 C 
ATOM     22  C   UNL     1       1.160  -0.055   0.067  0.00  0.00    -0.050 A 
ATOM     23  C   UNL     1       1.787  -0.874   0.989  0.00  0.00    +0.005 A 
ATOM     24  C   UNL     1       1.568  -2.237   0.965  0.00  0.00    +0.023 A 
ATOM     25  C   UNL     1       0.717  -2.786   0.015  0.00  0.00    +0.033 A 
ATOM     26  C   UNL     1       0.089  -1.961  -0.910  0.00  0.00    +0.023 A 
ATOM     27  C   UNL     1       0.308  -0.598  -0.877  0.00  0.00    +0.005 A 
ENDBRANCH  19  25
ENDBRANCH  17  19
ENDBRANCH  15  17
ENDBRANCH   1  15
TORSDOF 4
