REMARK  Name = ZINC08725788
REMARK  10 active torsions:
REMARK  status: ('A' for Active; 'I' for Inactive)
REMARK    1  A    between atoms: C_1  and  C_2
REMARK    2  A    between atoms: C_2  and  O_3
REMARK    3  A    between atoms: O_3  and  C_4
REMARK    4  A    between atoms: C_4  and  C_6
REMARK    5  A    between atoms: C_7  and  C_20
REMARK    6  A    between atoms: C_12  and  C_14
REMARK    7  A    between atoms: C_20  and  S_21
REMARK    8  A    between atoms: S_21  and  C_22
REMARK    9  A    between atoms: C_24  and  C_29
REMARK   10  A    between atoms: C_26  and  N_28
REMARK                            x       y       z     vdW  Elec       q    Type
REMARK                         _______ _______ _______ _____ _____    ______ ____
ROOT
ATOM      1  C   UNL     1       7.090  -0.043  -1.224  0.00  0.00    +0.079 C 
ATOM      2  C   UNL     1       6.516   0.216  -0.029  0.00  0.00    +0.034 C 
ATOM      3  N   UNL     1       7.085  -0.217   1.135  0.00  0.00    -0.272 N 
ATOM      4  C   UNL     1       8.221  -0.924   1.188  0.00  0.00    +0.304 C 
ATOM      5  O   UNL     1       8.648  -1.270   2.272  0.00  0.00    -0.252 OA
ATOM      6  N   UNL     1       8.909  -1.259   0.079  0.00  0.00    -0.288 N 
ATOM      7  C   UNL     1       8.382  -0.834  -1.229  0.00  0.00    +0.144 C 
ATOM      8  H   UNL     1       6.639  -0.004   1.969  0.00  0.00    +0.156 HD
ATOM      9  H   UNL     1       9.733  -1.768   0.140  0.00  0.00    +0.151 HD
ENDROOT
BRANCH   7  10
ATOM     10  C   UNL     1       9.437   0.003  -1.905  0.00  0.00    -0.023 A 
ATOM     11  C   UNL     1      10.071   1.013  -1.205  0.00  0.00    +0.006 A 
ATOM     12  C   UNL     1      11.041   1.779  -1.823  0.00  0.00    +0.000 A 
ATOM     13  C   UNL     1      11.373   1.540  -3.144  0.00  0.00    +0.000 A 
ATOM     14  C   UNL     1      10.736   0.533  -3.845  0.00  0.00    +0.000 A 
ATOM     15  C   UNL     1       9.768  -0.235  -3.225  0.00  0.00    +0.006 A 
ENDBRANCH   7  10
BRANCH   1  16
ATOM     16  C   UNL     1       6.505   0.410  -2.429  0.00  0.00    +0.339 C 
ATOM     17  O   UNL     1       5.404   0.928  -2.415  0.00  0.00    -0.245 OA
BRANCH  16  18
ATOM     18  O   UNL     1       7.168   0.269  -3.596  0.00  0.00    -0.462 OA
BRANCH  18  20
ATOM     19  C   UNL     1       7.416   0.503  -5.989  0.00  0.00    +0.048 C 
ATOM     20  C   UNL     1       6.518   0.749  -4.775  0.00  0.00    +0.229 C 
ENDBRANCH  18  20
ENDBRANCH  16  18
ENDBRANCH   1  16
BRANCH   2  21
ATOM     21  C   UNL     1       5.231   1.000   0.021  0.00  0.00    +0.128 C 
BRANCH  21  22
ATOM     22  S   UNL     1       3.826  -0.140  -0.016  0.00  0.00    -0.080 S 
BRANCH  22  23
ATOM     23  C   UNL     1       2.494   1.012   0.052  0.00  0.00    +0.190 A 
ATOM     24  N   UNL     1       1.248   0.561   0.044  0.00  0.00    -0.227 NA
ATOM     25  C   UNL     1       0.221   1.396   0.095  0.00  0.00    +0.044 A 
ATOM     26  C   UNL     1       0.458   2.756   0.155  0.00  0.00    +0.066 A 
ATOM     27  C   UNL     1       1.781   3.202   0.161  0.00  0.00    +0.121 A 
ATOM     28  N   UNL     1       2.764   2.308   0.109  0.00  0.00    -0.207 NA
ATOM     29  C   UNL     1      -1.191   0.869   0.086  0.00  0.00    +0.066 C 
BRANCH  27  30
ATOM     30  N   UNL     1       2.066   4.556   0.220  0.00  0.00    -0.343 N 
ATOM     31  H   UNL     1       1.344   5.203   0.258  0.00  0.00    +0.144 HD
ATOM     32  H   UNL     1       2.988   4.859   0.224  0.00  0.00    +0.144 HD
ENDBRANCH  27  30
ENDBRANCH  22  23
ENDBRANCH  21  22
ENDBRANCH   2  21
TORSDOF 8
