REMARK  Name = ZINC01812715
REMARK  9 active torsions:
REMARK  status: ('A' for Active; 'I' for Inactive)
REMARK    1  A    between atoms: C_1  and  C_2
REMARK    2  A    between atoms: C_2  and  C_29
REMARK    3  A    between atoms: C_9  and  N_26
REMARK    4  A    between atoms: C_11  and  S_13
REMARK    5  A    between atoms: S_13  and  C_14
REMARK    6  A    between atoms: C_14  and  C_15
REMARK    7  A    between atoms: N_17  and  C_18
REMARK    8  A    between atoms: C_21  and  O_24
REMARK    9  A    between atoms: O_24  and  C_25
REMARK                            x       y       z     vdW  Elec       q    Type
REMARK                         _______ _______ _______ _____ _____    ______ ____
ROOT
ATOM      1  C   UNL     1       2.380 -12.834  -2.491  0.00  0.00    +0.023 C 
ATOM      2  C   UNL     1       2.027 -12.820  -1.002  0.00  0.00    +0.015 C 
ATOM      3  C   UNL     1       1.981 -11.383  -0.502  0.00  0.00    +0.053 C 
ATOM      4  C   UNL     1       3.350 -10.716  -0.552  0.00  0.00    -0.023 A 
ATOM      5  C   UNL     1       4.522 -11.367  -0.566  0.00  0.00    +0.006 A 
ATOM      6  S   UNL     1       5.768 -10.097  -0.617  0.00  0.00    -0.072 S 
ATOM      7  C   UNL     1       4.706  -8.680  -0.621  0.00  0.00    +0.115 A 
ATOM      8  C   UNL     1       3.420  -9.242  -0.584  0.00  0.00    +0.051 A 
ATOM      9  C   UNL     1       2.340  -8.315  -0.580  0.00  0.00    +0.129 A 
ATOM     10  N   UNL     1       2.604  -7.019  -0.606  0.00  0.00    -0.207 NA
ATOM     11  C   UNL     1       3.847  -6.553  -0.646  0.00  0.00    +0.191 A 
ATOM     12  N   UNL     1       4.890  -7.373  -0.651  0.00  0.00    -0.214 NA
ATOM     13  C   UNL     1       4.814 -12.844  -0.554  0.00  0.00    +0.112 C 
ATOM     14  S   UNL     1       3.298 -13.723  -0.064  0.00  0.00    -0.149 S 
ATOM     15  C   UNL     1       0.664 -13.483  -0.792  0.00  0.00    +0.023 C 
ENDROOT
BRANCH   9  16
ATOM     16  N   UNL     1       1.032  -8.763  -0.545  0.00  0.00    -0.343 N 
ATOM     17  H   UNL     1       0.820  -9.607  -0.117  0.00  0.00    +0.144 HD
ATOM     18  H   UNL     1       0.327  -8.233  -0.949  0.00  0.00    +0.144 HD
ENDBRANCH   9  16
BRANCH  11  19
ATOM     19  S   UNL     1       4.116  -4.812  -0.685  0.00  0.00    -0.077 S 
BRANCH  19  20
ATOM     20  C   UNL     1       2.402  -4.229  -0.662  0.00  0.00    +0.173 C 
BRANCH  20  21
ATOM     21  C   UNL     1       2.384  -2.723  -0.692  0.00  0.00    +0.227 C 
ATOM     22  O   UNL     1       3.427  -2.104  -0.725  0.00  0.00    -0.275 OA
ATOM     23  N   UNL     1       1.209  -2.063  -0.681  0.00  0.00    -0.285 N 
ATOM     24  H   UNL     1       0.378  -2.553  -0.579  0.00  0.00    +0.155 HD
BRANCH  23  25
ATOM     25  C   UNL     1       1.188  -0.668  -0.817  0.00  0.00    +0.034 A 
ATOM     26  C   UNL     1       2.141  -0.032  -1.601  0.00  0.00    +0.027 A 
ATOM     27  C   UNL     1       2.119   1.342  -1.734  0.00  0.00    +0.047 A 
ATOM     28  C   UNL     1       1.145   2.087  -1.086  0.00  0.00    +0.120 A 
ATOM     29  C   UNL     1       0.192   1.452  -0.303  0.00  0.00    +0.047 A 
ATOM     30  C   UNL     1       0.213   0.078  -0.168  0.00  0.00    +0.027 A 
BRANCH  28  31
ATOM     31  O   UNL     1       1.124   3.440  -1.218  0.00  0.00    -0.495 OA
ATOM     32  C   UNL     1       0.092   4.144  -0.523  0.00  0.00    +0.277 C 
ENDBRANCH  28  31
ENDBRANCH  23  25
ENDBRANCH  20  21
ENDBRANCH  19  20
ENDBRANCH  11  19
TORSDOF 6
