REMARK  Name = ZINC13110660
REMARK  6 active torsions:
REMARK  status: ('A' for Active; 'I' for Inactive)
REMARK    1  A    between atoms: C_1  and  C_2
REMARK    2  A    between atoms: N_4  and  C_21
REMARK    3  A    between atoms: N_8  and  N_9
REMARK    4  A    between atoms: N_9  and  C_10
REMARK    5  A    between atoms: C_12  and  C_17
REMARK    6  A    between atoms: C_21  and  N_23
REMARK                            x       y       z     vdW  Elec       q    Type
REMARK                         _______ _______ _______ _____ _____    ______ ____
ROOT
ATOM      1  C   UNL     1      -0.018   1.503   0.010  0.00  0.00    +0.070 C 
ATOM      2  C   UNL     1       0.002  -0.004   0.002  0.00  0.00    +0.089 C 
ATOM      3  N   UNL     1       0.008  -0.765  -1.049  0.00  0.00    -0.173 NA
ATOM      4  N   UNL     1       0.028  -2.115  -0.701  0.00  0.00    -0.134 N 
ATOM      5  C   UNL     1       0.035  -2.248   0.641  0.00  0.00    +0.294 C 
ATOM      6  O   UNL     1       0.052  -3.289   1.274  0.00  0.00    -0.266 OA
ATOM      7  C   UNL     1       0.025  -0.880   1.184  0.00  0.00    +0.168 C 
ATOM      8  N   UNL     1       0.033  -0.517   2.454  0.00  0.00    -0.175 NA
ENDROOT
BRANCH   8   9
ATOM      9  N   UNL     1       0.054  -1.415   3.381  0.00  0.00    -0.236 N 
ATOM     10  H   UNL     1       0.064  -2.356   3.145  0.00  0.00    +0.174 HD
BRANCH   9  11
ATOM     11  C   UNL     1       0.062  -1.032   4.723  0.00  0.00    +0.067 A 
ATOM     12  C   UNL     1       0.042   0.315   5.063  0.00  0.00    +0.038 A 
ATOM     13  C   UNL     1       0.050   0.690   6.392  0.00  0.00    +0.057 A 
ATOM     14  C   UNL     1       0.079  -0.273   7.385  0.00  0.00    +0.014 A 
ATOM     15  C   UNL     1       0.099  -1.614   7.051  0.00  0.00    +0.022 A 
ATOM     16  C   UNL     1       0.085  -1.998   5.723  0.00  0.00    +0.063 A 
ATOM     17 CL   UNL     1       0.102  -3.683   5.305  0.00  0.00    -0.082 Cl
BRANCH  13  18
ATOM     18  C   UNL     1       0.028   2.151   6.761  0.00  0.00    +0.417 C 
ATOM     19  F   UNL     1      -1.297   2.580   6.891  0.00  0.00    -0.166 F 
ATOM     20  F   UNL     1       0.698   2.335   7.976  0.00  0.00    -0.166 F 
ATOM     21  F   UNL     1       0.664   2.895   5.761  0.00  0.00    -0.166 F 
ENDBRANCH  13  18
ENDBRANCH   9  11
ENDBRANCH   8   9
BRANCH   4  22
ATOM     22  C   UNL     1       0.038  -3.138  -1.578  0.00  0.00    +0.158 C 
ATOM     23  S   UNL     1       0.061  -4.753  -1.010  0.00  0.00    -0.017 S 
BRANCH  22  24
ATOM     24  N   UNL     1       0.029  -2.890  -2.903  0.00  0.00    -0.339 N 
ATOM     25  H   UNL     1       0.016  -1.975  -3.225  0.00  0.00    +0.144 HD
ATOM     26  H   UNL     1       0.036  -3.626  -3.534  0.00  0.00    +0.144 HD
ENDBRANCH  22  24
ENDBRANCH   4  22
TORSDOF 5
