REMARK  Name = ZINC45108792
REMARK  4 active torsions:
REMARK  status: ('A' for Active; 'I' for Inactive)
REMARK    1  A    between atoms: C_1  and  C_2
REMARK    2  A    between atoms: C_2  and  C_3
REMARK    3  A    between atoms: C_2  and  C_4
REMARK    4  A    between atoms: C_2  and  N_7
REMARK                            x       y       z     vdW  Elec       q    Type
REMARK                         _______ _______ _______ _____ _____    ______ ____
ROOT
ATOM      1  N   UNL     1       0.588  -0.479  -1.254  0.00  0.00    -0.272 N 
ATOM      2  C   UNL     1       1.109   0.411  -2.153  0.00  0.00    +0.270 A 
ATOM      3  O   UNL     1       1.095   1.737  -1.901  0.00  0.00    -0.266 OA
ATOM      4  C   UNL     1       1.647  -0.077  -3.314  0.00  0.00    +0.102 A 
ATOM      5  C   UNL     1       1.671  -1.467  -3.595  0.00  0.00    +0.086 A 
ATOM      6  C   UNL     1       2.252  -1.820  -4.821  0.00  0.00    +0.036 A 
ATOM      7  C   UNL     1       2.740  -0.867  -5.642  0.00  0.00    +0.048 A 
ATOM      8  S   UNL     1       2.417   0.640  -4.742  0.00  0.00    -0.090 S 
ATOM      9  N   UNL     1       1.132  -2.276  -2.648  0.00  0.00    -0.222 NA
ATOM     10  C   UNL     1       0.622  -1.794  -1.532  0.00  0.00    +0.184 A 
ATOM     11  S   UNL     1      -0.030  -2.890  -0.390  0.00  0.00    -0.011 S 
ENDROOT
BRANCH   1  13
ATOM     12  C   UNL     1      -0.092   1.523  -0.024  0.00  0.00    +0.044 C 
ATOM     13  C   UNL     1       0.002  -0.004   0.002  0.00  0.00    +0.121 C 
ATOM     14  C   UNL     1       0.885  -0.440   1.173  0.00  0.00    +0.044 C 
BRANCH  13  15
ATOM     15  C   UNL     1      -1.377  -0.590   0.167  0.00  0.00    +0.236 C 
ATOM     16  O   UNL     1      -1.782  -0.885   1.271  0.00  0.00    -0.273 OA
ATOM     17  N   UNL     1      -2.159  -0.786  -0.913  0.00  0.00    -0.327 N 
ATOM     18  H   UNL     1      -1.835  -0.550  -1.796  0.00  0.00    +0.145 HD
ATOM     19  H   UNL     1      -3.046  -1.163  -0.807  0.00  0.00    +0.145 HD
ENDBRANCH  13  15
ENDBRANCH   1  13
TORSDOF 2
