REMARK  Name = ZINC18094083
REMARK  11 active torsions:
REMARK  status: ('A' for Active; 'I' for Inactive)
REMARK    1  A    between atoms: C_1  and  C_2
REMARK    2  A    between atoms: C_2  and  C_3
REMARK    3  A    between atoms: C_3  and  C_5
REMARK    4  A    between atoms: C_3  and  S_22
REMARK    5  A    between atoms: N_7  and  C_8
REMARK    6  A    between atoms: C_9  and  C_17
REMARK    7  A    between atoms: C_17  and  O_19
REMARK    8  A    between atoms: O_19  and  C_20
REMARK    9  A    between atoms: C_20  and  C_21
REMARK   10  A    between atoms: S_22  and  C_23
REMARK   11  A    between atoms: C_29  and  N_31
REMARK                            x       y       z     vdW  Elec       q    Type
REMARK                         _______ _______ _______ _____ _____    ______ ____
ROOT
ATOM      1  C   UNL     1       1.942   4.398   0.246  0.00  0.00    +0.231 C 
ATOM      2  O   UNL     1       0.769   4.143   0.418  0.00  0.00    -0.274 OA
ATOM      3  N   UNL     1       2.857   3.409   0.269  0.00  0.00    -0.278 N 
ATOM      4  H   UNL     1       3.796   3.612   0.131  0.00  0.00    +0.155 HD
ENDROOT
BRANCH   3   5
ATOM      5  C   UNL     1       2.457   2.100   0.490  0.00  0.00    +0.086 A 
ATOM      6  C   UNL     1       3.242   0.956   0.548  0.00  0.00    +0.091 A 
ATOM      7  C   UNL     1       2.568  -0.308   0.795  0.00  0.00    -0.021 A 
ATOM      8  C   UNL     1       1.229  -0.227   0.942  0.00  0.00    -0.004 A 
ATOM      9  S   UNL     1       0.856   1.494   0.758  0.00  0.00    -0.077 S 
ATOM     10  C   UNL     1       0.278  -1.355   1.202  0.00  0.00    +0.043 C 
ATOM     11  C   UNL     1       1.003  -2.676   0.907  0.00  0.00    +0.005 C 
ATOM     12  C   UNL     1       2.373  -2.651   1.592  0.00  0.00    +0.005 C 
ATOM     13  C   UNL     1       3.288  -1.648   0.888  0.00  0.00    +0.037 C 
BRANCH   6  14
ATOM     14  C   UNL     1       4.694   1.020   0.368  0.00  0.00    +0.342 C 
ATOM     15  O   UNL     1       5.174   0.910  -0.744  0.00  0.00    -0.245 OA
BRANCH  14  16
ATOM     16  O   UNL     1       5.499   1.202   1.435  0.00  0.00    -0.461 OA
BRANCH  16  17
ATOM     17  C   UNL     1       6.927   1.256   1.181  0.00  0.00    +0.229 C 
ATOM     18  C   UNL     1       7.672   1.466   2.502  0.00  0.00    +0.048 C 
ENDBRANCH  16  17
ENDBRANCH  14  16
ENDBRANCH   6  14
ENDBRANCH   3   5
BRANCH   1  19
ATOM     19  C   UNL     1       2.377   5.821   0.006  0.00  0.00    +0.140 C 
BRANCH  19  21
ATOM     20  C   UNL     1       3.595   5.216  -2.090  0.00  0.00    +0.005 C 
ATOM     21  C   UNL     1       2.477   6.077  -1.500  0.00  0.00    +0.020 C 
ENDBRANCH  19  21
BRANCH  19  22
ATOM     22  S   UNL     1       1.165   6.953   0.731  0.00  0.00    -0.075 S 
BRANCH  22  23
ATOM     23  C   UNL     1       2.051   8.471   0.606  0.00  0.00    +0.171 A 
ATOM     24  N   UNL     1       1.447   9.630   0.991  0.00  0.00    -0.302 N 
ATOM     25  H   UNL     1       0.538   9.613   1.329  0.00  0.00    +0.171 HD
ATOM     26  C   UNL     1       2.113  10.800   0.907  0.00  0.00    +0.254 A 
ATOM     27  O   UNL     1       1.581  11.843   1.254  0.00  0.00    -0.268 OA
ATOM     28  C   UNL     1       3.420  10.800   0.411  0.00  0.00    +0.113 A 
ATOM     29  C   UNL     1       3.989   9.593   0.028  0.00  0.00    +0.124 A 
ATOM     30  N   UNL     1       3.283   8.463   0.138  0.00  0.00    -0.209 NA
BRANCH  29  31
ATOM     31  N   UNL     1       5.277   9.560  -0.466  0.00  0.00    -0.343 N 
ATOM     32  H   UNL     1       5.672   8.716  -0.734  0.00  0.00    +0.144 HD
ATOM     33  H   UNL     1       5.787  10.382  -0.545  0.00  0.00    +0.144 HD
ENDBRANCH  29  31
ENDBRANCH  22  23
ENDBRANCH  19  22
ENDBRANCH   1  19
TORSDOF 9
