REMARK  Name = ZINC18325247
REMARK  3 active torsions:
REMARK  status: ('A' for Active; 'I' for Inactive)
REMARK    1  A    between atoms: C_8  and  C_10
REMARK    2  A    between atoms: C_10  and  N_12
REMARK    3  A    between atoms: C_13  and  N_14
REMARK                            x       y       z     vdW  Elec       q    Type
REMARK                         _______ _______ _______ _____ _____    ______ ____
ROOT
ATOM      1  N   UNL     1       4.434  -4.320  -0.074  0.00  0.00    -0.141 NA
ATOM      2  C   UNL     1       4.817  -5.586  -0.078  0.00  0.00    +0.217 C 
ATOM      3  N   UNL     1       6.149  -5.897  -0.091  0.00  0.00    -0.281 N 
ATOM      4  C   UNL     1       7.094  -4.895   0.010  0.00  0.00    +0.304 A 
ATOM      5  N   UNL     1       6.827  -3.632   0.221  0.00  0.00    -0.193 NA
ATOM      6  C   UNL     1       7.997  -2.939   0.262  0.00  0.00    +0.111 A 
ATOM      7  C   UNL     1       8.315  -1.593   0.452  0.00  0.00    +0.031 A 
ATOM      8  C   UNL     1       9.633  -1.193   0.438  0.00  0.00    +0.002 A 
ATOM      9  C   UNL     1      10.645  -2.119   0.235  0.00  0.00    +0.004 A 
ATOM     10  C   UNL     1      10.345  -3.453   0.045  0.00  0.00    +0.048 A 
ATOM     11  C   UNL     1       9.024  -3.873   0.057  0.00  0.00    +0.157 A 
ATOM     12  O   UNL     1       8.423  -5.075  -0.089  0.00  0.00    -0.423 OA
ATOM     13  H   UNL     1       6.431  -6.822  -0.171  0.00  0.00    +0.173 HD
ENDROOT
BRANCH   1  14
ATOM     14  C   UNL     1       3.126  -4.015  -0.062  0.00  0.00    +0.278 C 
ATOM     15  O   UNL     1       2.292  -4.904  -0.054  0.00  0.00    -0.267 OA
BRANCH  14  23
ATOM     16  C   UNL     1      -0.009   1.359  -0.032  0.00  0.00    +0.001 A 
ATOM     17  C   UNL     1       1.165   2.102  -0.043  0.00  0.00    +0.001 A 
ATOM     18  C   UNL     1       2.382   1.451  -0.055  0.00  0.00    +0.016 A 
ATOM     19  C   UNL     1       2.415   0.073  -0.055  0.00  0.00    +0.021 A 
ATOM     20  C   UNL     1       1.236  -0.709  -0.044  0.00  0.00    +0.008 A 
ATOM     21  C   UNL     1       0.008   0.001  -0.032  0.00  0.00    +0.010 A 
ATOM     22  C   UNL     1       1.437  -2.103  -0.046  0.00  0.00    +0.068 A 
ATOM     23  C   UNL     1       2.700  -2.606  -0.058  0.00  0.00    +0.095 A 
ATOM     24  S   UNL     1       3.713  -1.137  -0.067  0.00  0.00    -0.082 S 
ATOM     25 CL   UNL     1       0.073  -3.178  -0.032  0.00  0.00    -0.082 Cl
ENDBRANCH  14  23
ENDBRANCH   1  14
BRANCH   2  26
ATOM     26  N   UNL     1       3.884  -6.581  -0.069  0.00  0.00    -0.269 NA
ATOM     27  H   UNL     1       4.161  -7.507  -0.145  0.00  0.00    +0.190 HD
ENDBRANCH   2  26
TORSDOF 3
