REMARK  Name = ZINC19927205
REMARK  6 active torsions:
REMARK  status: ('A' for Active; 'I' for Inactive)
REMARK    1  A    between atoms: C_1  and  C_2
REMARK    2  A    between atoms: C_2  and  C_25
REMARK    3  A    between atoms: N_3  and  N_4
REMARK    4  A    between atoms: C_5  and  C_7
REMARK    5  A    between atoms: C_8  and  C_18
REMARK    6  A    between atoms: C_18  and  N_19
REMARK                            x       y       z     vdW  Elec       q    Type
REMARK                         _______ _______ _______ _____ _____    ______ ____
ROOT
ATOM      1  C   UNL     1      -0.092   6.484  -0.043  0.00  0.00    +0.154 A 
ATOM      2  C   UNL     1       1.009   7.298  -0.103  0.00  0.00    +0.079 A 
ATOM      3  N   UNL     1       2.071   6.506   0.050  0.00  0.00    -0.135 NA
ATOM      4  N   UNL     1       1.681   5.291   0.201  0.00  0.00    -0.058 NA
ATOM      5  N   UNL     1       0.397   5.217   0.158  0.00  0.00    -0.183 N 
ATOM      6  C   UNL     1      -0.364   4.051   0.286  0.00  0.00    +0.241 A 
ATOM      7  C   UNL     1       0.164   2.687   0.375  0.00  0.00    +0.206 A 
ATOM      8  N   UNL     1      -0.843   1.864   0.491  0.00  0.00    -0.032 NA
ATOM      9  O   UNL     1      -2.034   2.631   0.478  0.00  0.00    -0.239 OA
ATOM     10  N   UNL     1      -1.665   3.992   0.344  0.00  0.00    -0.027 NA
ATOM     11  N   UNL     1       1.507   2.330   0.346  0.00  0.00    -0.337 N 
ATOM     12  H   UNL     1       1.797   1.272   0.420  0.00  0.00    +0.144 HD
ATOM     13  H   UNL     1       2.280   3.107   0.249  0.00  0.00    +0.144 HD
ENDROOT
BRANCH   1  15
ATOM     14  N   UNL     1      -2.237   7.109   0.942  0.00  0.00    -0.201 N 
ATOM     15  C   UNL     1      -1.502   6.884  -0.165  0.00  0.00    +0.284 C 
ATOM     16  O   UNL     1      -2.006   7.012  -1.266  0.00  0.00    -0.267 OA
ATOM     17  H   UNL     1      -1.762   7.075   1.934  0.00  0.00    +0.178 HD
BRANCH  14  20
ATOM     18  C   UNL     1      -3.719   7.294   3.260  0.00  0.00    +0.068 C 
ATOM     19  C   UNL     1      -4.336   7.501   1.901  0.00  0.00    +0.070 C 
ATOM     20  N   UNL     1      -3.606   7.387   0.830  0.00  0.00    -0.184 NA
BRANCH  19  21
ATOM     21  C   UNL     1      -5.760   7.831   1.785  0.00  0.00    +0.036 A 
ATOM     22  C   UNL     1      -6.512   8.063   0.646  0.00  0.00    +0.019 A 
ATOM     23  C   UNL     1      -7.848   8.354   0.793  0.00  0.00    +0.028 A 
ATOM     24  C   UNL     1      -8.382   8.415   2.043  0.00  0.00    +0.079 A 
ATOM     25  S   UNL     1      -6.974   8.045   3.076  0.00  0.00    -0.076 S 
ATOM     26 CL   UNL     1     -10.016   8.765   2.513  0.00  0.00    -0.076 Cl
ENDBRANCH  19  21
ENDBRANCH  14  20
ENDBRANCH   1  15
BRANCH   2  27
ATOM     27  C   UNL     1       1.018   8.791  -0.308  0.00  0.00    -0.018 C 
BRANCH  27  28
ATOM     28  N   UNL     1       1.078   9.088  -1.746  0.00  0.00    +0.383 N 
ATOM     29  C   UNL     1       2.354   8.643  -2.322  0.00  0.00    -0.078 C 
ATOM     30  C   UNL     1       2.324   8.834  -3.840  0.00  0.00    -0.019 C 
ATOM     31  C   UNL     1       2.086  10.313  -4.159  0.00  0.00    -0.004 C 
ATOM     32  C   UNL     1       0.776  10.763  -3.507  0.00  0.00    -0.019 C 
ATOM     33  C   UNL     1       0.851  10.516  -1.998  0.00  0.00    -0.078 C 
ATOM     34  H   UNL     1       0.273   8.527  -2.243  0.00  0.00    -0.081 HD
ENDBRANCH  27  28
ENDBRANCH   2  27
TORSDOF 5
