REMARK  Name = ZINC02990483
REMARK  17 active torsions:
REMARK  status: ('A' for Active; 'I' for Inactive)
REMARK    1  A    between atoms: C_1  and  C_2
REMARK    2  A    between atoms: C_2  and  C_3
REMARK    3  A    between atoms: C_2  and  C_4
REMARK    4  A    between atoms: C_2  and  C_5
REMARK    5  A    between atoms: C_7  and  C_16
REMARK    6  A    between atoms: C_9  and  C_12
REMARK    7  A    between atoms: C_10  and  O_11
REMARK    8  A    between atoms: C_12  and  C_13
REMARK    9  A    between atoms: C_12  and  C_14
REMARK   10  A    between atoms: C_12  and  C_15
REMARK   11  A    between atoms: C_16  and  N_17
REMARK   12  A    between atoms: N_17  and  C_18
REMARK   13  A    between atoms: N_17  and  C_21
REMARK   14  A    between atoms: C_18  and  C_19
REMARK   15  A    between atoms: C_19  and  O_20
REMARK   16  A    between atoms: C_21  and  C_22
REMARK   17  A    between atoms: C_22  and  O_23
REMARK                            x       y       z     vdW  Elec       q    Type
REMARK                         _______ _______ _______ _____ _____    ______ ____
ROOT
ATOM      1  C   UNL     1       1.111  -0.373  -0.648  0.00  0.00    -0.000 A 
ATOM      2  C   UNL     1       1.544   0.582  -1.547  0.00  0.00    +0.009 A 
ATOM      3  C   UNL     1       1.898   0.213  -2.832  0.00  0.00    -0.063 A 
ATOM      4  C   UNL     1       1.818  -1.111  -3.221  0.00  0.00    +0.009 A 
ATOM      5  C   UNL     1       1.385  -2.070  -2.325  0.00  0.00    -0.000 A 
ATOM      6  C   UNL     1       1.035  -1.704  -1.034  0.00  0.00    +0.124 A 
ENDROOT
BRANCH   1   8
ATOM      7  C   UNL     1       0.899   1.540   0.914  0.00  0.00    +0.015 C 
ATOM      8  C   UNL     1       0.726   0.029   0.752  0.00  0.00    -0.009 C 
ATOM      9  C   UNL     1       1.623  -0.698   1.756  0.00  0.00    +0.015 C 
ATOM     10  C   UNL     1      -0.735  -0.347   1.008  0.00  0.00    +0.015 C 
ENDBRANCH   1   8
BRANCH   5  11
ATOM     11  C   UNL     1       1.298  -3.513  -2.750  0.00  0.00    -0.009 C 
ATOM     12  C   UNL     1       1.743  -3.644  -4.208  0.00  0.00    +0.015 C 
ATOM     13  C   UNL     1       2.209  -4.362  -1.860  0.00  0.00    +0.015 C 
ATOM     14  C   UNL     1      -0.146  -4.000  -2.612  0.00  0.00    +0.015 C 
ENDBRANCH   5  11
BRANCH   6  15
ATOM     15  O   UNL     1       0.615  -2.646  -0.149  0.00  0.00    -0.506 OA
ATOM     16  H   UNL     1      -0.341  -2.795  -0.158  0.00  0.00    +0.292 HD
ENDBRANCH   6  15
BRANCH   3  17
ATOM     17  C   UNL     1       2.370   1.257  -3.811  0.00  0.00    -0.043 C 
BRANCH  17  18
ATOM     18  N   UNL     1       3.829   1.396  -3.713  0.00  0.00    +0.385 N 
ATOM     19  H   UNL     1       4.084   1.596  -2.757  0.00  0.00    -0.081 HD
BRANCH  18  20
ATOM     20  C   UNL     1       4.470   0.145  -4.139  0.00  0.00    -0.050 C 
BRANCH  20  21
ATOM     21  C   UNL     1       5.978   0.237  -3.900  0.00  0.00    +0.137 C 
BRANCH  21  22
ATOM     22  O   UNL     1       6.231   0.361  -2.499  0.00  0.00    -0.397 OA
ATOM     23  H   UNL     1       7.169   0.424  -2.273  0.00  0.00    +0.209 HD
ENDBRANCH  21  22
ENDBRANCH  20  21
ENDBRANCH  18  20
BRANCH  18  24
ATOM     24  C   UNL     1       4.276   2.496  -4.579  0.00  0.00    -0.050 C 
BRANCH  24  25
ATOM     25  C   UNL     1       3.727   3.821  -4.045  0.00  0.00    +0.137 C 
BRANCH  25  26
ATOM     26  O   UNL     1       4.278   4.078  -2.752  0.00  0.00    -0.397 OA
ATOM     27  H   UNL     1       3.916   4.864  -2.320  0.00  0.00    +0.209 HD
ENDBRANCH  25  26
ENDBRANCH  24  25
ENDBRANCH  18  24
ENDBRANCH  17  18
ENDBRANCH   3  17
TORSDOF 11
