REMARK  Name = ZINC28062805
REMARK  11 active torsions:
REMARK  status: ('A' for Active; 'I' for Inactive)
REMARK    1  A    between atoms: C_1  and  O_2
REMARK    2  A    between atoms: O_2  and  C_3
REMARK    3  A    between atoms: C_6  and  C_11
REMARK    4  A    between atoms: C_8  and  O_9
REMARK    5  A    between atoms: O_9  and  C_10
REMARK    6  A    between atoms: C_17  and  C_32
REMARK    7  A    between atoms: C_20  and  C_22
REMARK    8  A    between atoms: C_25  and  O_30
REMARK    9  A    between atoms: C_26  and  O_28
REMARK   10  A    between atoms: O_28  and  C_29
REMARK   11  A    between atoms: O_30  and  C_31
REMARK                            x       y       z     vdW  Elec       q    Type
REMARK                         _______ _______ _______ _____ _____    ______ ____
ROOT
ATOM      1  C   UNL     1     -10.089   0.718   5.639  0.00  0.00    +0.080 A 
ATOM      2  C   UNL     1     -11.239   0.072   5.282  0.00  0.00    +0.077 A 
ATOM      3  S   UNL     1     -10.735  -0.673   3.736  0.00  0.00    -0.058 S 
ATOM      4  C   UNL     1      -9.059  -0.052   3.725  0.00  0.00    +0.181 A 
ATOM      5  N   UNL     1      -9.025   0.635   4.853  0.00  0.00    -0.223 NA
ATOM      6  N   UNL     1      -8.060  -0.245   2.786  0.00  0.00    -0.193 N 
ATOM      7  C   UNL     1      -8.186  -1.037   1.552  0.00  0.00    +0.136 C 
ATOM      8  C   UNL     1      -6.795  -0.911   0.898  0.00  0.00    +0.087 C 
ATOM      9  C   UNL     1      -6.018  -0.040   1.859  0.00  0.00    +0.069 C 
ATOM     10  N   UNL     1      -6.769   0.276   2.858  0.00  0.00    -0.181 NA
ENDROOT
BRANCH   7  11
ATOM     11  C   UNL     1      -8.493  -2.477   1.872  0.00  0.00    -0.025 A 
ATOM     12  C   UNL     1      -7.956  -3.063   3.003  0.00  0.00    +0.008 A 
ATOM     13  C   UNL     1      -8.241  -4.383   3.300  0.00  0.00    +0.038 A 
ATOM     14  C   UNL     1      -9.057  -5.120   2.459  0.00  0.00    +0.123 A 
ATOM     15  C   UNL     1      -9.590  -4.533   1.323  0.00  0.00    +0.038 A 
ATOM     16  C   UNL     1      -9.307  -3.212   1.031  0.00  0.00    +0.008 A 
ATOM     17  F   UNL     1      -9.333  -6.411   2.745  0.00  0.00    -0.205 F 
ENDBRANCH   7  11
BRANCH   1  21
ATOM     18  C   UNL     1      -9.925   2.963   9.252  0.00  0.00    +0.162 A 
ATOM     19  C   UNL     1     -11.094   2.309   8.894  0.00  0.00    +0.050 A 
ATOM     20  C   UNL     1     -11.151   1.585   7.720  0.00  0.00    +0.014 A 
ATOM     21  C   UNL     1     -10.030   1.501   6.897  0.00  0.00    +0.005 A 
ATOM     22  C   UNL     1      -8.854   2.158   7.256  0.00  0.00    +0.059 A 
ATOM     23  C   UNL     1      -8.803   2.888   8.431  0.00  0.00    +0.162 A 
BRANCH  18  25
ATOM     24  C   UNL     1     -11.062   3.716  11.200  0.00  0.00    +0.277 C 
ATOM     25  O   UNL     1      -9.875   3.681  10.406  0.00  0.00    -0.491 OA
ENDBRANCH  18  25
BRANCH  23  26
ATOM     26  O   UNL     1      -7.658   3.530   8.784  0.00  0.00    -0.491 OA
ATOM     27  C   UNL     1      -6.546   3.408   7.894  0.00  0.00    +0.277 C 
ENDBRANCH  23  26
ENDBRANCH   1  21
BRANCH   9  28
ATOM     28  C   UNL     1      -4.616   0.379   1.683  0.00  0.00    +0.002 A 
ATOM     29  C   UNL     1      -3.897  -0.033   0.558  0.00  0.00    +0.013 A 
ATOM     30  C   UNL     1      -2.585   0.359   0.396  0.00  0.00    +0.050 A 
ATOM     31  C   UNL     1      -1.976   1.163   1.348  0.00  0.00    +0.162 A 
ATOM     32  C   UNL     1      -2.684   1.573   2.476  0.00  0.00    +0.162 A 
ATOM     33  C   UNL     1      -4.001   1.188   2.643  0.00  0.00    +0.059 A 
BRANCH  32  34
ATOM     34  O   UNL     1      -2.081   2.356   3.410  0.00  0.00    -0.491 OA
ATOM     35  C   UNL     1      -2.866   2.739   4.540  0.00  0.00    +0.277 C 
ENDBRANCH  32  34
BRANCH  31  36
ATOM     36  O   UNL     1      -0.682   1.547   1.184  0.00  0.00    -0.491 OA
ATOM     37  C   UNL     1      -0.013   1.086   0.008  0.00  0.00    +0.277 C 
ENDBRANCH  31  36
ENDBRANCH   9  28
TORSDOF 7
