REMARK  Name = ZINC67241502
REMARK  7 active torsions:
REMARK  status: ('A' for Active; 'I' for Inactive)
REMARK    1  A    between atoms: C_8  and  S_10
REMARK    2  A    between atoms: S_10  and  C_11
REMARK    3  A    between atoms: C_11  and  C_12
REMARK    4  A    between atoms: C_12  and  C_13
REMARK    5  A    between atoms: N_15  and  C_16
REMARK    6  A    between atoms: C_19  and  C_22
REMARK    7  A    between atoms: C_22  and  N_23
REMARK                            x       y       z     vdW  Elec       q    Type
REMARK                         _______ _______ _______ _____ _____    ______ ____
ROOT
ATOM      1  C   UNL     1       6.904  -5.699  -0.096  0.00  0.00    +0.218 C 
ATOM      2  O   UNL     1       7.500  -4.643  -0.105  0.00  0.00    -0.275 OA
ATOM      3  N   UNL     1       7.589  -6.859  -0.107  0.00  0.00    -0.285 N 
ATOM      4  H   UNL     1       7.116  -7.703  -0.032  0.00  0.00    +0.155 HD
ENDROOT
BRANCH   3   5
ATOM      5  C   UNL     1       8.983  -6.848  -0.226  0.00  0.00    +0.033 A 
ATOM      6  C   UNL     1       9.629  -7.849  -0.938  0.00  0.00    +0.023 A 
ATOM      7  C   UNL     1      11.005  -7.835  -1.054  0.00  0.00    +0.007 A 
ATOM      8  C   UNL     1      11.740  -6.825  -0.461  0.00  0.00    -0.030 A 
ATOM      9  C   UNL     1      11.100  -5.826   0.249  0.00  0.00    +0.007 A 
ATOM     10  C   UNL     1       9.723  -5.831   0.363  0.00  0.00    +0.023 A 
BRANCH   8  11
ATOM     11  C   UNL     1      13.241  -6.812  -0.590  0.00  0.00    +0.141 C 
BRANCH  11  12
ATOM     12  N   UNL     1      13.623  -6.055  -1.784  0.00  0.00    -0.295 N 
ATOM     13  C   UNL     1      14.925  -5.910  -2.103  0.00  0.00    +0.297 C 
ATOM     14  O   UNL     1      15.782  -6.407  -1.398  0.00  0.00    -0.253 OA
ATOM     15  N   UNL     1      15.276  -5.214  -3.202  0.00  0.00    -0.313 N 
ATOM     16  H   UNL     1      12.939  -5.659  -2.346  0.00  0.00    +0.151 HD
ATOM     17  H   UNL     1      14.592  -4.817  -3.764  0.00  0.00    +0.146 HD
ATOM     18  H   UNL     1      16.213  -5.109  -3.431  0.00  0.00    +0.146 HD
ENDBRANCH  11  12
ENDBRANCH   8  11
ENDBRANCH   3   5
BRANCH   1  19
ATOM     19  C   UNL     1       5.397  -5.714  -0.073  0.00  0.00    +0.107 C 
BRANCH  19  20
ATOM     20  C   UNL     1       4.873  -4.276  -0.065  0.00  0.00    +0.085 C 
BRANCH  20  21
ATOM     21  S   UNL     1       3.059  -4.294  -0.037  0.00  0.00    -0.098 S 
BRANCH  21  29
ATOM     22  C   UNL     1      -0.017   1.366   0.013  0.00  0.00    +0.002 A 
ATOM     23  C   UNL     1       1.155   2.107  -0.005  0.00  0.00    +0.001 A 
ATOM     24  C   UNL     1       2.372   1.449  -0.024  0.00  0.00    +0.017 A 
ATOM     25  C   UNL     1       2.400   0.077  -0.025  0.00  0.00    +0.040 A 
ATOM     26  C   UNL     1       1.227  -0.711  -0.007  0.00  0.00    +0.079 A 
ATOM     27  C   UNL     1       0.001  -0.005   0.012  0.00  0.00    +0.029 A 
ATOM     28  N   UNL     1       1.419  -2.048  -0.011  0.00  0.00    -0.233 NA
ATOM     29  C   UNL     1       2.616  -2.588  -0.029  0.00  0.00    +0.136 A 
ATOM     30  S   UNL     1       3.682  -1.154  -0.045  0.00  0.00    -0.061 S 
ENDBRANCH  21  29
ENDBRANCH  20  21
ENDBRANCH  19  20
ENDBRANCH   1  19
TORSDOF 7
