REMARK  Name = ZINC50032458
REMARK  4 active torsions:
REMARK  status: ('A' for Active; 'I' for Inactive)
REMARK    1  A    between atoms: C_2  and  C_19
REMARK    2  A    between atoms: C_3  and  N_18
REMARK    3  A    between atoms: C_6  and  N_7
REMARK    4  A    between atoms: C_12  and  C_14
REMARK                            x       y       z     vdW  Elec       q    Type
REMARK                         _______ _______ _______ _____ _____    ______ ____
ROOT
ATOM      1  C   UNL     1       0.709   0.179   0.069  0.00  0.00    +0.043 A 
ATOM      2  C   UNL     1       2.064   0.442   0.310  0.00  0.00    +0.086 A 
ATOM      3  C   UNL     1       2.943  -0.623   0.570  0.00  0.00    +0.042 A 
ATOM      4  C   UNL     1       2.462  -1.926   0.586  0.00  0.00    +0.063 A 
ATOM      5  C   UNL     1       1.125  -2.175   0.348  0.00  0.00    +0.146 A 
ATOM      6  C   UNL     1       0.247  -1.122   0.089  0.00  0.00    +0.067 A 
ATOM      7  F   UNL     1       0.664  -3.445   0.365  0.00  0.00    -0.203 F 
ENDROOT
BRANCH   6   8
ATOM      8  N   UNL     1      -1.109  -1.385  -0.151  0.00  0.00    -0.316 N 
ATOM      9  C   UNL     1      -2.073  -1.416   0.957  0.00  0.00    +0.106 C 
ATOM     10  C   UNL     1      -2.833  -2.746   0.913  0.00  0.00    +0.019 C 
ATOM     11  C   UNL     1      -3.460  -2.924  -0.472  0.00  0.00    +0.004 C 
ATOM     12  C   UNL     1      -2.357  -2.962  -1.532  0.00  0.00    +0.032 C 
ATOM     13  C   UNL     1      -1.593  -1.630  -1.516  0.00  0.00    +0.159 C 
BRANCH  13  14
ATOM     14  C   UNL     1      -0.423  -1.705  -2.462  0.00  0.00    +0.231 C 
ATOM     15  O   UNL     1       0.605  -2.247  -2.113  0.00  0.00    -0.274 OA
ATOM     16  N   UNL     1      -0.517  -1.170  -3.696  0.00  0.00    -0.328 N 
ATOM     17  H   UNL     1      -1.339  -0.737  -3.975  0.00  0.00    +0.145 HD
ATOM     18  H   UNL     1       0.237  -1.219  -4.304  0.00  0.00    +0.145 HD
ENDBRANCH  13  14
ENDBRANCH   6   8
BRANCH   3  19
ATOM     19  N   UNL     1       4.289  -0.374   0.809  0.00  0.00    -0.357 N 
ATOM     20  H   UNL     1       4.562   0.465   1.214  0.00  0.00    +0.142 HD
ATOM     21  H   UNL     1       4.955  -1.038   0.572  0.00  0.00    +0.142 HD
ENDBRANCH   3  19
BRANCH   2  22
ATOM     22  C   UNL     1       2.563   1.823   0.290  0.00  0.00    +0.388 C 
ATOM     23  O   UNL     1       1.794   2.748   0.065  0.00  0.00    -0.241 OA
ATOM     24  O   UNL     1       3.748   2.049   0.499  0.00  0.00    -0.241 OA
ENDBRANCH   2  22
TORSDOF 4
