REMARK  Name = ZINC39559656
REMARK  7 active torsions:
REMARK  status: ('A' for Active; 'I' for Inactive)
REMARK    1  A    between atoms: C_4  and  C_18
REMARK    2  A    between atoms: C_5  and  C_7
REMARK    3  A    between atoms: C_7  and  S_8
REMARK    4  A    between atoms: S_8  and  C_9
REMARK    5  A    between atoms: N_20  and  C_21
REMARK    6  A    between atoms: C_21  and  C_22
REMARK    7  A    between atoms: N_24  and  C_25
REMARK                            x       y       z     vdW  Elec       q    Type
REMARK                         _______ _______ _______ _____ _____    ______ ____
ROOT
ATOM      1  C   UNL     1       4.417  -1.610  -0.006  0.00  0.00    +0.245 C 
ATOM      2  O   UNL     1       4.045  -2.739   0.250  0.00  0.00    -0.270 OA
ATOM      3  N   UNL     1       5.713  -1.274   0.156  0.00  0.00    -0.303 N 
ATOM      4  H   UNL     1       6.009  -0.373  -0.048  0.00  0.00    +0.150 HD
ENDROOT
BRANCH   1   8
ATOM      5  C   UNL     1       1.635   1.275  -1.414  0.00  0.00    +0.000 A 
ATOM      6  C   UNL     1       2.931   1.657  -1.114  0.00  0.00    +0.001 A 
ATOM      7  C   UNL     1       3.840   0.725  -0.656  0.00  0.00    +0.013 A 
ATOM      8  C   UNL     1       3.449  -0.606  -0.496  0.00  0.00    +0.041 A 
ATOM      9  C   UNL     1       2.140  -0.984  -0.800  0.00  0.00    -0.025 A 
ATOM     10  C   UNL     1       1.242  -0.042  -1.257  0.00  0.00    +0.005 A 
BRANCH   9  11
ATOM     11  C   UNL     1       1.710  -2.418  -0.630  0.00  0.00    +0.114 C 
BRANCH  11  12
ATOM     12  S   UNL     1       1.260  -2.714   1.102  0.00  0.00    -0.062 S 
BRANCH  12  13
ATOM     13  C   UNL     1       0.786  -4.410   1.136  0.00  0.00    +0.258 A 
ATOM     14  N   UNL     1       0.793  -5.212   0.101  0.00  0.00    -0.203 NA
ATOM     15  C   UNL     1       0.368  -6.443   0.499  0.00  0.00    +0.110 A 
ATOM     16  C   UNL     1       0.180  -7.657  -0.162  0.00  0.00    +0.031 A 
ATOM     17  C   UNL     1      -0.274  -8.753   0.540  0.00  0.00    +0.002 A 
ATOM     18  C   UNL     1      -0.544  -8.656   1.896  0.00  0.00    +0.004 A 
ATOM     19  C   UNL     1      -0.362  -7.460   2.561  0.00  0.00    +0.048 A 
ATOM     20  C   UNL     1       0.094  -6.348   1.872  0.00  0.00    +0.156 A 
ATOM     21  O   UNL     1       0.371  -5.073   2.230  0.00  0.00    -0.431 OA
ENDBRANCH  12  13
ENDBRANCH  11  12
ENDBRANCH   9  11
ENDBRANCH   1   8
BRANCH   3  22
ATOM     22  C   UNL     1       6.672  -2.269   0.641  0.00  0.00    +0.200 C 
BRANCH  22  23
ATOM     23  C   UNL     1       8.040  -1.644   0.733  0.00  0.00    +0.234 C 
ATOM     24  O   UNL     1       8.198  -0.482   0.424  0.00  0.00    -0.274 OA
ATOM     25  N   UNL     1       9.088  -2.377   1.159  0.00  0.00    -0.284 N 
ATOM     26  H   UNL     1       8.977  -3.323   1.340  0.00  0.00    +0.155 HD
BRANCH  25  27
ATOM     27  C   UNL     1      10.338  -1.771   1.341  0.00  0.00    +0.036 A 
ATOM     28  C   UNL     1      11.501  -2.489   1.082  0.00  0.00    +0.025 A 
ATOM     29  C   UNL     1      12.736  -1.898   1.259  0.00  0.00    +0.029 A 
ATOM     30  C   UNL     1      12.818  -0.585   1.697  0.00  0.00    +0.067 A 
ATOM     31  C   UNL     1      11.652   0.139   1.958  0.00  0.00    +0.069 A 
ATOM     32  C   UNL     1      10.414  -0.456   1.773  0.00  0.00    +0.051 A 
ATOM     33  N   UNL     1      12.050   1.407   2.374  0.00  0.00    -0.306 N 
ATOM     34  H   UNL     1      11.458   2.133   2.627  0.00  0.00    +0.170 HD
ATOM     35  C   UNL     1      13.395   1.454   2.368  0.00  0.00    +0.325 A 
ATOM     36  O   UNL     1      14.064   2.422   2.680  0.00  0.00    -0.247 OA
ATOM     37  N   UNL     1      13.889   0.268   1.964  0.00  0.00    -0.306 N 
ATOM     38  H   UNL     1      14.829   0.045   1.874  0.00  0.00    +0.170 HD
ENDBRANCH  25  27
ENDBRANCH  22  23
ENDBRANCH   3  22
TORSDOF 7
