REMARK  Name = ZINC00708965
REMARK  11 active torsions:
REMARK  status: ('A' for Active; 'I' for Inactive)
REMARK    1  A    between atoms: C_1  and  C_2
REMARK    2  A    between atoms: C_2  and  O_3
REMARK    3  A    between atoms: O_3  and  C_4
REMARK    4  A    between atoms: C_7  and  N_10
REMARK    5  A    between atoms: C_11  and  C_13
REMARK    6  A    between atoms: C_14  and  C_31
REMARK    7  A    between atoms: C_19  and  C_21
REMARK    8  A    between atoms: C_24  and  O_30
REMARK    9  A    between atoms: C_25  and  O_27
REMARK   10  A    between atoms: O_27  and  C_28
REMARK   11  A    between atoms: C_28  and  C_29
REMARK                            x       y       z     vdW  Elec       q    Type
REMARK                         _______ _______ _______ _____ _____    ______ ____
ROOT
ATOM      1  C   UNL     1       2.856  -0.620  -6.040  0.00  0.00    +0.056 C 
ATOM      2  C   UNL     1       4.049  -1.137  -5.678  0.00  0.00    +0.017 C 
ATOM      3  N   UNL     1       4.870  -1.728  -6.596  0.00  0.00    -0.300 N 
ATOM      4  C   UNL     1       4.574  -1.831  -7.898  0.00  0.00    +0.135 C 
ATOM      5  S   UNL     1       5.697  -2.589  -8.944  0.00  0.00    -0.019 S 
ATOM      6  N   UNL     1       3.422  -1.357  -8.411  0.00  0.00    -0.315 N 
ATOM      7  C   UNL     1       2.465  -0.706  -7.501  0.00  0.00    +0.139 C 
ATOM      8  C   UNL     1       4.480  -1.067  -4.235  0.00  0.00    +0.061 C 
ATOM      9  H   UNL     1       5.715  -2.089  -6.288  0.00  0.00    +0.154 HD
ATOM     10  H   UNL     1       3.228  -1.442  -9.358  0.00  0.00    +0.149 HD
ENDROOT
BRANCH   7  11
ATOM     11  C   UNL     1       2.227   0.696  -8.002  0.00  0.00    -0.019 A 
ATOM     12  C   UNL     1       3.301   1.507  -8.316  0.00  0.00    +0.009 A 
ATOM     13  C   UNL     1       3.087   2.793  -8.777  0.00  0.00    +0.049 A 
ATOM     14  C   UNL     1       1.795   3.271  -8.923  0.00  0.00    +0.158 A 
ATOM     15  C   UNL     1       0.714   2.455  -8.606  0.00  0.00    +0.162 A 
ATOM     16  C   UNL     1       0.935   1.165  -8.150  0.00  0.00    +0.055 A 
BRANCH  14  17
ATOM     17  O   UNL     1       1.584   4.536  -9.376  0.00  0.00    -0.503 OA
ATOM     18  H   UNL     1       1.506   4.601 -10.338  0.00  0.00    +0.292 HD
ENDBRANCH  14  17
BRANCH  15  19
ATOM     19  O   UNL     1      -0.556   2.920  -8.748  0.00  0.00    -0.489 OA
BRANCH  19  20
ATOM     20  C   UNL     1      -1.616   1.986  -8.533  0.00  0.00    +0.226 C 
ATOM     21  C   UNL     1      -2.961   2.707  -8.642  0.00  0.00    +0.048 C 
ENDBRANCH  19  20
ENDBRANCH  15  19
ENDBRANCH   7  11
BRANCH   1  23
ATOM     22  N   UNL     1       2.432   1.048  -4.376  0.00  0.00    -0.282 N 
ATOM     23  C   UNL     1       2.002  -0.013  -5.088  0.00  0.00    +0.248 C 
ATOM     24  O   UNL     1       0.878  -0.449  -4.912  0.00  0.00    -0.270 OA
ATOM     25  H   UNL     1       3.282   1.462  -4.589  0.00  0.00    +0.155 HD
BRANCH  22  29
ATOM     26  C   UNL     1       0.107   2.546  -1.256  0.00  0.00    +0.121 A 
ATOM     27  C   UNL     1      -0.504   1.973  -2.362  0.00  0.00    +0.047 A 
ATOM     28  C   UNL     1       0.266   1.482  -3.398  0.00  0.00    +0.027 A 
ATOM     29  C   UNL     1       1.651   1.551  -3.328  0.00  0.00    +0.034 A 
ATOM     30  C   UNL     1       2.261   2.120  -2.218  0.00  0.00    +0.027 A 
ATOM     31  C   UNL     1       1.490   2.616  -1.185  0.00  0.00    +0.047 A 
BRANCH  26  32
ATOM     32  O   UNL     1      -0.652   3.034  -0.238  0.00  0.00    -0.492 OA
BRANCH  32  34
ATOM     33  C   UNL     1      -2.750   3.527   0.856  0.00  0.00    +0.048 C 
ATOM     34  C   UNL     1      -2.070   2.929  -0.378  0.00  0.00    +0.225 C 
ENDBRANCH  32  34
ENDBRANCH  26  32
ENDBRANCH  22  29
ENDBRANCH   1  23
TORSDOF 8
