REMARK  Name = ZINC13081044
REMARK  6 active torsions:
REMARK  status: ('A' for Active; 'I' for Inactive)
REMARK    1  A    between atoms: C_1  and  C_2
REMARK    2  A    between atoms: C_9  and  N_25
REMARK    3  A    between atoms: C_10  and  C_23
REMARK    4  A    between atoms: C_11  and  C_13
REMARK    5  A    between atoms: C_15  and  N_20
REMARK    6  A    between atoms: C_18  and  O_19
REMARK                            x       y       z     vdW  Elec       q    Type
REMARK                         _______ _______ _______ _____ _____    ______ ____
ROOT
ATOM      1  C   UNL     1      -0.018   1.503   0.010  0.00  0.00    +0.068 C 
ATOM      2  C   UNL     1       0.002  -0.004   0.002  0.00  0.00    +0.068 A 
ATOM      3  C   UNL     1       0.008  -0.813  -1.126  0.00  0.00    +0.049 A 
ATOM      4  C   UNL     1       0.027  -2.116  -0.713  0.00  0.00    +0.222 A 
ATOM      5  N   UNL     1       0.034  -2.116   0.629  0.00  0.00    -0.246 N 
ATOM      6  H   UNL     1       0.048  -2.900   1.201  0.00  0.00    +0.192 HD
ATOM      7  N   UNL     1       0.023  -0.780   1.060  0.00  0.00    -0.176 NA
ATOM      8  O   UNL     1       0.034  -3.159  -1.580  0.00  0.00    -0.423 OA
ATOM      9  C   UNL     1      -0.255  -2.900  -2.872  0.00  0.00    +0.200 C 
ATOM     10  C   UNL     1      -0.291  -1.656  -3.399  0.00  0.00    +0.098 C 
ATOM     11  C   UNL     1      -0.002  -0.421  -2.581  0.00  0.00    +0.105 C 
ENDROOT
BRANCH  11  12
ATOM     12  C   UNL     1       1.341   0.142  -2.966  0.00  0.00    +0.009 A 
ATOM     13  C   UNL     1       2.477  -0.636  -2.847  0.00  0.00    +0.041 A 
ATOM     14  C   UNL     1       3.710  -0.120  -3.199  0.00  0.00    +0.127 A 
ATOM     15  C   UNL     1       3.810   1.176  -3.672  0.00  0.00    +0.036 A 
ATOM     16  C   UNL     1       2.678   1.958  -3.793  0.00  0.00    +0.048 A 
ATOM     17  C   UNL     1       1.439   1.440  -3.445  0.00  0.00    +0.121 A 
BRANCH  14  18
ATOM     18  N   UNL     1       4.925  -0.955  -3.070  0.00  0.00    +0.056 N 
ATOM     19  O   UNL     1       4.839  -2.088  -2.656  0.00  0.00    -0.126 OA
ATOM     20  O   UNL     1       6.004  -0.505  -3.378  0.00  0.00    -0.126 OA
ENDBRANCH  14  18
BRANCH  17  21
ATOM     21  O   UNL     1       0.323   2.205  -3.568  0.00  0.00    -0.506 OA
ATOM     22  H   UNL     1       0.112   2.723  -2.779  0.00  0.00    +0.292 HD
ENDBRANCH  17  21
ENDBRANCH  11  12
BRANCH   9  23
ATOM     23  N   UNL     1      -0.527  -3.961  -3.699  0.00  0.00    -0.328 N 
ATOM     24  H   UNL     1      -0.509  -4.865  -3.349  0.00  0.00    +0.145 HD
ATOM     25  H   UNL     1      -0.738  -3.806  -4.633  0.00  0.00    +0.145 HD
ENDBRANCH   9  23
BRANCH  10  26
ATOM     26  C   UNL     1      -0.615  -1.504  -4.786  0.00  0.00    +0.101 C 
ATOM     27  N   UNL     1      -0.872  -1.384  -5.886  0.00  0.00    -0.191 NA
ENDBRANCH  10  26
TORSDOF 5
