REMARK  Name = ZINC58885738
REMARK  4 active torsions:
REMARK  status: ('A' for Active; 'I' for Inactive)
REMARK    1  A    between atoms: C_4  and  C_21
REMARK    2  A    between atoms: C_6  and  N_7
REMARK    3  A    between atoms: C_8  and  C_10
REMARK    4  A    between atoms: N_12  and  N_13
REMARK                            x       y       z     vdW  Elec       q    Type
REMARK                         _______ _______ _______ _____ _____    ______ ____
ROOT
ATOM      1  N   UNL     1      -1.192  -0.710   0.079  0.00  0.00    -0.278 N 
ATOM      2  C   UNL     1      -2.367  -0.061   0.202  0.00  0.00    +0.305 C 
ATOM      3  O   UNL     1      -2.388   1.152   0.247  0.00  0.00    -0.265 OA
ATOM      4  H   UNL     1      -1.180  -1.674  -0.032  0.00  0.00    +0.155 HD
ENDROOT
BRANCH   1  10
ATOM      5  C   UNL     1       0.121   1.140   0.906  0.00  0.00    +0.025 A 
ATOM      6  C   UNL     1       1.308   1.844   0.937  0.00  0.00    +0.022 A 
ATOM      7  C   UNL     1       2.385   1.421   0.178  0.00  0.00    +0.053 A 
ATOM      8  C   UNL     1       2.276   0.290  -0.614  0.00  0.00    +0.075 A 
ATOM      9  C   UNL     1       1.091  -0.418  -0.649  0.00  0.00    +0.037 A 
ATOM     10  C   UNL     1       0.008   0.005   0.112  0.00  0.00    +0.034 A 
ATOM     11 CL   UNL     1       3.877   2.308   0.220  0.00  0.00    -0.083 Cl
BRANCH   8  12
ATOM     12  C   UNL     1       3.451  -0.167  -1.439  0.00  0.00    +0.419 C 
ATOM     13  F   UNL     1       3.101  -1.321  -2.149  0.00  0.00    -0.166 F 
ATOM     14  F   UNL     1       3.811   0.843  -2.338  0.00  0.00    -0.166 F 
ATOM     15  F   UNL     1       4.532  -0.448  -0.596  0.00  0.00    -0.166 F 
ENDBRANCH   8  12
ENDBRANCH   1  10
BRANCH   2  16
ATOM     16  C   UNL     1      -3.641  -0.833   0.281  0.00  0.00    +0.318 C 
ATOM     17  O   UNL     1      -3.620  -2.046   0.236  0.00  0.00    -0.263 OA
ATOM     18  N   UNL     1      -4.816  -0.183   0.404  0.00  0.00    -0.199 N 
ATOM     19  H   UNL     1      -4.833   0.786   0.440  0.00  0.00    +0.178 HD
BRANCH  18  20
ATOM     20  N   UNL     1      -6.012  -0.908   0.478  0.00  0.00    -0.189 NA
ATOM     21  C   UNL     1      -7.134  -0.292   0.493  0.00  0.00    +0.037 C 
ATOM     22  C   UNL     1      -7.175   1.233   0.496  0.00  0.00    +0.052 C 
ATOM     23  C   UNL     1      -8.289   1.746  -0.377  0.00  0.00    +0.006 C 
ATOM     24  C   UNL     1      -9.578   1.881   0.446  0.00  0.00    +0.000 C 
ATOM     25  C   UNL     1     -10.278   0.604   0.613  0.00  0.00    +0.000 C 
ATOM     26  C   UNL     1      -9.456  -0.420   1.408  0.00  0.00    +0.006 C 
ATOM     27  C   UNL     1      -8.443  -1.075   0.501  0.00  0.00    +0.052 C 
ENDBRANCH  18  20
ENDBRANCH   2  16
TORSDOF 4
