REMARK  Name = ZINC02237522
REMARK  4 active torsions:
REMARK  status: ('A' for Active; 'I' for Inactive)
REMARK    1  A    between atoms: C_3  and  C_6
REMARK    2  A    between atoms: N_8  and  C_9
REMARK    3  A    between atoms: C_9  and  C_28
REMARK    4  A    between atoms: N_15  and  C_20
REMARK                            x       y       z     vdW  Elec       q    Type
REMARK                         _______ _______ _______ _____ _____    ______ ____
ROOT
ATOM      1  C   UNL     1       6.977  -0.672  -0.905  0.00  0.00    +0.240 C 
ATOM      2  C   UNL     1       6.755  -2.055  -0.339  0.00  0.00    +0.097 A 
ATOM      3  C   UNL     1       5.984  -3.148  -0.755  0.00  0.00    +0.262 A 
ATOM      4  N   UNL     1       5.990  -4.279  -0.018  0.00  0.00    -0.274 N 
ATOM      5  C   UNL     1       6.730  -4.351   1.103  0.00  0.00    +0.335 A 
ATOM      6  O   UNL     1       6.724  -5.377   1.755  0.00  0.00    -0.246 OA
ATOM      7  N   UNL     1       7.475  -3.312   1.518  0.00  0.00    -0.249 N 
ATOM      8  C   UNL     1       7.502  -2.135   0.799  0.00  0.00    +0.125 A 
ATOM      9  N   UNL     1       8.178  -0.961   1.026  0.00  0.00    -0.269 N 
ATOM     10  C   UNL     1       7.937  -0.036   0.080  0.00  0.00    +0.256 C 
ATOM     11  O   UNL     1       8.396   1.085   0.026  0.00  0.00    -0.272 OA
ATOM     12  O   UNL     1       5.316  -3.079  -1.772  0.00  0.00    -0.267 OA
ATOM     13  H   UNL     1       8.764  -0.815   1.785  0.00  0.00    +0.156 HD
ATOM     14  H   UNL     1       5.460  -5.041  -0.298  0.00  0.00    +0.173 HD
ENDROOT
BRANCH   7  15
ATOM     15  C   UNL     1       8.232  -3.426   2.693  0.00  0.00    +0.053 A 
ATOM     16  C   UNL     1       9.539  -3.892   2.635  0.00  0.00    +0.029 A 
ATOM     17  C   UNL     1      10.283  -4.003   3.793  0.00  0.00    +0.040 A 
ATOM     18  C   UNL     1       9.727  -3.651   5.011  0.00  0.00    +0.124 A 
ATOM     19  C   UNL     1       8.424  -3.187   5.071  0.00  0.00    +0.040 A 
ATOM     20  C   UNL     1       7.678  -3.068   3.914  0.00  0.00    +0.029 A 
ATOM     21  F   UNL     1      10.457  -3.761   6.143  0.00  0.00    -0.205 F 
ENDBRANCH   7  15
BRANCH   1  24
ATOM     22  C   UNL     1       5.713   1.364  -1.345  0.00  0.00    +0.281 C 
ATOM     23  O   UNL     1       6.755   1.909  -1.657  0.00  0.00    -0.267 OA
ATOM     24  N   UNL     1       5.717   0.074  -0.954  0.00  0.00    -0.284 N 
ATOM     25  H   UNL     1       4.886  -0.360  -0.705  0.00  0.00    +0.151 HD
BRANCH  22  28
ATOM     26  C   UNL     1       2.938   3.715  -1.667  0.00  0.00    +0.042 A 
ATOM     27  C   UNL     1       4.306   3.416  -1.768  0.00  0.00    +0.054 A 
ATOM     28  C   UNL     1       4.452   2.111  -1.393  0.00  0.00    +0.189 A 
ATOM     29  O   UNL     1       3.232   1.629  -1.076  0.00  0.00    -0.458 OA
ATOM     30  C   UNL     1       2.317   2.594  -1.239  0.00  0.00    +0.196 A 
ENDBRANCH  22  28
ENDBRANCH   1  24
BRANCH   1  31
ATOM     31  C   UNL     1       7.608  -0.751  -2.297  0.00  0.00    +0.424 C 
ATOM     32  F   UNL     1       7.849   0.541  -2.774  0.00  0.00    -0.167 F 
ATOM     33  F   UNL     1       8.816  -1.454  -2.222  0.00  0.00    -0.167 F 
ATOM     34  F   UNL     1       6.736  -1.414  -3.167  0.00  0.00    -0.167 F 
ENDBRANCH   1  31
TORSDOF 4
