REMARK  Name = ZINC20527639
REMARK  10 active torsions:
REMARK  status: ('A' for Active; 'I' for Inactive)
REMARK    1  A    between atoms: C_1  and  N_2
REMARK    2  A    between atoms: N_2  and  C_3
REMARK    3  A    between atoms: N_2  and  C_4
REMARK    4  A    between atoms: C_7  and  C_10
REMARK    5  A    between atoms: N_11  and  N_12
REMARK    6  A    between atoms: C_16  and  S_19
REMARK    7  A    between atoms: N_17  and  N_18
REMARK    8  A    between atoms: S_19  and  C_20
REMARK    9  A    between atoms: C_20  and  C_21
REMARK   10  A    between atoms: N_23  and  C_24
REMARK                            x       y       z     vdW  Elec       q    Type
REMARK                         _______ _______ _______ _____ _____    ______ ____
ROOT
ATOM      1  N   UNL     1       4.936   1.635  -4.640  0.00  0.00    -0.204 N 
ATOM      2  C   UNL     1       4.112   1.472  -3.537  0.00  0.00    +0.254 A 
ATOM      3  N   UNL     1       3.600   0.340  -3.118  0.00  0.00    -0.109 NA
ATOM      4  N   UNL     1       2.835   0.607  -1.975  0.00  0.00    -0.119 NA
ATOM      5  C   UNL     1       2.899   1.896  -1.737  0.00  0.00    +0.210 A 
ATOM      6  N   UNL     1       3.692   2.463  -2.694  0.00  0.00    -0.211 N 
ATOM      7  H   UNL     1       5.312   2.635  -4.903  0.00  0.00    +0.177 HD
ENDROOT
BRANCH   6   8
ATOM      8  N   UNL     1       4.009   3.788  -2.791  0.00  0.00    -0.294 N 
ATOM      9  H   UNL     1       3.614   4.504  -2.055  0.00  0.00    +0.163 HD
ATOM     10  H   UNL     1       4.660   4.139  -3.606  0.00  0.00    +0.163 HD
ENDBRANCH   6   8
BRANCH   1  12
ATOM     11  C   UNL     1       6.061   0.680  -6.454  0.00  0.00    +0.138 C 
ATOM     12  N   UNL     1       5.290   0.527  -5.421  0.00  0.00    -0.188 NA
BRANCH  11  16
ATOM     13  C   UNL     1       7.134  -2.680  -8.819  0.00  0.00    +0.029 A 
ATOM     14  C   UNL     1       7.609  -1.417  -9.153  0.00  0.00    +0.024 A 
ATOM     15  C   UNL     1       7.264  -0.324  -8.388  0.00  0.00    +0.011 A 
ATOM     16  C   UNL     1       6.433  -0.487  -7.275  0.00  0.00    -0.005 A 
ATOM     17  C   UNL     1       5.962  -1.759  -6.940  0.00  0.00    +0.011 A 
ATOM     18  C   UNL     1       6.307  -2.846  -7.713  0.00  0.00    +0.024 A 
BRANCH  13  20
ATOM     19  C   UNL     1       8.357  -3.612 -10.761  0.00  0.00    +0.129 C 
ATOM     20  N   UNL     1       7.487  -3.784  -9.596  0.00  0.00    -0.336 N 
ATOM     21  C   UNL     1       6.986  -5.116  -9.246  0.00  0.00    +0.129 C 
ENDBRANCH  13  20
ENDBRANCH  11  16
ENDBRANCH   1  12
BRANCH   5  22
ATOM     22  S   UNL     1       2.106   2.744  -0.412  0.00  0.00    -0.075 S 
BRANCH  22  23
ATOM     23  C   UNL     1       1.220   1.436   0.480  0.00  0.00    +0.173 C 
BRANCH  23  24
ATOM     24  C   UNL     1       0.489   2.035   1.654  0.00  0.00    +0.228 C 
ATOM     25  O   UNL     1       0.559   3.227   1.868  0.00  0.00    -0.275 OA
ATOM     26  N   UNL     1      -0.242   1.246   2.466  0.00  0.00    -0.280 N 
ATOM     27  H   UNL     1      -0.373   0.181   2.225  0.00  0.00    +0.155 HD
BRANCH  26  28
ATOM     28  C   UNL     1      -0.834   1.783   3.617  0.00  0.00    +0.105 A 
ATOM     29  C   UNL     1      -0.135   1.798   4.818  0.00  0.00    +0.147 A 
ATOM     30  C   UNL     1      -0.722   2.334   5.951  0.00  0.00    +0.040 A 
ATOM     31  C   UNL     1      -2.006   2.844   5.891  0.00  0.00    +0.006 A 
ATOM     32  C   UNL     1      -2.707   2.825   4.700  0.00  0.00    +0.040 A 
ATOM     33  C   UNL     1      -2.125   2.296   3.562  0.00  0.00    +0.147 A 
ATOM     34  F   UNL     1      -2.811   2.277   2.398  0.00  0.00    -0.203 F 
ATOM     35  F   UNL     1       1.117   1.296   4.878  0.00  0.00    -0.203 F 
ENDBRANCH  26  28
ENDBRANCH  23  24
ENDBRANCH  22  23
ENDBRANCH   5  22
TORSDOF 8
