REMARK  Name = ZINC04236710
REMARK  13 active torsions:
REMARK  status: ('A' for Active; 'I' for Inactive)
REMARK    1  A    between atoms: C_1  and  C_2
REMARK    2  A    between atoms: C_5  and  N_8
REMARK    3  A    between atoms: C_9  and  O_11
REMARK    4  A    between atoms: O_11  and  C_12
REMARK    5  A    between atoms: C_16  and  C_40
REMARK    6  A    between atoms: C_19  and  C_20
REMARK    7  A    between atoms: C_19  and  C_21
REMARK    8  A    between atoms: C_21  and  O_22
REMARK    9  A    between atoms: C_25  and  O_39
REMARK   10  A    between atoms: C_27  and  C_29
REMARK   11  A    between atoms: C_29  and  C_30
REMARK   12  A    between atoms: N_32  and  C_33
REMARK   13  A    between atoms: C_33  and  C_34
REMARK                            x       y       z     vdW  Elec       q    Type
REMARK                         _______ _______ _______ _____ _____    ______ ____
ROOT
ATOM      1  C   UNL     1       0.455   2.739  -1.189  0.00  0.00    +0.186 C 
ATOM      2  C   UNL     1       1.029   2.596  -2.600  0.00  0.00    +0.046 C 
ATOM      3  C   UNL     1       2.510   2.977  -2.589  0.00  0.00    +0.011 C 
ATOM      4  C   UNL     1       3.268   2.051  -1.634  0.00  0.00    -0.023 C 
ATOM      5  C   UNL     1       2.694   2.195  -0.223  0.00  0.00    +0.007 C 
ATOM      6  C   UNL     1       1.212   1.814  -0.234  0.00  0.00    +0.031 C 
ATOM      7  C   UNL     1       0.638   1.958   1.177  0.00  0.00    +0.017 C 
ATOM      8  C   UNL     1       2.845   3.644   0.244  0.00  0.00    +0.007 C 
ATOM      9  C   UNL     1       4.326   4.025   0.255  0.00  0.00    +0.032 C 
ATOM     10  C   UNL     1       4.900   3.881  -1.156  0.00  0.00    +0.119 C 
ATOM     11  C   UNL     1       4.749   2.432  -1.623  0.00  0.00    +0.032 C 
ATOM     12  C   UNL     1       3.117   0.602  -2.101  0.00  0.00    +0.012 C 
ENDROOT
BRANCH  10  13
ATOM     13  O   UNL     1       6.284   4.237  -1.145  0.00  0.00    -0.391 OA
ATOM     14  H   UNL     1       6.455   5.144  -0.859  0.00  0.00    +0.210 HD
ENDBRANCH  10  13
BRANCH   1  15
ATOM     15  O   UNL     1      -0.952   2.378  -1.199  0.00  0.00    -0.446 OA
BRANCH  15  17
ATOM     16  N   UNL     1      -3.155   3.098  -1.462  0.00  0.00    -0.251 N 
ATOM     17  C   UNL     1      -1.835   3.366  -1.438  0.00  0.00    +0.405 C 
ATOM     18  O   UNL     1      -1.441   4.499  -1.632  0.00  0.00    -0.226 OA
ATOM     19  H   UNL     1      -3.466   2.182  -1.389  0.00  0.00    +0.158 HD
BRANCH  16  24
ATOM     20  C   UNL     1      -6.899   7.329  -1.987  0.00  0.00    +0.044 C 
ATOM     21  C   UNL     1      -5.904   6.205  -1.847  0.00  0.00    -0.050 A 
ATOM     22  C   UNL     1      -6.193   4.959  -2.374  0.00  0.00    +0.005 A 
ATOM     23  C   UNL     1      -5.284   3.927  -2.248  0.00  0.00    +0.023 A 
ATOM     24  C   UNL     1      -4.079   4.142  -1.591  0.00  0.00    +0.036 A 
ATOM     25  C   UNL     1      -3.795   5.392  -1.058  0.00  0.00    +0.023 A 
ATOM     26  C   UNL     1      -4.706   6.422  -1.193  0.00  0.00    +0.005 A 
ENDBRANCH  16  24
ENDBRANCH  15  17
ENDBRANCH   1  15
BRANCH   6  27
ATOM     27  C   UNL     1       1.061   0.365  -0.701  0.00  0.00    +0.166 C 
BRANCH  27  28
ATOM     28  O   UNL     1      -0.296  -0.050  -0.535  0.00  0.00    -0.394 OA
ATOM     29  H   UNL     1      -0.466  -0.961  -0.812  0.00  0.00    +0.209 HD
ENDBRANCH  27  28
ENDBRANCH   6  27
BRANCH  11  30
ATOM     30  C   UNL     1       5.506   1.507  -0.668  0.00  0.00    +0.102 C 
BRANCH  30  31
ATOM     31  C   UNL     1       6.989   1.652  -0.898  0.00  0.00    +0.214 C 
ATOM     32  O   UNL     1       7.396   2.281  -1.852  0.00  0.00    -0.276 OA
ATOM     33  N   UNL     1       7.862   1.083  -0.043  0.00  0.00    -0.308 N 
ATOM     34  H   UNL     1       7.537   0.580   0.720  0.00  0.00    +0.149 HD
BRANCH  33  35
ATOM     35  C   UNL     1       9.303   1.224  -0.267  0.00  0.00    +0.178 C 
BRANCH  35  36
ATOM     36  C   UNL     1      10.053   0.501   0.822  0.00  0.00    +0.122 A 
ATOM     37  C   UNL     1      10.441  -0.787   0.789  0.00  0.00    +0.046 A 
ATOM     38  C   UNL     1      11.108  -1.046   2.008  0.00  0.00    +0.041 A 
ATOM     39  C   UNL     1      11.089   0.100   2.713  0.00  0.00    +0.195 A 
ATOM     40  O   UNL     1      10.454   1.034   1.988  0.00  0.00    -0.466 OA
ENDBRANCH  35  36
ENDBRANCH  33  35
ENDBRANCH  30  31
ENDBRANCH  11  30
TORSDOF 10
