REMARK  Name = ZINC00377296
REMARK  7 active torsions:
REMARK  status: ('A' for Active; 'I' for Inactive)
REMARK    1  A    between atoms: C_1  and  C_2
REMARK    2  A    between atoms: C_2  and  C_3
REMARK    3  A    between atoms: C_2  and  C_4
REMARK    4  A    between atoms: C_2  and  C_5
REMARK    5  A    between atoms: C_12  and  N_26
REMARK    6  A    between atoms: C_13  and  C_24
REMARK    7  A    between atoms: C_14  and  C_16
REMARK                            x       y       z     vdW  Elec       q    Type
REMARK                         _______ _______ _______ _____ _____    ______ ____
ROOT
ATOM      1  C   UNL     1       1.132  -0.394  -1.437  0.00  0.00    +0.049 A 
ATOM      2  C   UNL     1       1.132  -1.696  -1.761  0.00  0.00    +0.050 A 
ATOM      3  C   UNL     1       1.845  -1.848  -2.970  0.00  0.00    +0.245 A 
ATOM      4  N   UNL     1       2.255  -0.671  -3.346  0.00  0.00    -0.135 NA
ATOM      5  N   UNL     1       1.815   0.268  -2.400  0.00  0.00    -0.277 N 
ATOM      6  H   UNL     1       1.974   1.224  -2.430  0.00  0.00    +0.189 HD
ATOM      7  O   UNL     1       2.016  -3.062  -3.559  0.00  0.00    -0.421 OA
ATOM      8  C   UNL     1       1.260  -4.082  -3.108  0.00  0.00    +0.201 C 
ATOM      9  C   UNL     1       0.546  -4.058  -1.963  0.00  0.00    +0.098 C 
ATOM     10  C   UNL     1       0.515  -2.867  -1.039  0.00  0.00    +0.101 C 
ENDROOT
BRANCH  10  11
ATOM     11  C   UNL     1       1.305  -3.169   0.208  0.00  0.00    -0.032 A 
ATOM     12  C   UNL     1       2.687  -3.199   0.160  0.00  0.00    +0.007 A 
ATOM     13  C   UNL     1       3.414  -3.476   1.302  0.00  0.00    +0.041 A 
ATOM     14  C   UNL     1       2.759  -3.724   2.496  0.00  0.00    +0.158 A 
ATOM     15  C   UNL     1       1.374  -3.695   2.544  0.00  0.00    +0.159 A 
ATOM     16  C   UNL     1       0.648  -3.412   1.400  0.00  0.00    +0.046 A 
ATOM     17  F   UNL     1       0.732  -3.937   3.708  0.00  0.00    -0.202 F 
ATOM     18  F   UNL     1       3.469  -3.996   3.613  0.00  0.00    -0.202 F 
ENDBRANCH  10  11
BRANCH   1  20
ATOM     19  C   UNL     1       0.611   1.744  -0.295  0.00  0.00    +0.017 C 
ATOM     20  C   UNL     1       0.484   0.221  -0.224  0.00  0.00    +0.004 C 
ATOM     21  C   UNL     1       1.179  -0.291   1.040  0.00  0.00    +0.017 C 
ATOM     22  C   UNL     1      -0.996  -0.166  -0.185  0.00  0.00    +0.017 C 
ENDBRANCH   1  20
BRANCH   8  23
ATOM     23  N   UNL     1       1.213  -5.226  -3.865  0.00  0.00    -0.328 N 
ATOM     24  H   UNL     1       1.714  -5.279  -4.695  0.00  0.00    +0.145 HD
ATOM     25  H   UNL     1       0.679  -5.981  -3.572  0.00  0.00    +0.145 HD
ENDBRANCH   8  23
BRANCH   9  26
ATOM     26  C   UNL     1      -0.217  -5.216  -1.610  0.00  0.00    +0.101 C 
ATOM     27  N   UNL     1      -0.823  -6.136  -1.329  0.00  0.00    -0.191 NA
ENDBRANCH   9  26
TORSDOF 4
