REMARK  Name = ZINC03542342
REMARK  10 active torsions:
REMARK  status: ('A' for Active; 'I' for Inactive)
REMARK    1  A    between atoms: C_1  and  C_2
REMARK    2  A    between atoms: C_2  and  O_3
REMARK    3  A    between atoms: O_3  and  C_4
REMARK    4  A    between atoms: C_9  and  N_10
REMARK    5  A    between atoms: C_14  and  S_16
REMARK    6  A    between atoms: S_16  and  C_17
REMARK    7  A    between atoms: C_17  and  C_18
REMARK    8  A    between atoms: N_23  and  C_24
REMARK    9  A    between atoms: C_24  and  C_25
REMARK   10  A    between atoms: C_24  and  C_26
REMARK                            x       y       z     vdW  Elec       q    Type
REMARK                         _______ _______ _______ _____ _____    ______ ____
ROOT
ATOM      1  N   UNL     1       1.159   3.487   0.009  0.00  0.00    -0.289 N 
ATOM      2  C   UNL     1      -0.049   4.169  -0.081  0.00  0.00    +0.187 A 
ATOM      3  N   UNL     1      -1.278   3.692  -0.097  0.00  0.00    -0.125 NA
ATOM      4  N   UNL     1      -2.346   4.554  -0.190  0.00  0.00    -0.133 NA
ATOM      5  C   UNL     1      -2.135   5.854  -0.273  0.00  0.00    +0.160 A 
ATOM      6  S   UNL     1      -0.351   5.924  -0.215  0.00  0.00    -0.024 S 
ATOM      7  H   UNL     1       1.996   3.969  -0.080  0.00  0.00    +0.154 HD
ENDROOT
BRANCH   1  13
ATOM      8  C   UNL     1       2.363   1.392   0.146  0.00  0.00    +0.142 A 
ATOM      9  C   UNL     1       2.366   0.024   0.365  0.00  0.00    +0.047 A 
ATOM     10  C   UNL     1       1.185  -0.631   0.664  0.00  0.00    +0.004 A 
ATOM     11  C   UNL     1      -0.000   0.076   0.747  0.00  0.00    +0.002 A 
ATOM     12  C   UNL     1      -0.012   1.441   0.531  0.00  0.00    +0.027 A 
ATOM     13  C   UNL     1       1.169   2.105   0.229  0.00  0.00    +0.075 A 
BRANCH   8  14
ATOM     14  O   UNL     1       3.523   2.037  -0.149  0.00  0.00    -0.490 OA
BRANCH  14  16
ATOM     15  C   UNL     1       5.903   2.136  -0.557  0.00  0.00    +0.048 C 
ATOM     16  C   UNL     1       4.708   1.242  -0.217  0.00  0.00    +0.226 C 
ENDBRANCH  14  16
ENDBRANCH   8  14
ENDBRANCH   1  13
BRANCH   5  17
ATOM     17  S   UNL     1      -3.300   7.168  -0.408  0.00  0.00    -0.088 S 
BRANCH  17  18
ATOM     18  C   UNL     1      -4.909   6.330  -0.406  0.00  0.00    +0.172 C 
BRANCH  18  19
ATOM     19  C   UNL     1      -6.009   7.354  -0.518  0.00  0.00    +0.231 C 
ATOM     20  O   UNL     1      -5.735   8.533  -0.591  0.00  0.00    -0.274 OA
ATOM     21  N   UNL     1      -7.298   6.960  -0.536  0.00  0.00    -0.240 N 
ATOM     22  C   UNL     1      -8.281   7.875  -0.636  0.00  0.00    +0.306 C 
ATOM     23  O   UNL     1      -8.006   9.057  -0.710  0.00  0.00    -0.252 OA
ATOM     24  N   UNL     1      -9.570   7.481  -0.654  0.00  0.00    -0.297 N 
ATOM     25  H   UNL     1      -7.517   6.016  -0.477  0.00  0.00    +0.159 HD
ATOM     26  H   UNL     1      -9.789   6.538  -0.595  0.00  0.00    +0.151 HD
BRANCH  24  27
ATOM     27  C   UNL     1     -10.639   8.476  -0.762  0.00  0.00    +0.068 C 
ATOM     28  C   UNL     1     -11.882   7.825  -1.373  0.00  0.00    +0.027 C 
ATOM     29  C   UNL     1     -10.977   9.016   0.629  0.00  0.00    +0.027 C 
ENDBRANCH  24  27
ENDBRANCH  18  19
ENDBRANCH  17  18
ENDBRANCH   5  17
TORSDOF 7
