REMARK  Name = ZINC39559494
REMARK  8 active torsions:
REMARK  status: ('A' for Active; 'I' for Inactive)
REMARK    1  A    between atoms: C_4  and  C_7
REMARK    2  A    between atoms: C_7  and  N_8
REMARK    3  A    between atoms: C_10  and  C_18
REMARK    4  A    between atoms: C_11  and  C_13
REMARK    5  A    between atoms: C_19  and  C_20
REMARK    6  A    between atoms: N_22  and  C_23
REMARK    7  A    between atoms: C_23  and  C_24
REMARK    8  A    between atoms: N_26  and  C_27
REMARK                            x       y       z     vdW  Elec       q    Type
REMARK                         _______ _______ _______ _____ _____    ______ ____
ROOT
ATOM      1  C   UNL     1       5.729  -5.310   4.625  0.00  0.00    +0.237 C 
ATOM      2  O   UNL     1       6.035  -5.009   5.764  0.00  0.00    -0.271 OA
ATOM      3  N   UNL     1       5.780  -6.597   4.230  0.00  0.00    -0.303 N 
ATOM      4  H   UNL     1       5.536  -6.837   3.323  0.00  0.00    +0.149 HD
ENDROOT
BRANCH   1   6
ATOM      5  C   UNL     1       5.266  -3.014   4.109  0.00  0.00    +0.016 C 
ATOM      6  C   UNL     1       5.318  -4.305   3.713  0.00  0.00    +0.068 C 
BRANCH   5   9
ATOM      7  N   UNL     1       4.148  -0.952   1.340  0.00  0.00    -0.266 N 
ATOM      8  C   UNL     1       4.463  -2.155   1.847  0.00  0.00    +0.117 A 
ATOM      9  C   UNL     1       4.840  -1.974   3.165  0.00  0.00    +0.021 A 
ATOM     10  C   UNL     1       4.730  -0.534   3.432  0.00  0.00    +0.106 A 
ATOM     11  N   UNL     1       4.320   0.032   2.317  0.00  0.00    -0.170 NA
BRANCH  10  12
ATOM     12  C   UNL     1       5.027   0.149   4.707  0.00  0.00    +0.040 A 
ATOM     13  C   UNL     1       5.563   1.392   4.916  0.00  0.00    +0.018 A 
ATOM     14  C   UNL     1       5.750   1.823   6.211  0.00  0.00    +0.008 A 
ATOM     15  C   UNL     1       5.400   1.006   7.238  0.00  0.00    +0.046 A 
ATOM     16  S   UNL     1       4.773  -0.428   6.378  0.00  0.00    -0.095 S 
ENDBRANCH  10  12
BRANCH   7  17
ATOM     17  C   UNL     1       3.698  -0.708  -0.032  0.00  0.00    +0.178 C 
BRANCH  17  21
ATOM     18  C   UNL     1      -0.024   1.387   0.038  0.00  0.00    +0.000 A 
ATOM     19  C   UNL     1       1.166   2.091   0.021  0.00  0.00    +0.000 A 
ATOM     20  C   UNL     1       2.370   1.413  -0.002  0.00  0.00    +0.005 A 
ATOM     21  C   UNL     1       2.385   0.031  -0.007  0.00  0.00    -0.026 A 
ATOM     22  C   UNL     1       1.196  -0.673   0.012  0.00  0.00    +0.005 A 
ATOM     23  C   UNL     1      -0.009   0.005   0.033  0.00  0.00    +0.000 A 
ENDBRANCH  17  21
ENDBRANCH   7  17
ENDBRANCH   5   9
ENDBRANCH   1   6
BRANCH   3  24
ATOM     24  C   UNL     1       6.205  -7.635   5.173  0.00  0.00    +0.200 C 
BRANCH  24  25
ATOM     25  C   UNL     1       6.176  -8.978   4.488  0.00  0.00    +0.234 C 
ATOM     26  O   UNL     1       5.834  -9.059   3.327  0.00  0.00    -0.274 OA
ATOM     27  N   UNL     1       6.530 -10.088   5.166  0.00  0.00    -0.284 N 
ATOM     28  H   UNL     1       6.867 -10.015   6.072  0.00  0.00    +0.155 HD
BRANCH  27  29
ATOM     29  C   UNL     1       6.411 -11.345   4.561  0.00  0.00    +0.036 A 
ATOM     30  C   UNL     1       6.048 -12.450   5.323  0.00  0.00    +0.025 A 
ATOM     31  C   UNL     1       5.929 -13.692   4.733  0.00  0.00    +0.029 A 
ATOM     32  C   UNL     1       6.171 -13.840   3.376  0.00  0.00    +0.067 A 
ATOM     33  C   UNL     1       6.536 -12.732   2.607  0.00  0.00    +0.069 A 
ATOM     34  C   UNL     1       6.649 -11.485   3.202  0.00  0.00    +0.051 A 
ATOM     35  N   UNL     1       6.710 -13.187   1.302  0.00  0.00    -0.306 N 
ATOM     36  H   UNL     1       6.965 -12.643   0.541  0.00  0.00    +0.170 HD
ATOM     37  C   UNL     1       6.462 -14.510   1.276  0.00  0.00    +0.325 A 
ATOM     38  O   UNL     1       6.524 -15.215   0.287  0.00  0.00    -0.247 OA
ATOM     39  N   UNL     1       6.135 -14.934   2.512  0.00  0.00    -0.306 N 
ATOM     40  H   UNL     1       5.912 -15.845   2.759  0.00  0.00    +0.170 HD
ENDBRANCH  27  29
ENDBRANCH  24  25
ENDBRANCH   3  24
TORSDOF 8
