REMARK  Name = ZINC66980949
REMARK  8 active torsions:
REMARK  status: ('A' for Active; 'I' for Inactive)
REMARK    1  A    between atoms: C_1  and  C_2
REMARK    2  A    between atoms: N_4  and  C_5
REMARK    3  A    between atoms: C_7  and  N_13
REMARK    4  A    between atoms: N_16  and  C_17
REMARK    5  A    between atoms: C_23  and  C_25
REMARK    6  A    between atoms: C_25  and  C_26
REMARK    7  A    between atoms: C_25  and  C_27
REMARK    8  A    between atoms: C_25  and  C_28
REMARK                            x       y       z     vdW  Elec       q    Type
REMARK                         _______ _______ _______ _____ _____    ______ ____
ROOT
ATOM      1  N   UNL     1       1.349  -4.496   0.337  0.00  0.00    -0.267 N 
ATOM      2  C   UNL     1       2.623  -4.096   0.522  0.00  0.00    +0.304 C 
ATOM      3  O   UNL     1       2.865  -2.930   0.765  0.00  0.00    -0.252 OA
ATOM      4  N   UNL     1       3.629  -4.990   0.439  0.00  0.00    -0.296 N 
ATOM      5  H   UNL     1       1.161  -5.412   0.079  0.00  0.00    +0.156 HD
ATOM      6  H   UNL     1       3.436  -5.920   0.245  0.00  0.00    +0.151 HD
ENDROOT
BRANCH   1   9
ATOM      7  C   UNL     1      -0.540  -1.338   0.484  0.00  0.00    +0.071 A 
ATOM      8  C   UNL     1       0.503  -2.234   0.305  0.00  0.00    +0.052 A 
ATOM      9  C   UNL     1       0.296  -3.589   0.518  0.00  0.00    +0.072 A 
ATOM     10  C   UNL     1      -0.957  -4.046   0.912  0.00  0.00    +0.147 A 
ATOM     11  C   UNL     1      -1.996  -3.151   1.090  0.00  0.00    +0.080 A 
ATOM     12  C   UNL     1      -1.790  -1.799   0.883  0.00  0.00    +0.147 A 
ATOM     13  F   UNL     1      -2.805  -0.926   1.063  0.00  0.00    -0.203 F 
ATOM     14  F   UNL     1      -1.159  -5.366   1.119  0.00  0.00    -0.203 F 
BRANCH   7  18
ATOM     15  C   UNL     1       0.750   1.909  -0.922  0.00  0.00    +0.109 C 
ATOM     16  C   UNL     1       0.603   0.442  -0.608  0.00  0.00    +0.214 C 
ATOM     17  O   UNL     1       1.328  -0.369  -1.145  0.00  0.00    -0.276 OA
ATOM     18  N   UNL     1      -0.334   0.031   0.270  0.00  0.00    -0.283 N 
ATOM     19  H   UNL     1      -0.865   0.684   0.753  0.00  0.00    +0.155 HD
ENDBRANCH   7  18
ENDBRANCH   1   9
BRANCH   4  20
ATOM     20  C   UNL     1       5.013  -4.555   0.640  0.00  0.00    +0.078 C 
ATOM     21  C   UNL     1       5.369  -4.655   2.124  0.00  0.00    +0.022 C 
ATOM     22  C   UNL     1       6.814  -4.201   2.335  0.00  0.00    +0.002 C 
ATOM     23  C   UNL     1       7.753  -5.097   1.524  0.00  0.00    +0.000 C 
ATOM     24  C   UNL     1       7.398  -4.997   0.039  0.00  0.00    +0.006 C 
ATOM     25  C   UNL     1       5.952  -5.451  -0.171  0.00  0.00    +0.015 C 
BRANCH  25  26
ATOM     26  C   UNL     1       5.597  -5.351  -1.656  0.00  0.00    -0.033 C 
ATOM     27  C   UNL     1       5.586  -3.881  -2.080  0.00  0.00    +0.011 C 
ATOM     28  C   UNL     1       6.636  -6.112  -2.481  0.00  0.00    +0.011 C 
ATOM     29  C   UNL     1       4.213  -5.960  -1.891  0.00  0.00    +0.011 C 
ENDBRANCH  25  26
ENDBRANCH   4  20
TORSDOF 4
