REMARK  Name = ZINC03104103
REMARK  6 active torsions:
REMARK  status: ('A' for Active; 'I' for Inactive)
REMARK    1  A    between atoms: C_8  and  N_22
REMARK    2  A    between atoms: C_9  and  N_11
REMARK    3  A    between atoms: N_11  and  S_12
REMARK    4  A    between atoms: S_12  and  C_15
REMARK    5  A    between atoms: N_22  and  C_23
REMARK    6  A    between atoms: C_26  and  N_29
REMARK                            x       y       z     vdW  Elec       q    Type
REMARK                         _______ _______ _______ _____ _____    ______ ____
ROOT
ATOM      1  C   UNL     1       6.833  -1.862  -4.233  0.00  0.00    +0.002 A 
ATOM      2  C   UNL     1       6.854  -1.438  -2.907  0.00  0.00    +0.002 A 
ATOM      3  C   UNL     1       5.750  -1.555  -2.117  0.00  0.00    +0.030 A 
ATOM      4  C   UNL     1       4.573  -2.110  -2.643  0.00  0.00    +0.091 A 
ATOM      5  C   UNL     1       4.551  -2.542  -3.991  0.00  0.00    +0.091 A 
ATOM      6  C   UNL     1       5.708  -2.405  -4.776  0.00  0.00    +0.030 A 
ATOM      7  N   UNL     1       3.431  -3.073  -4.503  0.00  0.00    -0.227 NA
ATOM      8  C   UNL     1       2.358  -3.190  -3.748  0.00  0.00    +0.165 A 
ATOM      9  C   UNL     1       2.380  -2.759  -2.400  0.00  0.00    +0.179 A 
ATOM     10  N   UNL     1       3.471  -2.231  -1.887  0.00  0.00    -0.226 NA
ENDROOT
BRANCH   9  11
ATOM     11  N   UNL     1       1.243  -2.888  -1.617  0.00  0.00    -0.197 N 
ATOM     12  H   UNL     1       0.436  -3.273  -1.994  0.00  0.00    +0.175 HD
BRANCH  11  13
ATOM     13  S   UNL     1       1.262  -2.385  -0.040  0.00  0.00    +0.074 S 
ATOM     14  O   UNL     1       2.430  -2.942   0.549  0.00  0.00    -0.150 OA
ATOM     15  O   UNL     1      -0.039  -2.622   0.479  0.00  0.00    -0.150 OA
BRANCH  13  16
ATOM     16  C   UNL     1       1.489  -0.638  -0.052  0.00  0.00    +0.109 A 
ATOM     17  C   UNL     1       0.391   0.201  -0.091  0.00  0.00    +0.030 A 
ATOM     18  C   UNL     1       0.567   1.571  -0.101  0.00  0.00    +0.022 A 
ATOM     19  C   UNL     1       1.844   2.104  -0.072  0.00  0.00    +0.041 A 
ATOM     20  C   UNL     1       2.943   1.264  -0.034  0.00  0.00    +0.022 A 
ATOM     21  C   UNL     1       2.764  -0.106  -0.024  0.00  0.00    +0.030 A 
ATOM     22 CL   UNL     1       2.067   3.826  -0.085  0.00  0.00    -0.084 Cl
ENDBRANCH  13  16
ENDBRANCH  11  13
ENDBRANCH   9  11
BRANCH   8  23
ATOM     23  N   UNL     1       1.200  -3.739  -4.278  0.00  0.00    -0.297 N 
ATOM     24  H   UNL     1       0.434  -3.902  -3.705  0.00  0.00    +0.154 HD
BRANCH  23  25
ATOM     25  C   UNL     1       1.136  -4.059  -5.639  0.00  0.00    +0.033 A 
ATOM     26  C   UNL     1       1.818  -3.284  -6.568  0.00  0.00    +0.025 A 
ATOM     27  C   UNL     1       1.758  -3.602  -7.910  0.00  0.00    +0.024 A 
ATOM     28  C   UNL     1       1.008  -4.692  -8.333  0.00  0.00    +0.025 A 
ATOM     29  C   UNL     1       0.322  -5.464  -7.405  0.00  0.00    +0.024 A 
ATOM     30  C   UNL     1       0.385  -5.149  -6.062  0.00  0.00    +0.025 A 
BRANCH  28  31
ATOM     31  N   UNL     1       0.943  -5.011  -9.694  0.00  0.00    -0.358 N 
ATOM     32  H   UNL     1       0.419  -5.772  -9.989  0.00  0.00    +0.142 HD
ATOM     33  H   UNL     1       1.423  -4.472 -10.342  0.00  0.00    +0.142 HD
ENDBRANCH  28  31
ENDBRANCH  23  25
ENDBRANCH   8  23
TORSDOF 6
