REMARK  Name = ZINC13100084
REMARK  7 active torsions:
REMARK  status: ('A' for Active; 'I' for Inactive)
REMARK    1  A    between atoms: C_1  and  C_2
REMARK    2  A    between atoms: C_5  and  C_9
REMARK    3  A    between atoms: C_7  and  C_8
REMARK    4  A    between atoms: C_18  and  C_21
REMARK    5  A    between atoms: C_21  and  O_23
REMARK    6  A    between atoms: O_23  and  C_24
REMARK    7  A    between atoms: C_24  and  C_25
REMARK                            x       y       z     vdW  Elec       q    Type
REMARK                         _______ _______ _______ _____ _____    ______ ____
ROOT
ATOM      1  C   UNL     1      -4.371  10.011   0.077  0.00  0.00    -0.003 C 
ATOM      2  C   UNL     1      -3.601  10.439  -1.173  0.00  0.00    +0.015 C 
ATOM      3  C   UNL     1      -2.228   9.763  -1.184  0.00  0.00    -0.009 C 
ATOM      4  C   UNL     1      -1.446  10.178   0.064  0.00  0.00    +0.007 C 
ATOM      5  C   UNL     1      -2.216   9.750   1.315  0.00  0.00    -0.009 C 
ATOM      6  C   UNL     1      -3.589  10.426   1.325  0.00  0.00    +0.015 C 
ATOM      7  C   UNL     1      -2.396   8.230   1.307  0.00  0.00    +0.021 C 
ATOM      8  C   UNL     1      -3.178   7.815   0.060  0.00  0.00    +0.069 C 
ATOM      9  C   UNL     1      -2.408   8.244  -1.191  0.00  0.00    +0.021 C 
ATOM     10  C   UNL     1      -4.551   8.492   0.070  0.00  0.00    +0.029 C 
ENDROOT
BRANCH   1  15
ATOM     11  C   UNL     1      -9.555  12.564   0.116  0.00  0.00    +0.044 C 
ATOM     12  C   UNL     1      -8.203  11.898   0.105  0.00  0.00    -0.048 A 
ATOM     13  C   UNL     1      -8.112  10.519   0.096  0.00  0.00    +0.004 A 
ATOM     14  C   UNL     1      -6.872   9.908   0.083  0.00  0.00    +0.004 A 
ATOM     15  C   UNL     1      -5.723  10.677   0.087  0.00  0.00    -0.041 A 
ATOM     16  C   UNL     1      -5.814  12.056   0.095  0.00  0.00    +0.007 A 
ATOM     17  C   UNL     1      -7.054  12.667   0.104  0.00  0.00    -0.047 A 
ATOM     18  C   UNL     1      -7.153  14.170   0.114  0.00  0.00    +0.044 C 
ENDBRANCH   1  15
BRANCH   8  19
ATOM     19  C   UNL     1      -3.355   6.319   0.052  0.00  0.00    +0.314 C 
ATOM     20  O   UNL     1      -4.466   5.842   0.055  0.00  0.00    -0.250 OA
BRANCH  19  21
ATOM     21  O   UNL     1      -2.280   5.516   0.043  0.00  0.00    -0.455 OA
BRANCH  21  22
ATOM     22  C   UNL     1      -2.526   4.085   0.036  0.00  0.00    +0.328 C 
BRANCH  22  23
ATOM     23  C   UNL     1      -1.211   3.349   0.026  0.00  0.00    +0.258 C 
ATOM     24  O   UNL     1      -0.169   3.970   0.024  0.00  0.00    -0.272 OA
ATOM     25  N   UNL     1      -1.192   2.002   0.019  0.00  0.00    -0.238 N 
ATOM     26  C   UNL     1      -0.016   1.344   0.009  0.00  0.00    +0.303 C 
ATOM     27  O   UNL     1       1.028   1.966   0.003  0.00  0.00    -0.253 OA
ATOM     28  N   UNL     1       0.002  -0.004   0.002  0.00  0.00    -0.313 N 
ATOM     29  H   UNL     1      -2.026   1.505   0.020  0.00  0.00    +0.159 HD
ATOM     30  H   UNL     1       0.849  -0.478  -0.009  0.00  0.00    +0.146 HD
ATOM     31  H   UNL     1      -0.831  -0.500   0.007  0.00  0.00    +0.146 HD
ENDBRANCH  22  23
ENDBRANCH  21  22
ENDBRANCH  19  21
ENDBRANCH   8  19
TORSDOF 5
