REMARK  Name = ZINC22130306
REMARK  4 active torsions:
REMARK  status: ('A' for Active; 'I' for Inactive)
REMARK    1  A    between atoms: C_3  and  C_6
REMARK    2  A    between atoms: C_8  and  C_18
REMARK    3  A    between atoms: C_13  and  N_17
REMARK    4  A    between atoms: C_14  and  C_15
REMARK                            x       y       z     vdW  Elec       q    Type
REMARK                         _______ _______ _______ _____ _____    ______ ____
ROOT
ATOM      1  C   UNL     1       3.791  -0.395  -0.036  0.00  0.00    +0.088 C 
ATOM      2  C   UNL     1       4.489   0.137  -1.288  0.00  0.00    +0.144 C 
ATOM      3  C   UNL     1       4.726   1.618  -1.142  0.00  0.00    +0.100 C 
ATOM      4  S   UNL     1       4.647   2.565  -2.428  0.00  0.00    -0.034 SA
ATOM      5  N   UNL     1       5.003   2.149   0.063  0.00  0.00    -0.230 NA
ATOM      6  C   UNL     1       5.070   1.353   1.184  0.00  0.00    +0.116 C 
ATOM      7  C   UNL     1       4.502   0.117   1.190  0.00  0.00    +0.076 C 
ENDROOT
BRANCH   1  10
ATOM      8  C   UNL     1       0.002  -0.004   0.002  0.00  0.00    +0.008 A 
ATOM      9  C   UNL     1       1.220  -0.658  -0.013  0.00  0.00    +0.012 A 
ATOM     10  C   UNL     1       2.360   0.076  -0.020  0.00  0.00    -0.001 A 
ATOM     11  S   UNL     1       1.725   1.744  -0.005  0.00  0.00    -0.101 S 
ATOM     12  C   UNL     1      -0.016   1.351   0.009  0.00  0.00    +0.045 A 
ENDBRANCH   1  10
BRANCH   2  13
ATOM     13  C   UNL     1       5.810  -0.567  -1.465  0.00  0.00    +0.221 C 
ATOM     14  O   UNL     1       6.158  -1.412  -0.667  0.00  0.00    -0.275 OA
ATOM     15  N   UNL     1       6.604  -0.259  -2.509  0.00  0.00    -0.329 N 
ATOM     16  H   UNL     1       7.568  -0.773  -2.638  0.00  0.00    +0.145 HD
ATOM     17  H   UNL     1       6.289   0.507  -3.233  0.00  0.00    +0.145 HD
ENDBRANCH   2  13
BRANCH   6  18
ATOM     18  N   UNL     1       5.716   1.811   2.307  0.00  0.00    -0.402 NA
ATOM     19  H   UNL     1       5.669   1.046   3.095  0.00  0.00    +0.122 HD
ATOM     20  H   UNL     1       5.229   2.732   2.660  0.00  0.00    +0.122 HD
ATOM     21  H   UNL     1       6.768   2.023   2.064  0.00  0.00    +0.122 HD
ENDBRANCH   6  18
BRANCH   7  22
ATOM     22  C   UNL     1       4.580  -0.700   2.364  0.00  0.00    +0.099 C 
ATOM     23  N   UNL     1       4.641  -1.347   3.296  0.00  0.00    -0.191 NA
ENDBRANCH   7  22
TORSDOF 4
