REMARK  Name = ZINC58157896
REMARK  7 active torsions:
REMARK  status: ('A' for Active; 'I' for Inactive)
REMARK    1  A    between atoms: C_1  and  C_2
REMARK    2  A    between atoms: C_5  and  S_24
REMARK    3  A    between atoms: C_7  and  C_8
REMARK    4  A    between atoms: N_10  and  C_11
REMARK    5  A    between atoms: C_14  and  N_17
REMARK    6  A    between atoms: N_17  and  C_18
REMARK    7  A    between atoms: S_24  and  N_27
REMARK                            x       y       z     vdW  Elec       q    Type
REMARK                         _______ _______ _______ _____ _____    ______ ____
ROOT
ATOM      1  C   UNL     1      -0.882  -1.740   3.478  0.00  0.00    +0.249 C 
ATOM      2  O   UNL     1      -1.456  -2.201   4.445  0.00  0.00    -0.270 OA
ATOM      3  N   UNL     1      -0.330  -0.512   3.544  0.00  0.00    -0.281 N 
ATOM      4  H   UNL     1       0.063  -0.113   2.752  0.00  0.00    +0.155 HD
ENDROOT
BRANCH   1  11
ATOM      5  C   UNL     1      -1.815  -4.478   3.437  0.00  0.00    +0.044 C 
ATOM      6  C   UNL     1      -1.236  -3.847   2.197  0.00  0.00    -0.038 A 
ATOM      7  C   UNL     1      -1.151  -4.573   1.027  0.00  0.00    +0.006 A 
ATOM      8  C   UNL     1      -0.620  -3.995  -0.112  0.00  0.00    +0.029 A 
ATOM      9  C   UNL     1      -0.169  -2.687  -0.086  0.00  0.00    +0.106 A 
ATOM     10  C   UNL     1      -0.248  -1.950   1.077  0.00  0.00    +0.041 A 
ATOM     11  C   UNL     1      -0.789  -2.525   2.229  0.00  0.00    +0.042 A 
BRANCH   9  12
ATOM     12  S   UNL     1       0.506  -1.960  -1.542  0.00  0.00    +0.056 S 
ATOM     13  O   UNL     1       1.356  -0.906  -1.113  0.00  0.00    -0.153 OA
ATOM     14  O   UNL     1       0.971  -3.032  -2.352  0.00  0.00    -0.153 OA
BRANCH  12  15
ATOM     15  N   UNL     1      -0.746  -1.255  -2.364  0.00  0.00    -0.204 NA
ATOM     16  H   UNL     1      -1.647  -1.300  -2.007  0.00  0.00    +0.144 HD
ATOM     17  H   UNL     1      -0.579  -0.796  -3.202  0.00  0.00    +0.144 HD
ENDBRANCH  12  15
ENDBRANCH   9  12
ENDBRANCH   1  11
BRANCH   3  18
ATOM     18  C   UNL     1      -0.322   0.188   4.758  0.00  0.00    +0.034 A 
ATOM     19  C   UNL     1      -0.448   1.571   4.762  0.00  0.00    +0.025 A 
ATOM     20  C   UNL     1      -0.441   2.261   5.958  0.00  0.00    +0.025 A 
ATOM     21  C   UNL     1      -0.308   1.571   7.157  0.00  0.00    +0.027 A 
ATOM     22  C   UNL     1      -0.182   0.188   7.152  0.00  0.00    +0.025 A 
ATOM     23  C   UNL     1      -0.195  -0.502   5.956  0.00  0.00    +0.025 A 
BRANCH  21  24
ATOM     24  N   UNL     1      -0.300   2.270   8.368  0.00  0.00    -0.341 N 
ATOM     25  H   UNL     1      -0.388   3.236   8.372  0.00  0.00    +0.146 HD
BRANCH  24  26
ATOM     26  C   UNL     1      -0.159   1.543   9.633  0.00  0.00    +0.070 C 
ATOM     27  C   UNL     1      -1.533   1.052  10.094  0.00  0.00    +0.022 C 
ATOM     28  C   UNL     1      -1.386   0.292  11.414  0.00  0.00    +0.002 C 
ATOM     29  C   UNL     1      -0.795   1.223  12.475  0.00  0.00    +0.000 C 
ATOM     30  C   UNL     1       0.578   1.715  12.014  0.00  0.00    +0.002 C 
ATOM     31  C   UNL     1       0.432   2.474  10.693  0.00  0.00    +0.022 C 
ENDBRANCH  24  26
ENDBRANCH  21  24
ENDBRANCH   3  18
TORSDOF 6
