REMARK  Name = ZINC66818509
REMARK  2 active torsions:
REMARK  status: ('A' for Active; 'I' for Inactive)
REMARK    1  A    between atoms: C_4  and  C_7
REMARK    2  A    between atoms: C_21  and  C_24
REMARK                            x       y       z     vdW  Elec       q    Type
REMARK                         _______ _______ _______ _____ _____    ______ ____
ROOT
ATOM      1  C   UNL     1       3.714  -0.703  -0.056  0.00  0.00    +0.021 C 
ATOM      2  C   UNL     1       3.810  -1.529   1.223  0.00  0.00    +0.010 C 
ATOM      3  C   UNL     1       5.263  -1.743   1.572  0.00  0.00    +0.019 C 
ATOM      4  C   UNL     1       5.769  -3.056   0.948  0.00  0.00    +0.106 C 
ATOM      5  N   UNL     1       5.254  -3.256  -0.421  0.00  0.00    -0.314 N 
ATOM      6  C   UNL     1       5.181  -2.188  -1.392  0.00  0.00    +0.107 C 
ATOM      7  C   UNL     1       3.800  -1.494  -1.293  0.00  0.00    +0.027 C 
ATOM      8  C   UNL     1       4.821  -4.525  -0.791  0.00  0.00    +0.142 A 
ATOM      9  C   UNL     1       4.224  -4.716  -2.052  0.00  0.00    +0.049 A 
ATOM     10  C   UNL     1       3.797  -5.952  -2.425  0.00  0.00    +0.053 A 
ATOM     11  C   UNL     1       3.961  -7.030  -1.534  0.00  0.00    +0.178 A 
ATOM     12  N   UNL     1       3.662  -8.319  -1.592  0.00  0.00    -0.128 NA
ATOM     13  N   UNL     1       4.025  -8.888  -0.496  0.00  0.00    -0.123 NA
ATOM     14  C   UNL     1       4.568  -8.009   0.311  0.00  0.00    +0.258 A 
ATOM     15  N   UNL     1       4.547  -6.812  -0.312  0.00  0.00    -0.187 N 
ATOM     16  N   UNL     1       4.979  -5.531   0.037  0.00  0.00    -0.148 NA
ENDROOT
BRANCH   1  20
ATOM     17  C   UNL     1      -0.009   1.391  -0.043  0.00  0.00    +0.000 A 
ATOM     18  C   UNL     1       1.180   2.096  -0.043  0.00  0.00    +0.000 A 
ATOM     19  C   UNL     1       2.385   1.418  -0.047  0.00  0.00    +0.004 A 
ATOM     20  C   UNL     1       2.400   0.036  -0.051  0.00  0.00    -0.044 A 
ATOM     21  C   UNL     1       1.211  -0.669  -0.049  0.00  0.00    +0.004 A 
ATOM     22  C   UNL     1       0.006   0.009  -0.047  0.00  0.00    +0.000 A 
ENDBRANCH   1  20
BRANCH  14  23
ATOM     23  C   UNL     1       5.116  -8.286   1.687  0.00  0.00    +0.454 C 
ATOM     24  F   UNL     1       5.277  -9.665   1.857  0.00  0.00    -0.163 F 
ATOM     25  F   UNL     1       6.353  -7.650   1.833  0.00  0.00    -0.163 F 
ATOM     26  F   UNL     1       4.225  -7.799   2.650  0.00  0.00    -0.163 F 
ENDBRANCH  14  23
TORSDOF 2
