REMARK  Name = ZINC58377979
REMARK  6 active torsions:
REMARK  status: ('A' for Active; 'I' for Inactive)
REMARK    1  A    between atoms: C_3  and  O_13
REMARK    2  A    between atoms: C_6  and  C_7
REMARK    3  A    between atoms: O_13  and  C_14
REMARK    4  A    between atoms: C_14  and  C_15
REMARK    5  A    between atoms: N_17  and  C_18
REMARK    6  A    between atoms: C_21  and  N_25
REMARK                            x       y       z     vdW  Elec       q    Type
REMARK                         _______ _______ _______ _____ _____    ______ ____
ROOT
ATOM      1  C   UNL     1       5.940   2.273  -0.045  0.00  0.00    +0.255 C 
ATOM      2  O   UNL     1       5.766   3.474  -0.046  0.00  0.00    -0.272 OA
ATOM      3  N   UNL     1       7.192   1.774  -0.058  0.00  0.00    -0.283 N 
ATOM      4  H   UNL     1       7.333   0.817   0.010  0.00  0.00    +0.155 HD
ENDROOT
BRANCH   3   5
ATOM      5  C   UNL     1       8.289   2.638  -0.170  0.00  0.00    +0.036 A 
ATOM      6  C   UNL     1       9.413   2.244  -0.884  0.00  0.00    +0.045 A 
ATOM      7  C   UNL     1      10.495   3.095  -0.995  0.00  0.00    +0.065 A 
ATOM      8  C   UNL     1      10.460   4.346  -0.392  0.00  0.00    +0.062 A 
ATOM      9  C   UNL     1       9.335   4.740   0.323  0.00  0.00    +0.065 A 
ATOM     10  C   UNL     1       8.251   3.890   0.428  0.00  0.00    +0.045 A 
ATOM     11 CL   UNL     1       9.290   6.303   1.078  0.00  0.00    -0.082 Cl
ATOM     12 CL   UNL     1      11.900   2.602  -1.888  0.00  0.00    -0.082 Cl
BRANCH   8  13
ATOM     13  N   UNL     1      11.557   5.209  -0.503  0.00  0.00    -0.356 N 
ATOM     14  H   UNL     1      12.342   4.934  -1.002  0.00  0.00    +0.142 HD
ATOM     15  H   UNL     1      11.532   6.082  -0.082  0.00  0.00    +0.142 HD
ENDBRANCH   8  13
ENDBRANCH   3   5
BRANCH   1  16
ATOM     16  C   UNL     1       4.757   1.340  -0.030  0.00  0.00    +0.324 C 
BRANCH  16  17
ATOM     17  O   UNL     1       3.548   2.103  -0.018  0.00  0.00    -0.483 OA
BRANCH  17  20
ATOM     18  C   UNL     1      -0.017   1.378   0.023  0.00  0.00    +0.009 A 
ATOM     19  C   UNL     1       1.169   2.086   0.009  0.00  0.00    +0.046 A 
ATOM     20  C   UNL     1       2.380   1.409  -0.003  0.00  0.00    +0.121 A 
ATOM     21  C   UNL     1       2.397   0.021  -0.001  0.00  0.00    +0.046 A 
ATOM     22  C   UNL     1       1.208  -0.682   0.014  0.00  0.00    +0.009 A 
ATOM     23  C   UNL     1       0.003  -0.005   0.026  0.00  0.00    -0.024 A 
BRANCH  23  24
ATOM     24  C   UNL     1      -1.293  -0.775   0.042  0.00  0.00    +0.133 C 
ATOM     25  S   UNL     1      -1.353  -1.833   1.518  0.00  0.00    -0.142 S 
ATOM     26  C   UNL     1      -2.895  -2.766   1.315  0.00  0.00    +0.071 C 
ATOM     27  C   UNL     1      -2.825  -3.623   0.056  0.00  0.00    +0.021 C 
ATOM     28  C   UNL     1      -2.931  -2.759  -1.196  0.00  0.00    +0.071 C 
ATOM     29  S   UNL     1      -1.395  -1.825  -1.437  0.00  0.00    -0.142 S 
ENDBRANCH  23  24
ENDBRANCH  17  20
ENDBRANCH  16  17
ENDBRANCH   1  16
TORSDOF 6
