REMARK  Name = ZINC50018929
REMARK  4 active torsions:
REMARK  status: ('A' for Active; 'I' for Inactive)
REMARK    1  A    between atoms: C_2  and  C_18
REMARK    2  A    between atoms: C_3  and  N_17
REMARK    3  A    between atoms: C_6  and  N_7
REMARK    4  A    between atoms: N_7  and  C_8
REMARK                            x       y       z     vdW  Elec       q    Type
REMARK                         _______ _______ _______ _____ _____    ______ ____
ROOT
ATOM      1  C   UNL     1      -0.078   1.253   0.014  0.00  0.00    +0.042 A 
ATOM      2  C   UNL     1       1.050   2.082  -0.024  0.00  0.00    +0.086 A 
ATOM      3  C   UNL     1       2.333   1.510  -0.043  0.00  0.00    +0.042 A 
ATOM      4  C   UNL     1       2.472   0.128  -0.025  0.00  0.00    +0.063 A 
ATOM      5  C   UNL     1       1.353  -0.681   0.012  0.00  0.00    +0.146 A 
ATOM      6  C   UNL     1       0.077  -0.118   0.032  0.00  0.00    +0.064 A 
ATOM      7  F   UNL     1       1.496  -2.024   0.029  0.00  0.00    -0.203 F 
ENDROOT
BRANCH   3   8
ATOM      8  N   UNL     1       3.459   2.323  -0.081  0.00  0.00    -0.357 N 
ATOM      9  H   UNL     1       3.365   3.286  -0.010  0.00  0.00    +0.142 HD
ATOM     10  H   UNL     1       4.340   1.928  -0.179  0.00  0.00    +0.142 HD
ENDBRANCH   3   8
BRANCH   2  11
ATOM     11  C   UNL     1       0.894   3.543  -0.044  0.00  0.00    +0.388 C 
ATOM     12  O   UNL     1      -0.222   4.037  -0.143  0.00  0.00    -0.241 OA
ATOM     13  O   UNL     1       1.878   4.265   0.040  0.00  0.00    -0.241 OA
ENDBRANCH   2  11
BRANCH   6  14
ATOM     14  N   UNL     1      -1.052  -0.949   0.070  0.00  0.00    -0.337 N 
ATOM     15  H   UNL     1      -0.945  -1.913   0.082  0.00  0.00    +0.146 HD
BRANCH  14  16
ATOM     16  C   UNL     1      -2.393  -0.360   0.091  0.00  0.00    +0.093 C 
ATOM     17  C   UNL     1      -2.800  -0.045   1.540  0.00  0.00    +0.046 C 
ATOM     18  C   UNL     1      -4.314   0.271   1.607  0.00  0.00    +0.168 C 
ATOM     19  S   UNL     1      -4.990  -0.693   0.194  0.00  0.00    -0.029 S 
ATOM     20  O   UNL     1      -5.776  -1.764   0.699  0.00  0.00    -0.174 OA
ATOM     21  O   UNL     1      -5.556   0.206  -0.750  0.00  0.00    -0.174 OA
ATOM     22  C   UNL     1      -3.421  -1.374  -0.490  0.00  0.00    +0.188 C 
ENDBRANCH  14  16
ENDBRANCH   6  14
TORSDOF 4
