REMARK  Name = ZINC39561033
REMARK  6 active torsions:
REMARK  status: ('A' for Active; 'I' for Inactive)
REMARK    1  A    between atoms: C_8  and  N_11
REMARK    2  A    between atoms: C_15  and  C_17
REMARK    3  A    between atoms: C_17  and  O_18
REMARK    4  A    between atoms: O_18  and  C_19
REMARK    5  A    between atoms: C_19  and  C_21
REMARK    6  A    between atoms: C_23  and  N_29
REMARK                            x       y       z     vdW  Elec       q    Type
REMARK                         _______ _______ _______ _____ _____    ______ ____
ROOT
ATOM      1  N   UNL     1       2.839  -0.440  -2.473  0.00  0.00    -0.294 N 
ATOM      2  C   UNL     1       4.123  -0.096  -2.697  0.00  0.00    +0.306 C 
ATOM      3  O   UNL     1       4.712   0.606  -1.899  0.00  0.00    -0.252 OA
ATOM      4  N   UNL     1       4.754  -0.531  -3.805  0.00  0.00    -0.237 N 
ATOM      5  C   UNL     1       6.038  -0.186  -4.029  0.00  0.00    +0.258 C 
ATOM      6  O   UNL     1       6.625   0.514  -3.233  0.00  0.00    -0.272 OA
ATOM      7  H   UNL     1       2.369  -1.001  -3.110  0.00  0.00    +0.151 HD
ATOM      8  H   UNL     1       4.284  -1.091  -4.443  0.00  0.00    +0.159 HD
ENDROOT
BRANCH   1  16
ATOM      9  C   UNL     1      -0.019   1.526   0.010  0.00  0.00    +0.007 C 
ATOM     10  C   UNL     1       1.417   2.055  -0.000  0.00  0.00    -0.008 C 
ATOM     11  C   UNL     1       2.157   1.548   1.239  0.00  0.00    +0.007 C 
ATOM     12  C   UNL     1       2.178   0.019   1.231  0.00  0.00    -0.008 C 
ATOM     13  C   UNL     1       0.742  -0.511   1.242  0.00  0.00    +0.007 C 
ATOM     14  C   UNL     1       0.002  -0.004   0.002  0.00  0.00    -0.008 C 
ATOM     15  C   UNL     1       0.718  -0.497  -1.257  0.00  0.00    +0.029 C 
ATOM     16  C   UNL     1       2.154   0.032  -1.268  0.00  0.00    +0.037 C 
ATOM     17  C   UNL     1       2.133   1.562  -1.259  0.00  0.00    +0.029 C 
ATOM     18  C   UNL     1       2.894  -0.475  -0.028  0.00  0.00    +0.029 C 
ENDBRANCH   1  16
BRANCH   5  19
ATOM     19  C   UNL     1       6.743  -0.672  -5.269  0.00  0.00    +0.328 C 
BRANCH  19  20
ATOM     20  O   UNL     1       8.084  -0.178  -5.279  0.00  0.00    -0.451 OA
BRANCH  20  21
ATOM     21  C   UNL     1       8.855  -0.524  -6.328  0.00  0.00    +0.360 C 
ATOM     22  O   UNL     1       8.402  -1.226  -7.210  0.00  0.00    -0.243 OA
BRANCH  21  23
ATOM     23  C   UNL     1      10.254  -0.048  -6.406  0.00  0.00    +0.169 A 
ATOM     24  C   UNL     1      11.043  -0.405  -7.495  0.00  0.00    +0.095 A 
ATOM     25  C   UNL     1      12.361   0.052  -7.554  0.00  0.00    +0.067 A 
ATOM     26  C   UNL     1      12.831   0.851  -6.513  0.00  0.00    +0.100 A 
ATOM     27  C   UNL     1      11.983   1.162  -5.462  0.00  0.00    +0.150 A 
ATOM     28  N   UNL     1      10.743   0.720  -5.437  0.00  0.00    -0.226 NA
ATOM     29 CL   UNL     1      12.562   2.156  -4.161  0.00  0.00    -0.060 Cl
ATOM     30 CL   UNL     1      14.461   1.448  -6.532  0.00  0.00    -0.078 Cl
ATOM     31 CL   UNL     1      10.400  -1.403  -8.761  0.00  0.00    -0.079 Cl
BRANCH  25  32
ATOM     32  N   UNL     1      13.185  -0.281  -8.626  0.00  0.00    -0.356 N 
ATOM     33  H   UNL     1      12.846  -0.838  -9.344  0.00  0.00    +0.142 HD
ATOM     34  H   UNL     1      14.099   0.043  -8.655  0.00  0.00    +0.142 HD
ENDBRANCH  25  32
ENDBRANCH  21  23
ENDBRANCH  20  21
ENDBRANCH  19  20
ENDBRANCH   5  19
TORSDOF 6
