REMARK  Name = ZINC39098218
REMARK  5 active torsions:
REMARK  status: ('A' for Active; 'I' for Inactive)
REMARK    1  A    between atoms: C_3  and  O_15
REMARK    2  A    between atoms: C_4  and  O_14
REMARK    3  A    between atoms: C_6  and  C_7
REMARK    4  A    between atoms: C_7  and  O_9
REMARK    5  A    between atoms: C_7  and  S_10
REMARK                            x       y       z     vdW  Elec       q    Type
REMARK                         _______ _______ _______ _____ _____    ______ ____
ROOT
ATOM      1  C   UNL     1      -0.017   1.378   0.010  0.00  0.00    +0.012 A 
ATOM      2  C   UNL     1       1.170   2.089   0.002  0.00  0.00    +0.049 A 
ATOM      3  C   UNL     1       2.380   1.415  -0.013  0.00  0.00    +0.158 A 
ATOM      4  C   UNL     1       2.399   0.024  -0.021  0.00  0.00    +0.159 A 
ATOM      5  C   UNL     1       1.207  -0.682  -0.013  0.00  0.00    +0.057 A 
ATOM      6  C   UNL     1       0.002  -0.004   0.002  0.00  0.00    +0.009 A 
ENDROOT
BRANCH   4   7
ATOM      7  O   UNL     1       3.585  -0.642  -0.036  0.00  0.00    -0.503 OA
ATOM      8  H   UNL     1       3.937  -0.839   0.843  0.00  0.00    +0.292 HD
ENDBRANCH   4   7
BRANCH   3   9
ATOM      9  O   UNL     1       3.548   2.113  -0.021  0.00  0.00    -0.503 OA
ATOM     10  H   UNL     1       3.894   2.310   0.860  0.00  0.00    +0.292 HD
ENDBRANCH   3   9
BRANCH   6  11
ATOM     11  C   UNL     1      -1.294  -0.774   0.010  0.00  0.00    +0.320 C 
BRANCH  11  12
ATOM     12  S   UNL     1      -2.236  -0.355   1.503  0.00  0.00    +0.141 S 
ATOM     13  O   UNL     1      -3.481  -1.107   1.492  0.00  0.00    -0.142 OA
ATOM     14  O   UNL     1      -1.442  -0.710   2.669  0.00  0.00    -0.142 OA
ATOM     15  O   UNL     1      -2.509   1.074   1.494  0.00  0.00    -0.045 OA
ENDBRANCH  11  12
BRANCH  11  16
ATOM     16  O   UNL     1      -2.058  -0.431  -1.147  0.00  0.00    -0.366 OA
ATOM     17  H   UNL     1      -2.284   0.507  -1.206  0.00  0.00    +0.212 HD
ENDBRANCH  11  16
ENDBRANCH   6  11
TORSDOF 5
