REMARK  Name = ZINC20696399
REMARK  7 active torsions:
REMARK  status: ('A' for Active; 'I' for Inactive)
REMARK    1  A    between atoms: C_1  and  C_2
REMARK    2  A    between atoms: C_2  and  C_3
REMARK    3  A    between atoms: C_3  and  C_5
REMARK    4  A    between atoms: C_3  and  N_6
REMARK    5  A    between atoms: C_7  and  C_9
REMARK    6  A    between atoms: C_16  and  C_25
REMARK    7  A    between atoms: C_30  and  O_31
REMARK                            x       y       z     vdW  Elec       q    Type
REMARK                         _______ _______ _______ _____ _____    ______ ____
ROOT
ATOM      1  C   UNL     1       2.728  -0.718  -3.330  0.00  0.00    +0.058 A 
ATOM      2  C   UNL     1       1.734  -1.533  -3.872  0.00  0.00    +0.015 A 
ATOM      3  C   UNL     1       0.766  -2.064  -3.048  0.00  0.00    +0.001 A 
ATOM      4  C   UNL     1       0.780  -1.794  -1.692  0.00  0.00    +0.006 A 
ATOM      5  C   UNL     1       1.762  -0.987  -1.135  0.00  0.00    -0.019 A 
ATOM      6  C   UNL     1       2.738  -0.444  -1.948  0.00  0.00    +0.044 A 
ATOM      7  N   UNL     1       3.744   0.372  -1.454  0.00  0.00    -0.336 N 
ATOM      8  C   UNL     1       4.053   0.064  -0.057  0.00  0.00    +0.108 C 
ATOM      9  C   UNL     1       2.808   0.236   0.799  0.00  0.00    +0.029 C 
ATOM     10  C   UNL     1       1.706  -0.746   0.351  0.00  0.00    +0.049 C 
ATOM     11  C   UNL     1       0.422   0.009   0.656  0.00  0.00    -0.023 C 
ATOM     12  C   UNL     1       0.653   1.296   0.730  0.00  0.00    -0.030 C 
ATOM     13  C   UNL     1       2.122   1.588   0.484  0.00  0.00    +0.033 C 
ATOM     14  H   UNL     1       4.292   1.171  -1.975  0.00  0.00    +0.147 HD
ENDROOT
BRANCH   8  15
ATOM     15  C   UNL     1       4.540  -1.358   0.047  0.00  0.00    +0.015 A 
ATOM     16  C   UNL     1       4.037  -2.191   1.028  0.00  0.00    +0.024 A 
ATOM     17  C   UNL     1       4.480  -3.498   1.121  0.00  0.00    +0.018 A 
ATOM     18  C   UNL     1       5.434  -3.972   0.237  0.00  0.00    +0.019 A 
ATOM     19  C   UNL     1       5.942  -3.141  -0.743  0.00  0.00    +0.047 A 
ATOM     20  C   UNL     1       5.495  -1.831  -0.840  0.00  0.00    +0.122 A 
ATOM     21 BR   UNL     1       3.786  -4.637   2.461  0.00  0.00    -0.050 Br
BRANCH  20  22
ATOM     22  O   UNL     1       5.994  -1.012  -1.804  0.00  0.00    -0.506 OA
ATOM     23  H   UNL     1       6.752  -1.388  -2.506  0.00  0.00    +0.292 HD
ENDBRANCH  20  22
ENDBRANCH   8  15
BRANCH   1  25
ATOM     24  N   UNL     1       3.847  -0.521  -5.495  0.00  0.00    -0.309 N 
ATOM     25  C   UNL     1       3.768  -0.143  -4.204  0.00  0.00    +0.246 C 
ATOM     26  O   UNL     1       4.554   0.671  -3.759  0.00  0.00    -0.270 OA
ATOM     27  H   UNL     1       3.136  -1.257  -5.897  0.00  0.00    +0.149 HD
BRANCH  24  28
ATOM     28  C   UNL     1       4.880   0.050  -6.363  0.00  0.00    +0.070 C 
ATOM     29  C   UNL     1       4.388   1.381  -6.934  0.00  0.00    +0.028 C 
BRANCH  28  31
ATOM     30  C   UNL     1       5.785  -2.204  -6.946  0.00  0.00    +0.005 C 
ATOM     31  C   UNL     1       5.176  -0.919  -7.509  0.00  0.00    +0.018 C 
ENDBRANCH  28  31
ENDBRANCH  24  28
ENDBRANCH   1  25
TORSDOF 5
