REMARK  Name = ZINC41069950
REMARK  7 active torsions:
REMARK  status: ('A' for Active; 'I' for Inactive)
REMARK    1  A    between atoms: C_1  and  C_2
REMARK    2  A    between atoms: C_5  and  N_9
REMARK    3  A    between atoms: C_6  and  C_8
REMARK    4  A    between atoms: N_9  and  S_10
REMARK    5  A    between atoms: S_10  and  C_13
REMARK    6  A    between atoms: C_18  and  N_19
REMARK    7  A    between atoms: N_19  and  N_20
REMARK                            x       y       z     vdW  Elec       q    Type
REMARK                         _______ _______ _______ _____ _____    ______ ____
ROOT
ATOM      1  S   UNL     1       0.791  -5.045  -1.314  0.00  0.00    +0.076 S 
ATOM      2  O   UNL     1       0.599  -6.448  -1.197  0.00  0.00    -0.150 OA
ATOM      3  O   UNL     1       0.361  -4.308  -2.450  0.00  0.00    -0.150 OA
ENDROOT
BRANCH   1   4
ATOM      4  C   UNL     1       2.523  -4.759  -1.155  0.00  0.00    +0.150 A 
ATOM      5  C   UNL     1       3.193  -3.979  -2.080  0.00  0.00    +0.049 A 
ATOM      6  C   UNL     1       4.558  -3.780  -1.916  0.00  0.00    +0.038 A 
ATOM      7  C   UNL     1       5.201  -4.364  -0.842  0.00  0.00    +0.128 A 
ATOM      8  N   UNL     1       4.536  -5.103   0.025  0.00  0.00    -0.236 NA
ATOM      9  C   UNL     1       3.234  -5.311  -0.094  0.00  0.00    +0.159 A 
ATOM     10 BR   UNL     1       5.525  -2.724  -3.151  0.00  0.00    -0.049 Br
BRANCH   9  11
ATOM     11  N   UNL     1       2.572  -6.092   0.847  0.00  0.00    -0.266 N 
ATOM     12  H   UNL     1       1.605  -6.170   0.818  0.00  0.00    +0.167 HD
BRANCH  11  13
ATOM     13  N   UNL     1       3.282  -6.748   1.811  0.00  0.00    -0.255 NA
ATOM     14  H   UNL     1       3.782  -6.098   2.398  0.00  0.00    +0.140 HD
ATOM     15  H   UNL     1       2.681  -7.343   2.361  0.00  0.00    +0.140 HD
ENDBRANCH  11  13
ENDBRANCH   9  11
ENDBRANCH   1   4
BRANCH   1  16
ATOM     16  N   UNL     1       0.059  -4.356   0.002  0.00  0.00    -0.216 N 
ATOM     17  H   UNL     1      -0.458  -4.904   0.612  0.00  0.00    +0.174 HD
BRANCH  16  22
ATOM     18  C   UNL     1       0.574   1.213   0.942  0.00  0.00    +0.044 C 
ATOM     19  C   UNL     1       0.437  -0.267   0.692  0.00  0.00    -0.050 A 
ATOM     20  C   UNL     1       0.352  -0.743  -0.604  0.00  0.00    +0.005 A 
ATOM     21  C   UNL     1       0.227  -2.098  -0.836  0.00  0.00    +0.025 A 
ATOM     22  C   UNL     1       0.186  -2.984   0.233  0.00  0.00    +0.051 A 
ATOM     23  C   UNL     1       0.272  -2.503   1.533  0.00  0.00    -0.028 A 
ATOM     24  C   UNL     1       0.403  -1.146   1.758  0.00  0.00    +0.008 A 
ATOM     25  C   UNL     1       0.228  -3.460   2.697  0.00  0.00    +0.046 C 
ENDBRANCH  16  22
ENDBRANCH   1  16
TORSDOF 5
