REMARK  Name = ZINC12860817
REMARK  11 active torsions:
REMARK  status: ('A' for Active; 'I' for Inactive)
REMARK    1  A    between atoms: C_1  and  C_2
REMARK    2  A    between atoms: N_6  and  O_7
REMARK    3  A    between atoms: O_7  and  C_8
REMARK    4  A    between atoms: C_8  and  C_9
REMARK    5  A    between atoms: N_11  and  C_12
REMARK    6  A    between atoms: C_12  and  C_13
REMARK    7  A    between atoms: C_13  and  C_14
REMARK    8  A    between atoms: C_17  and  O_20
REMARK    9  A    between atoms: C_31  and  C_40
REMARK   10  A    between atoms: C_36  and  C_37
REMARK   11  A    between atoms: C_36  and  O_39
REMARK                            x       y       z     vdW  Elec       q    Type
REMARK                         _______ _______ _______ _____ _____    ______ ____
ROOT
ATOM      1  C   UNL     1       1.373  -2.487  -0.079  0.00  0.00    +0.016 C 
ATOM      2  C   UNL     1       0.634  -2.011  -1.332  0.00  0.00    -0.007 C 
ATOM      3  C   UNL     1      -0.750  -2.566  -1.204  0.00  0.00    +0.017 C 
ATOM      4  C   UNL     1      -1.379  -2.863  -2.564  0.00  0.00    +0.059 C 
ATOM      5  C   UNL     1      -0.434  -3.783  -3.315  0.00  0.00    +0.080 C 
ATOM      6  N   UNL     1      -0.832  -4.900  -3.836  0.00  0.00    -0.089 NA
ATOM      7  C   UNL     1       0.967  -3.327  -3.416  0.00  0.00    +0.026 C 
ATOM      8  C   UNL     1       1.440  -2.498  -2.497  0.00  0.00    -0.062 C 
ATOM      9  C   UNL     1       2.868  -1.995  -2.627  0.00  0.00    +0.031 C 
ATOM     10  C   UNL     1       2.824  -0.464  -2.579  0.00  0.00    +0.008 C 
ATOM     11  C   UNL     1       2.115   0.002  -1.306  0.00  0.00    -0.003 C 
ATOM     12  C   UNL     1       0.664  -0.482  -1.296  0.00  0.00    +0.002 C 
ATOM     13  C   UNL     1       0.002  -0.004   0.002  0.00  0.00    +0.005 C 
ATOM     14  C   UNL     1      -0.019   1.521   0.010  0.00  0.00    +0.011 C 
ATOM     15  C   UNL     1       1.407   2.080  -0.000  0.00  0.00    +0.011 C 
ATOM     16  C   UNL     1       2.203   1.505  -1.184  0.00  0.00    +0.002 C 
ATOM     17  C   UNL     1       1.607   2.232  -2.404  0.00  0.00    +0.008 C 
ATOM     18  C   UNL     1       1.389   3.675  -1.892  0.00  0.00    +0.049 C 
ATOM     19  C   UNL     1       1.290   3.586  -0.358  0.00  0.00    +0.132 C 
ATOM     20  C   UNL     1       2.119   1.848   1.334  0.00  0.00    +0.015 C 
ENDROOT
BRANCH  19  21
ATOM     21  C   UNL     1       2.389   4.342   0.264  0.00  0.00    -0.070 C 
ATOM     22  C   UNL     1       3.266   4.945   0.760  0.00  0.00    +0.007 C 
ENDBRANCH  19  21
BRANCH  19  23
ATOM     23  O   UNL     1       0.031   4.099   0.083  0.00  0.00    -0.376 OA
ATOM     24  H   UNL     1      -0.113   5.030  -0.135  0.00  0.00    +0.211 HD
ENDBRANCH  19  23
BRANCH   6  25
ATOM     25  O   UNL     1       0.087  -5.725  -4.528  0.00  0.00    -0.384 OA
BRANCH  25  26
ATOM     26  C   UNL     1      -0.488  -6.925  -5.050  0.00  0.00    +0.358 C 
BRANCH  26  27
ATOM     27  C   UNL     1       0.574  -7.722  -5.763  0.00  0.00    +0.253 C 
ATOM     28  O   UNL     1       1.711  -7.304  -5.819  0.00  0.00    -0.272 OA
ATOM     29  N   UNL     1       0.259  -8.900  -6.339  0.00  0.00    -0.312 N 
ATOM     30  H   UNL     1      -0.650  -9.234  -6.295  0.00  0.00    +0.149 HD
BRANCH  29  31
ATOM     31  C   UNL     1       1.291  -9.675  -7.032  0.00  0.00    +0.109 C 
BRANCH  31  32
ATOM     32  C   UNL     1       0.676 -10.959  -7.591  0.00  0.00    +0.054 C 
BRANCH  32  33
ATOM     33  C   UNL     1       1.737 -11.756  -8.304  0.00  0.00    -0.046 A 
ATOM     34  C   UNL     1       1.961 -11.556  -9.653  0.00  0.00    +0.007 A 
ATOM     35  C   UNL     1       2.937 -12.282 -10.308  0.00  0.00    +0.045 A 
ATOM     36  C   UNL     1       3.686 -13.220  -9.612  0.00  0.00    +0.117 A 
ATOM     37  C   UNL     1       3.457 -13.422  -8.259  0.00  0.00    +0.045 A 
ATOM     38  C   UNL     1       2.483 -12.690  -7.608  0.00  0.00    +0.007 A 
BRANCH  36  39
ATOM     39  O   UNL     1       4.644 -13.939 -10.255  0.00  0.00    -0.507 OA
ATOM     40  H   UNL     1       4.324 -14.768 -10.636  0.00  0.00    +0.292 HD
ENDBRANCH  36  39
ENDBRANCH  32  33
ENDBRANCH  31  32
ENDBRANCH  29  31
ENDBRANCH  26  27
ENDBRANCH  25  26
ENDBRANCH   6  25
TORSDOF 9
