REMARK  Name = ZINC29225549
REMARK  9 active torsions:
REMARK  status: ('A' for Active; 'I' for Inactive)
REMARK    1  A    between atoms: C_1  and  C_2
REMARK    2  A    between atoms: C_5  and  N_9
REMARK    3  A    between atoms: C_6  and  C_8
REMARK    4  A    between atoms: C_13  and  C_15
REMARK    5  A    between atoms: C_15  and  C_17
REMARK    6  A    between atoms: C_15  and  S_18
REMARK    7  A    between atoms: S_18  and  C_19
REMARK    8  A    between atoms: C_22  and  C_25
REMARK    9  A    between atoms: N_23  and  N_24
REMARK                            x       y       z     vdW  Elec       q    Type
REMARK                         _______ _______ _______ _____ _____    ______ ____
ROOT
ATOM      1  C   UNL     1      -6.028   2.108  -0.377  0.00  0.00    +0.137 C 
ATOM      2  C   UNL     1      -6.465   2.568   1.016  0.00  0.00    +0.029 C 
ENDROOT
BRANCH   1   7
ATOM      3  N   UNL     1      -1.237   2.069   0.019  0.00  0.00    -0.269 N 
ATOM      4  C   UNL     1      -2.394   1.385  -0.081  0.00  0.00    +0.310 C 
ATOM      5  O   UNL     1      -2.383   0.170  -0.088  0.00  0.00    -0.252 OA
ATOM      6  N   UNL     1      -3.563   2.049  -0.173  0.00  0.00    -0.239 N 
ATOM      7  C   UNL     1      -4.721   1.365  -0.273  0.00  0.00    +0.234 C 
ATOM      8  O   UNL     1      -4.710   0.153  -0.280  0.00  0.00    -0.274 OA
ATOM      9  H   UNL     1      -1.252   3.166   0.100  0.00  0.00    +0.156 HD
ATOM     10  H   UNL     1      -3.574   3.149  -0.167  0.00  0.00    +0.159 HD
BRANCH   3  15
ATOM     11  C   UNL     1       3.704  -0.718   0.008  0.00  0.00    +0.044 C 
ATOM     12  C   UNL     1       2.392   0.023   0.013  0.00  0.00    -0.050 A 
ATOM     13  C   UNL     1       1.282  -0.542   0.613  0.00  0.00    +0.005 A 
ATOM     14  C   UNL     1       0.078   0.134   0.619  0.00  0.00    +0.024 A 
ATOM     15  C   UNL     1      -0.017   1.384   0.020  0.00  0.00    +0.038 A 
ATOM     16  C   UNL     1       1.099   1.949  -0.581  0.00  0.00    -0.029 A 
ATOM     17  C   UNL     1       2.300   1.267  -0.584  0.00  0.00    +0.008 A 
ATOM     18  C   UNL     1       1.000   3.305  -1.232  0.00  0.00    +0.045 C 
ENDBRANCH   3  15
ENDBRANCH   1   7
BRANCH   1  19
ATOM     19  S   UNL     1      -7.290   1.013  -1.073  0.00  0.00    -0.072 S 
BRANCH  19  20
ATOM     20  C   UNL     1      -8.631   2.147  -1.221  0.00  0.00    +0.209 A 
ATOM     21  N   UNL     1      -8.621   3.416  -0.884  0.00  0.00    -0.121 NA
ATOM     22  N   UNL     1      -9.768   3.941  -1.129  0.00  0.00    -0.132 NA
ATOM     23  C   UNL     1     -10.573   3.046  -1.626  0.00  0.00    +0.154 A 
ATOM     24  N   UNL     1      -9.878   1.870  -1.702  0.00  0.00    -0.228 N 
BRANCH  23  25
ATOM     25  C   UNL     1     -12.006   3.264  -2.039  0.00  0.00    +0.059 C 
ATOM     26  C   UNL     1     -12.063   4.329  -3.136  0.00  0.00    +0.011 C 
ATOM     27  C   UNL     1     -13.518   4.551  -3.556  0.00  0.00    +0.001 C 
ATOM     28  C   UNL     1     -14.332   5.019  -2.348  0.00  0.00    +0.000 C 
ATOM     29  C   UNL     1     -14.274   3.955  -1.251  0.00  0.00    +0.001 C 
ATOM     30  C   UNL     1     -12.820   3.732  -0.831  0.00  0.00    +0.011 C 
ENDBRANCH  23  25
BRANCH  24  31
ATOM     31  N   UNL     1     -10.337   0.669  -2.163  0.00  0.00    -0.295 N 
ATOM     32  H   UNL     1     -11.371   0.578  -2.526  0.00  0.00    +0.163 HD
ATOM     33  H   UNL     1      -9.672  -0.207  -2.172  0.00  0.00    +0.163 HD
ENDBRANCH  24  31
ENDBRANCH  19  20
ENDBRANCH   1  19
TORSDOF 6
