REMARK  Name = ZINC50003128
REMARK  6 active torsions:
REMARK  status: ('A' for Active; 'I' for Inactive)
REMARK    1  A    between atoms: C_1  and  N_2
REMARK    2  A    between atoms: N_2  and  C_3
REMARK    3  A    between atoms: N_2  and  C_10
REMARK    4  A    between atoms: C_13  and  S_17
REMARK    5  A    between atoms: C_15  and  N_16
REMARK    6  A    between atoms: S_17  and  N_20
REMARK                            x       y       z     vdW  Elec       q    Type
REMARK                         _______ _______ _______ _____ _____    ______ ____
ROOT
ATOM      1  C   UNL     1       0.000  -0.698  -1.214  0.00  0.00    +0.055 A 
ATOM      2  C   UNL     1       1.199  -1.031  -1.827  0.00  0.00    +0.027 A 
ATOM      3  C   UNL     1       1.194  -1.716  -3.028  0.00  0.00    +0.030 A 
ATOM      4  C   UNL     1      -0.003  -2.071  -3.621  0.00  0.00    +0.107 A 
ATOM      5  C   UNL     1      -1.203  -1.742  -3.018  0.00  0.00    +0.053 A 
ATOM      6  C   UNL     1      -1.208  -1.060  -1.810  0.00  0.00    +0.048 A 
ENDROOT
BRANCH   6   7
ATOM      7  N   UNL     1      -2.421  -0.732  -1.195  0.00  0.00    -0.356 N 
ATOM      8  H   UNL     1      -2.423  -0.252  -0.352  0.00  0.00    +0.142 HD
ATOM      9  H   UNL     1      -3.260  -0.985  -1.611  0.00  0.00    +0.142 HD
ENDBRANCH   6   7
BRANCH   4  10
ATOM     10  S   UNL     1       0.001  -2.944  -5.152  0.00  0.00    +0.056 S 
ATOM     11  O   UNL     1      -1.250  -2.681  -5.772  0.00  0.00    -0.153 OA
ATOM     12  O   UNL     1       1.240  -2.653  -5.783  0.00  0.00    -0.153 OA
BRANCH  10  13
ATOM     13  N   UNL     1       0.020  -4.561  -4.793  0.00  0.00    -0.204 NA
ATOM     14  H   UNL     1      -0.395  -5.197  -5.396  0.00  0.00    +0.144 HD
ATOM     15  H   UNL     1       0.447  -4.872  -3.980  0.00  0.00    +0.144 HD
ENDBRANCH  10  13
ENDBRANCH   4  10
BRANCH   1  17
ATOM     16  C   UNL     1      -0.018   1.461   0.010  0.00  0.00    +0.135 C 
ATOM     17  N   UNL     1       0.002  -0.004   0.002  0.00  0.00    -0.300 N 
BRANCH  17  18
ATOM     18  C   UNL     1       0.023  -0.710   1.209  0.00  0.00    +0.069 A 
ATOM     19  C   UNL     1      -1.168  -1.082   1.818  0.00  0.00    +0.026 A 
ATOM     20  C   UNL     1      -1.144  -1.779   3.011  0.00  0.00    +0.002 A 
ATOM     21  C   UNL     1       0.064  -2.107   3.599  0.00  0.00    +0.003 A 
ATOM     22  C   UNL     1       1.253  -1.738   2.996  0.00  0.00    +0.040 A 
ATOM     23  C   UNL     1       1.237  -1.045   1.800  0.00  0.00    +0.145 A 
ATOM     24  F   UNL     1       2.398  -0.690   1.208  0.00  0.00    -0.204 F 
ENDBRANCH  17  18
ENDBRANCH   1  17
TORSDOF 5
