REMARK  Name = ZINC09317807
REMARK  9 active torsions:
REMARK  status: ('A' for Active; 'I' for Inactive)
REMARK    1  A    between atoms: C_4  and  S_8
REMARK    2  A    between atoms: S_8  and  N_11
REMARK    3  A    between atoms: C_16  and  C_17
REMARK    4  A    between atoms: C_16  and  N_57
REMARK    5  A    between atoms: N_19  and  C_20
REMARK    6  A    between atoms: C_20  and  C_21
REMARK    7  A    between atoms: C_21  and  C_22
REMARK    8  A    between atoms: C_25  and  S_28
REMARK    9  A    between atoms: S_28  and  N_31
REMARK                            x       y       z     vdW  Elec       q    Type
REMARK                         _______ _______ _______ _____ _____    ______ ____
ROOT
ATOM      1  C   UNL     1       0.162   0.960  -4.895  0.00  0.00    +0.019 C 
ENDROOT
BRANCH   1   7
ATOM      2  N   UNL     1      -1.851   1.423  -8.548  0.00  0.00    -0.180 NA
ATOM      3  C   UNL     1      -0.452   1.876  -8.494  0.00  0.00    +0.091 C 
ATOM      4  C   UNL     1       0.233   1.197  -7.303  0.00  0.00    -0.061 C 
ATOM      5  C   UNL     1      -1.888   0.850  -6.179  0.00  0.00    -0.061 C 
ATOM      6  C   UNL     1      -2.660   1.515  -7.324  0.00  0.00    +0.091 C 
ATOM      7  N   UNL     1      -0.551   1.477  -6.081  0.00  0.00    +0.387 N 
ATOM      8  H   UNL     1      -0.667   2.493  -5.984  0.00  0.00    -0.081 HD
BRANCH   2   9
ATOM      9  S   UNL     1      -2.497   0.826  -9.951  0.00  0.00    +0.063 S 
ATOM     10  O   UNL     1      -3.903   1.009  -9.861  0.00  0.00    -0.153 OA
ATOM     11  O   UNL     1      -1.725   1.366 -11.016  0.00  0.00    -0.153 OA
BRANCH   9  15
ATOM     12  C   UNL     1      -1.772  -3.644  -9.963  0.00  0.00    +0.003 A 
ATOM     13  C   UNL     1      -3.063  -3.151  -9.906  0.00  0.00    +0.002 A 
ATOM     14  C   UNL     1      -3.284  -1.787  -9.897  0.00  0.00    +0.031 A 
ATOM     15  C   UNL     1      -2.215  -0.913  -9.956  0.00  0.00    +0.140 A 
ATOM     16  C   UNL     1      -0.922  -1.405 -10.012  0.00  0.00    +0.150 A 
ATOM     17  C   UNL     1      -0.701  -2.772 -10.015  0.00  0.00    +0.040 A 
ATOM     18  F   UNL     1       0.125  -0.551 -10.063  0.00  0.00    -0.203 F 
ENDBRANCH   9  15
ENDBRANCH   2   9
ENDBRANCH   1   7
BRANCH   1  19
ATOM     19  C   UNL     1      -0.543   1.446  -3.655  0.00  0.00    +0.196 C 
ATOM     20  O   UNL     1      -1.540   2.130  -3.753  0.00  0.00    -0.278 OA
ATOM     21  N   UNL     1      -0.067   1.120  -2.437  0.00  0.00    -0.317 N 
ATOM     22  H   UNL     1       0.730   0.573  -2.358  0.00  0.00    +0.149 HD
BRANCH  21  23
ATOM     23  C   UNL     1      -0.753   1.593  -1.232  0.00  0.00    +0.109 C 
BRANCH  23  24
ATOM     24  C   UNL     1      -0.013   1.086   0.008  0.00  0.00    +0.054 C 
BRANCH  24  25
ATOM     25  C   UNL     1      -0.718   1.572   1.248  0.00  0.00    -0.046 A 
ATOM     26  C   UNL     1      -0.360   2.779   1.819  0.00  0.00    +0.005 A 
ATOM     27  C   UNL     1      -1.010   3.227   2.953  0.00  0.00    +0.029 A 
ATOM     28  C   UNL     1      -2.012   2.463   3.523  0.00  0.00    +0.105 A 
ATOM     29  C   UNL     1      -2.366   1.254   2.955  0.00  0.00    +0.029 A 
ATOM     30  C   UNL     1      -1.719   0.808   1.818  0.00  0.00    +0.005 A 
BRANCH  28  31
ATOM     31  S   UNL     1      -2.837   3.032   4.972  0.00  0.00    +0.056 S 
ATOM     32  O   UNL     1      -2.695   4.446   4.992  0.00  0.00    -0.153 OA
ATOM     33  O   UNL     1      -4.107   2.394   4.993  0.00  0.00    -0.153 OA
BRANCH  31  34
ATOM     34  N   UNL     1      -1.995   2.453   6.274  0.00  0.00    -0.204 NA
ATOM     35  H   UNL     1      -1.981   2.954   7.105  0.00  0.00    +0.144 HD
ATOM     36  H   UNL     1      -1.514   1.613   6.207  0.00  0.00    +0.144 HD
ENDBRANCH  31  34
ENDBRANCH  28  31
ENDBRANCH  24  25
ENDBRANCH  23  24
ENDBRANCH  21  23
ENDBRANCH   1  19
TORSDOF 9
