REMARK  Name = ZINC48331855
REMARK  8 active torsions:
REMARK  status: ('A' for Active; 'I' for Inactive)
REMARK    1  A    between atoms: C_3  and  C_8
REMARK    2  A    between atoms: C_4  and  O_7
REMARK    3  A    between atoms: N_9  and  N_10
REMARK    4  A    between atoms: C_11  and  C_13
REMARK    5  A    between atoms: C_16  and  C_19
REMARK    6  A    between atoms: N_21  and  N_22
REMARK    7  A    between atoms: C_23  and  C_24
REMARK    8  A    between atoms: C_25  and  O_30
REMARK                            x       y       z     vdW  Elec       q    Type
REMARK                         _______ _______ _______ _____ _____    ______ ____
ROOT
ATOM      1  C   UNL     1       8.459   2.363  -0.067  0.00  0.00    +0.077 C 
ATOM      2  C   UNL     1       8.516   3.250  -1.313  0.00  0.00    +0.013 C 
ATOM      3  C   UNL     1       9.831   4.033  -1.322  0.00  0.00    +0.013 C 
ATOM      4  C   UNL     1      11.007   3.054  -1.338  0.00  0.00    +0.077 C 
ATOM      5  C   UNL     1      10.950   2.167  -0.092  0.00  0.00    +0.013 C 
ATOM      6  C   UNL     1       9.635   1.385  -0.084  0.00  0.00    +0.013 C 
ENDROOT
BRANCH   1   8
ATOM      7  N   UNL     1       5.988   2.250  -0.044  0.00  0.00    -0.207 N 
ATOM      8  C   UNL     1       7.164   1.592  -0.059  0.00  0.00    +0.235 C 
ATOM      9  O   UNL     1       7.181   0.379  -0.065  0.00  0.00    -0.274 OA
ATOM     10  H   UNL     1       5.975   3.220  -0.039  0.00  0.00    +0.177 HD
BRANCH   7  12
ATOM     11  C   UNL     1       3.652   2.167  -0.022  0.00  0.00    +0.142 C 
ATOM     12  N   UNL     1       4.785   1.534  -0.036  0.00  0.00    -0.188 NA
BRANCH  11  15
ATOM     13  C   UNL     1      -0.017   1.380   0.010  0.00  0.00    +0.001 A 
ATOM     14  C   UNL     1       1.165   2.091   0.002  0.00  0.00    +0.013 A 
ATOM     15  C   UNL     1       2.386   1.414  -0.013  0.00  0.00    +0.036 A 
ATOM     16  C   UNL     1       2.400   0.012  -0.021  0.00  0.00    +0.125 A 
ATOM     17  C   UNL     1       1.204  -0.687  -0.013  0.00  0.00    +0.046 A 
ATOM     18  C   UNL     1       0.002  -0.004   0.002  0.00  0.00    +0.004 A 
BRANCH  16  19
ATOM     19  O   UNL     1       3.581  -0.658  -0.036  0.00  0.00    -0.506 OA
ATOM     20  H   UNL     1       3.932  -0.857   0.843  0.00  0.00    +0.292 HD
ENDBRANCH  16  19
ENDBRANCH  11  15
ENDBRANCH   7  12
ENDBRANCH   1   8
BRANCH   4  21
ATOM     21  C   UNL     1      12.302   3.825  -1.347  0.00  0.00    +0.235 C 
ATOM     22  O   UNL     1      12.286   5.038  -1.340  0.00  0.00    -0.274 OA
ATOM     23  N   UNL     1      13.478   3.167  -1.361  0.00  0.00    -0.207 N 
ATOM     24  H   UNL     1      13.491   2.197  -1.366  0.00  0.00    +0.177 HD
BRANCH  23  25
ATOM     25  N   UNL     1      14.682   3.883  -1.369  0.00  0.00    -0.188 NA
ATOM     26  C   UNL     1      15.814   3.249  -1.384  0.00  0.00    +0.142 C 
BRANCH  26  27
ATOM     27  C   UNL     1      17.081   4.003  -1.392  0.00  0.00    +0.036 A 
ATOM     28  C   UNL     1      17.067   5.405  -1.379  0.00  0.00    +0.125 A 
ATOM     29  C   UNL     1      18.262   6.104  -1.387  0.00  0.00    +0.046 A 
ATOM     30  C   UNL     1      19.464   5.421  -1.407  0.00  0.00    +0.004 A 
ATOM     31  C   UNL     1      19.483   4.037  -1.421  0.00  0.00    +0.001 A 
ATOM     32  C   UNL     1      18.301   3.325  -1.407  0.00  0.00    +0.013 A 
BRANCH  28  33
ATOM     33  O   UNL     1      15.885   6.075  -1.359  0.00  0.00    -0.506 OA
ATOM     34  H   UNL     1      15.553   6.261  -0.471  0.00  0.00    +0.292 HD
ENDBRANCH  28  33
ENDBRANCH  26  27
ENDBRANCH  23  25
ENDBRANCH   4  21
TORSDOF 8
