REMARK  Name = ZINC66448510
REMARK  5 active torsions:
REMARK  status: ('A' for Active; 'I' for Inactive)
REMARK    1  A    between atoms: C_6  and  N_7
REMARK    2  A    between atoms: C_9  and  C_14
REMARK    3  A    between atoms: N_16  and  C_17
REMARK    4  A    between atoms: N_22  and  C_24
REMARK    5  A    between atoms: C_24  and  C_25
REMARK                            x       y       z     vdW  Elec       q    Type
REMARK                         _______ _______ _______ _____ _____    ______ ____
ROOT
ATOM      1  C   UNL     1      -3.822  -1.053  -1.813  0.00  0.00    +0.218 C 
ATOM      2  O   UNL     1      -3.294  -0.171  -2.457  0.00  0.00    -0.275 OA
ATOM      3  N   UNL     1      -4.673  -1.909  -2.413  0.00  0.00    -0.311 N 
ATOM      4  H   UNL     1      -5.095  -2.614  -1.898  0.00  0.00    +0.149 HD
ENDROOT
BRANCH   1   7
ATOM      5  N   UNL     1      -1.202  -0.721   0.010  0.00  0.00    -0.271 N 
ATOM      6  C   UNL     1      -2.530  -0.108   0.127  0.00  0.00    +0.127 C 
ATOM      7  C   UNL     1      -3.526  -1.192  -0.342  0.00  0.00    +0.101 C 
ATOM      8  C   UNL     1      -2.738  -2.490  -0.055  0.00  0.00    +0.110 C 
ATOM      9  C   UNL     1      -1.288  -2.058  -0.093  0.00  0.00    +0.221 C 
ATOM     10  O   UNL     1      -0.342  -2.810  -0.200  0.00  0.00    -0.275 OA
BRANCH   5  16
ATOM     11  C   UNL     1       1.214  -0.682   0.001  0.00  0.00    +0.027 A 
ATOM     12  C   UNL     1       2.402   0.024  -0.008  0.00  0.00    +0.051 A 
ATOM     13  C   UNL     1       2.387   1.409  -0.015  0.00  0.00    +0.166 A 
ATOM     14  C   UNL     1       1.173   2.092  -0.014  0.00  0.00    +0.168 A 
ATOM     15  C   UNL     1      -0.017   1.384  -0.005  0.00  0.00    +0.073 A 
ATOM     16  C   UNL     1       0.002  -0.004   0.002  0.00  0.00    +0.040 A 
ATOM     17  O   UNL     1       1.427   3.433  -0.021  0.00  0.00    -0.453 OA
ATOM     18  C   UNL     1       2.801   3.567   0.385  0.00  0.00    +0.466 C 
ATOM     19  O   UNL     1       3.402   2.324  -0.024  0.00  0.00    -0.453 OA
ENDBRANCH   5  16
ENDBRANCH   1   7
BRANCH   3  20
ATOM     20  C   UNL     1      -4.960  -1.774  -3.843  0.00  0.00    +0.087 C 
ATOM     21  C   UNL     1      -3.886  -2.508  -4.652  0.00  0.00    +0.025 C 
ATOM     22  C   UNL     1      -4.227  -2.413  -6.141  0.00  0.00    +0.017 C 
ATOM     23  C   UNL     1      -5.617  -3.006  -6.381  0.00  0.00    +0.085 C 
ATOM     24  N   UNL     1      -6.608  -2.269  -5.586  0.00  0.00    -0.292 NA
ATOM     25  C   UNL     1      -6.330  -2.385  -4.149  0.00  0.00    +0.107 C 
BRANCH  24  26
ATOM     26  C   UNL     1      -7.972  -2.720  -5.896  0.00  0.00    +0.180 C 
BRANCH  26  27
ATOM     27  C   UNL     1      -8.310  -2.356  -7.318  0.00  0.00    +0.225 C 
ATOM     28  O   UNL     1      -7.496  -1.778  -8.007  0.00  0.00    -0.275 OA
ATOM     29  N   UNL     1      -9.518  -2.673  -7.826  0.00  0.00    -0.328 N 
ATOM     30  H   UNL     1     -10.169  -3.136  -7.275  0.00  0.00    +0.145 HD
ATOM     31  H   UNL     1      -9.736  -2.439  -8.741  0.00  0.00    +0.145 HD
ENDBRANCH  26  27
ENDBRANCH  24  26
ENDBRANCH   3  20
TORSDOF 5
