REMARK  Name = ZINC12379639
REMARK  8 active torsions:
REMARK  status: ('A' for Active; 'I' for Inactive)
REMARK    1  A    between atoms: C_1  and  C_2
REMARK    2  A    between atoms: N_4  and  C_5
REMARK    3  A    between atoms: C_8  and  N_11
REMARK    4  A    between atoms: C_12  and  C_14
REMARK    5  A    between atoms: C_14  and  N_24
REMARK    6  A    between atoms: C_15  and  C_16
REMARK    7  A    between atoms: C_17  and  C_18
REMARK    8  A    between atoms: C_25  and  C_27
REMARK                            x       y       z     vdW  Elec       q    Type
REMARK                         _______ _______ _______ _____ _____    ______ ____
ROOT
ATOM      1  C   UNL     1       0.596  -8.256  -1.840  0.00  0.00    +0.096 C 
ATOM      2  C   UNL     1       0.848  -9.038  -2.925  0.00  0.00    +0.028 C 
ENDROOT
BRANCH   1   4
ATOM      3  N   UNL     1      -0.692  -6.219  -2.208  0.00  0.00    -0.280 N 
ATOM      4  C   UNL     1       0.504  -6.800  -1.990  0.00  0.00    +0.262 C 
ATOM      5  O   UNL     1       1.509  -6.116  -1.919  0.00  0.00    -0.268 OA
ATOM      6  H   UNL     1      -1.484  -6.768  -2.322  0.00  0.00    +0.155 HD
BRANCH   3  10
ATOM      7  C   UNL     1      -0.992  -2.065  -2.391  0.00  0.00    +0.033 A 
ATOM      8  C   UNL     1       0.138  -2.703  -2.886  0.00  0.00    +0.025 A 
ATOM      9  C   UNL     1       0.238  -4.078  -2.825  0.00  0.00    +0.025 A 
ATOM     10  C   UNL     1      -0.793  -4.825  -2.269  0.00  0.00    +0.034 A 
ATOM     11  C   UNL     1      -1.923  -4.187  -1.773  0.00  0.00    +0.025 A 
ATOM     12  C   UNL     1      -2.020  -2.812  -1.829  0.00  0.00    +0.025 A 
BRANCH   7  16
ATOM     13  C   UNL     1      -1.729   1.513  -1.478  0.00  0.00    +0.109 C 
ATOM     14  C   UNL     1      -1.700   0.007  -1.457  0.00  0.00    +0.214 C 
ATOM     15  O   UNL     1      -2.224  -0.597  -0.545  0.00  0.00    -0.276 OA
ATOM     16  N   UNL     1      -1.093  -0.670  -2.452  0.00  0.00    -0.286 N 
ATOM     17  H   UNL     1      -0.725  -0.190  -3.211  0.00  0.00    +0.155 HD
ENDBRANCH   7  16
ENDBRANCH   3  10
ENDBRANCH   1   4
BRANCH   1  18
ATOM     18  N   UNL     1       0.426  -8.840  -0.582  0.00  0.00    -0.277 N 
ATOM     19  C   UNL     1       0.072  -8.079   0.472  0.00  0.00    +0.248 C 
ATOM     20  O   UNL     1      -0.195  -6.904   0.311  0.00  0.00    -0.270 OA
ATOM     21  H   UNL     1       0.561  -9.794  -0.468  0.00  0.00    +0.155 HD
BRANCH  19  22
ATOM     22  C   UNL     1       0.010  -8.672   1.824  0.00  0.00    +0.037 A 
ATOM     23  C   UNL     1       0.323 -10.020   2.014  0.00  0.00    +0.013 A 
ATOM     24  C   UNL     1       0.263 -10.567   3.278  0.00  0.00    +0.001 A 
ATOM     25  C   UNL     1      -0.106  -9.784   4.358  0.00  0.00    +0.000 A 
ATOM     26  C   UNL     1      -0.416  -8.448   4.177  0.00  0.00    +0.001 A 
ATOM     27  C   UNL     1      -0.355  -7.886   2.919  0.00  0.00    +0.013 A 
ENDBRANCH  19  22
ENDBRANCH   1  18
BRANCH   2  28
ATOM     28  C   UNL     1       1.126  -8.443  -4.174  0.00  0.00    +0.003 C 
ATOM     29  C   UNL     1       1.276  -9.217  -5.273  0.00  0.00    +0.008 C 
BRANCH  29  30
ATOM     30  C   UNL     1       1.565  -8.597  -6.575  0.00  0.00    -0.025 A 
ATOM     31  C   UNL     1       1.693  -7.208  -6.679  0.00  0.00    +0.008 A 
ATOM     32  C   UNL     1       1.965  -6.634  -7.903  0.00  0.00    +0.001 A 
ATOM     33  C   UNL     1       2.111  -7.429  -9.027  0.00  0.00    +0.000 A 
ATOM     34  C   UNL     1       1.986  -8.804  -8.932  0.00  0.00    +0.001 A 
ATOM     35  C   UNL     1       1.721  -9.394  -7.714  0.00  0.00    +0.008 A 
ENDBRANCH  29  30
ENDBRANCH   2  28
TORSDOF 7
