REMARK  Name = ZINC64775485
REMARK  7 active torsions:
REMARK  status: ('A' for Active; 'I' for Inactive)
REMARK    1  A    between atoms: C_1  and  O_2
REMARK    2  A    between atoms: O_2  and  C_3
REMARK    3  A    between atoms: C_6  and  C_9
REMARK    4  A    between atoms: C_15  and  C_20
REMARK    5  A    between atoms: N_22  and  C_23
REMARK    6  A    between atoms: C_26  and  S_29
REMARK    7  A    between atoms: S_29  and  N_32
REMARK                            x       y       z     vdW  Elec       q    Type
REMARK                         _______ _______ _______ _____ _____    ______ ____
ROOT
ATOM      1  C   UNL     1       1.994  -3.530  -4.066  0.00  0.00    +0.032 C 
ATOM      2  C   UNL     1       3.454  -3.822  -3.731  0.00  0.00    +0.062 C 
ATOM      3  C   UNL     1       4.114  -4.634  -4.815  0.00  0.00    +0.030 A 
ATOM      4  C   UNL     1       3.372  -5.421  -5.680  0.00  0.00    +0.038 A 
ATOM      5  C   UNL     1       4.007  -6.186  -6.682  0.00  0.00    +0.031 A 
ATOM      6  C   UNL     1       5.389  -6.131  -6.792  0.00  0.00    +0.102 A 
ATOM      7  C   UNL     1       6.125  -5.276  -5.856  0.00  0.00    +0.261 A 
ATOM      8  O   UNL     1       7.338  -5.199  -5.924  0.00  0.00    -0.267 OA
ATOM      9  N   UNL     1       5.457  -4.577  -4.924  0.00  0.00    -0.325 N 
ATOM     10  H   UNL     1       5.955  -4.015  -4.310  0.00  0.00    +0.169 HD
ATOM     11  C   UNL     1       1.904  -5.466  -5.572  0.00  0.00    +0.165 C 
ATOM     12  O   UNL     1       1.227  -5.979  -6.438  0.00  0.00    -0.292 OA
ATOM     13  C   UNL     1       1.265  -4.852  -4.344  0.00  0.00    +0.088 C 
ENDROOT
BRANCH   1  17
ATOM     14  C   UNL     1       0.141  -1.546  -0.765  0.00  0.00    +0.120 A 
ATOM     15  C   UNL     1       0.198  -0.927  -2.005  0.00  0.00    +0.046 A 
ATOM     16  C   UNL     1       0.798  -1.570  -3.071  0.00  0.00    +0.007 A 
ATOM     17  C   UNL     1       1.341  -2.831  -2.902  0.00  0.00    -0.043 A 
ATOM     18  C   UNL     1       1.285  -3.450  -1.667  0.00  0.00    +0.007 A 
ATOM     19  C   UNL     1       0.691  -2.809  -0.597  0.00  0.00    +0.046 A 
BRANCH  14  21
ATOM     20  C   UNL     1      -0.993   0.382   0.038  0.00  0.00    +0.277 C 
ATOM     21  O   UNL     1      -0.448  -0.915   0.284  0.00  0.00    -0.495 OA
ENDBRANCH  14  21
ENDBRANCH   1  17
BRANCH   6  22
ATOM     22  C   UNL     1       6.098  -6.910  -7.820  0.00  0.00    +0.254 C 
ATOM     23  O   UNL     1       5.484  -7.693  -8.520  0.00  0.00    -0.270 OA
ATOM     24  N   UNL     1       7.426  -6.756  -7.986  0.00  0.00    -0.281 N 
ATOM     25  H   UNL     1       7.929  -6.191  -7.379  0.00  0.00    +0.155 HD
BRANCH  24  26
ATOM     26  C   UNL     1       8.081  -7.412  -9.034  0.00  0.00    +0.034 A 
ATOM     27  C   UNL     1       7.425  -7.622 -10.241  0.00  0.00    +0.025 A 
ATOM     28  C   UNL     1       8.074  -8.270 -11.274  0.00  0.00    +0.030 A 
ATOM     29  C   UNL     1       9.375  -8.708 -11.107  0.00  0.00    +0.105 A 
ATOM     30  C   UNL     1      10.030  -8.500  -9.908  0.00  0.00    +0.030 A 
ATOM     31  C   UNL     1       9.389  -7.849  -8.873  0.00  0.00    +0.025 A 
BRANCH  29  32
ATOM     32  S   UNL     1      10.200  -9.534 -12.428  0.00  0.00    +0.056 S 
ATOM     33  O   UNL     1      11.219 -10.328 -11.836  0.00  0.00    -0.153 OA
ATOM     34  O   UNL     1       9.186 -10.089 -13.255  0.00  0.00    -0.153 OA
BRANCH  32  35
ATOM     35  N   UNL     1      10.965  -8.375 -13.329  0.00  0.00    -0.204 NA
ATOM     36  H   UNL     1      11.784  -8.590 -13.801  0.00  0.00    +0.144 HD
ATOM     37  H   UNL     1      10.594  -7.480 -13.384  0.00  0.00    +0.144 HD
ENDBRANCH  32  35
ENDBRANCH  29  32
ENDBRANCH  24  26
ENDBRANCH   6  22
TORSDOF 6
