REMARK  Name = ZINC49585948
REMARK  7 active torsions:
REMARK  status: ('A' for Active; 'I' for Inactive)
REMARK    1  A    between atoms: C_1  and  C_2
REMARK    2  A    between atoms: C_2  and  C_3
REMARK    3  A    between atoms: C_3  and  C_4
REMARK    4  A    between atoms: C_3  and  C_11
REMARK    5  A    between atoms: C_3  and  O_14
REMARK    6  A    between atoms: O_14  and  C_15
REMARK    7  A    between atoms: C_15  and  C_16
REMARK                            x       y       z     vdW  Elec       q    Type
REMARK                         _______ _______ _______ _____ _____    ______ ____
ROOT
ATOM      1  C   UNL     1      -1.433  -0.534   0.013  0.00  0.00    +0.195 C 
ENDROOT
BRANCH   1   2
ATOM      2  C   UNL     1      -2.175   0.051   1.187  0.00  0.00    -0.005 A 
ATOM      3  C   UNL     1      -1.491   0.385   2.340  0.00  0.00    +0.008 A 
ATOM      4  C   UNL     1      -2.171   0.921   3.417  0.00  0.00    +0.015 A 
ATOM      5  C   UNL     1      -3.537   1.124   3.341  0.00  0.00    +0.018 A 
ATOM      6  C   UNL     1      -4.222   0.789   2.187  0.00  0.00    +0.015 A 
ATOM      7  C   UNL     1      -3.540   0.258   1.108  0.00  0.00    +0.008 A 
ATOM      8 BR   UNL     1      -4.468   1.857   4.814  0.00  0.00    -0.050 Br
ENDBRANCH   1   2
BRANCH   1   9
ATOM      9  C   UNL     1      -1.414  -2.036   0.129  0.00  0.00    +0.392 C 
ATOM     10  O   UNL     1      -0.897  -2.566   1.097  0.00  0.00    -0.243 OA
ATOM     11  O   UNL     1      -1.915  -2.721  -0.747  0.00  0.00    -0.243 OA
ENDBRANCH   1   9
BRANCH   1  13
ATOM     12  C   UNL     1      -0.019   1.526   0.010  0.00  0.00    +0.007 C 
ATOM     13  C   UNL     1       0.002  -0.004   0.002  0.00  0.00    +0.048 C 
ENDBRANCH   1  13
BRANCH   1  14
ATOM     14  O   UNL     1      -2.089  -0.158  -1.200  0.00  0.00    -0.352 OA
BRANCH  14  15
ATOM     15  C   UNL     1      -1.462  -0.663  -2.380  0.00  0.00    +0.204 C 
BRANCH  15  16
ATOM     16  C   UNL     1      -2.232  -0.208  -3.593  0.00  0.00    +0.015 A 
ATOM     17  C   UNL     1      -2.069   0.913  -4.337  0.00  0.00    +0.013 A 
ATOM     18  C   UNL     1      -2.902   1.127  -5.419  0.00  0.00    +0.008 A 
ATOM     19  C   UNL     1      -3.857   0.208  -5.705  0.00  0.00    +0.045 A 
ATOM     20  S   UNL     1      -3.593  -1.010  -4.426  0.00  0.00    -0.099 S 
ENDBRANCH  15  16
ENDBRANCH  14  15
ENDBRANCH   1  14
TORSDOF 6
