REMARK  Name = ZINC42014658
REMARK  4 active torsions:
REMARK  status: ('A' for Active; 'I' for Inactive)
REMARK    1  A    between atoms: C_1  and  C_2
REMARK    2  A    between atoms: C_6  and  C_9
REMARK    3  A    between atoms: C_7  and  N_8
REMARK    4  A    between atoms: N_13  and  C_14
REMARK                            x       y       z     vdW  Elec       q    Type
REMARK                         _______ _______ _______ _____ _____    ______ ____
ROOT
ATOM      1  C   UNL     1       0.103  -2.866   2.454  0.00  0.00    +0.189 A 
ATOM      2  N   UNL     1       0.167  -2.358   3.668  0.00  0.00    -0.108 NA
ATOM      3  N   UNL     1       0.096  -3.289   4.549  0.00  0.00    -0.022 NA
ATOM      4  N   UNL     1      -0.017  -4.441   3.984  0.00  0.00    -0.039 NA
ATOM      5  N   UNL     1      -0.023  -4.217   2.596  0.00  0.00    -0.193 N 
ENDROOT
BRANCH   1  11
ATOM      6  C   UNL     1       2.262   0.577  -0.466  0.00  0.00    +0.045 C 
ATOM      7  C   UNL     1       1.190  -0.456  -0.230  0.00  0.00    -0.029 A 
ATOM      8  C   UNL     1       0.244  -0.705  -1.206  0.00  0.00    +0.005 A 
ATOM      9  C   UNL     1      -0.744  -1.652  -0.998  0.00  0.00    +0.001 A 
ATOM     10  C   UNL     1      -0.795  -2.356   0.188  0.00  0.00    +0.013 A 
ATOM     11  C   UNL     1       0.153  -2.115   1.182  0.00  0.00    +0.042 A 
ATOM     12  C   UNL     1       1.156  -1.159   0.966  0.00  0.00    +0.038 A 
BRANCH  12  13
ATOM     13  N   UNL     1       2.111  -0.913   1.950  0.00  0.00    -0.357 N 
ATOM     14  H   UNL     1       2.802  -0.249   1.799  0.00  0.00    +0.142 HD
ATOM     15  H   UNL     1       2.086  -1.406   2.784  0.00  0.00    +0.142 HD
ENDBRANCH  12  13
ENDBRANCH   1  11
BRANCH   5  16
ATOM     16  C   UNL     1      -0.133  -5.174   1.578  0.00  0.00    +0.070 A 
ATOM     17  C   UNL     1      -1.047  -6.213   1.695  0.00  0.00    +0.028 A 
ATOM     18  C   UNL     1      -1.153  -7.155   0.691  0.00  0.00    +0.003 A 
ATOM     19  C   UNL     1      -0.349  -7.066  -0.431  0.00  0.00    +0.015 A 
ATOM     20  C   UNL     1       0.563  -6.032  -0.551  0.00  0.00    +0.020 A 
ATOM     21  C   UNL     1       0.669  -5.083   0.449  0.00  0.00    +0.043 A 
ATOM     22 BR   UNL     1       1.661  -5.914  -2.086  0.00  0.00    -0.050 Br
ENDBRANCH   5  16
TORSDOF 3
