REMARK  Name = ZINC32084971
REMARK  13 active torsions:
REMARK  status: ('A' for Active; 'I' for Inactive)
REMARK    1  A    between atoms: C_1  and  C_2
REMARK    2  A    between atoms: C_2  and  C_3
REMARK    3  A    between atoms: C_3  and  N_4
REMARK    4  A    between atoms: N_4  and  C_5
REMARK    5  A    between atoms: C_8  and  S_25
REMARK    6  A    between atoms: C_10  and  N_11
REMARK    7  A    between atoms: N_11  and  S_12
REMARK    8  A    between atoms: S_12  and  C_15
REMARK    9  A    between atoms: C_18  and  C_21
REMARK   10  A    between atoms: C_21  and  C_22
REMARK   11  A    between atoms: C_22  and  C_23
REMARK   12  A    between atoms: C_22  and  C_24
REMARK   13  A    between atoms: S_25  and  N_28
REMARK                            x       y       z     vdW  Elec       q    Type
REMARK                         _______ _______ _______ _____ _____    ______ ____
ROOT
ATOM      1  C   UNL     1       1.073  -2.599   2.252  0.00  0.00    +0.050 A 
ATOM      2  C   UNL     1       1.491  -1.824   3.323  0.00  0.00    +0.027 A 
ATOM      3  C   UNL     1       2.064  -2.424   4.429  0.00  0.00    +0.030 A 
ATOM      4  C   UNL     1       2.221  -3.797   4.472  0.00  0.00    +0.107 A 
ATOM      5  C   UNL     1       1.807  -4.578   3.409  0.00  0.00    +0.054 A 
ATOM      6  C   UNL     1       1.227  -3.985   2.297  0.00  0.00    +0.071 A 
ENDROOT
BRANCH   4   7
ATOM      7  S   UNL     1       2.952  -4.553   5.886  0.00  0.00    +0.056 S 
ATOM      8  O   UNL     1       3.485  -5.797   5.451  0.00  0.00    -0.153 OA
ATOM      9  O   UNL     1       3.752  -3.559   6.511  0.00  0.00    -0.153 OA
BRANCH   7  10
ATOM     10  N   UNL     1       1.726  -4.907   6.941  0.00  0.00    -0.204 NA
ATOM     11  H   UNL     1       0.809  -4.688   6.710  0.00  0.00    +0.144 HD
ATOM     12  H   UNL     1       1.924  -5.332   7.790  0.00  0.00    +0.144 HD
ENDBRANCH   7  10
ENDBRANCH   4   7
BRANCH   1  13
ATOM     13  N   UNL     1       0.493  -1.994   1.131  0.00  0.00    -0.342 N 
ATOM     14  H   UNL     1       0.197  -2.538   0.384  0.00  0.00    +0.146 HD
BRANCH  13  15
ATOM     15  C   UNL     1       0.332  -0.539   1.085  0.00  0.00    +0.101 C 
BRANCH  15  17
ATOM     16  C   UNL     1      -0.491   1.381  -0.286  0.00  0.00    +0.005 C 
ATOM     17  C   UNL     1      -0.323  -0.139  -0.239  0.00  0.00    +0.015 C 
ENDBRANCH  15  17
ENDBRANCH  13  15
ENDBRANCH   1  13
BRANCH   6  18
ATOM     18  N   UNL     1       0.803  -4.774   1.222  0.00  0.00    -0.214 N 
ATOM     19  H   UNL     1       0.885  -4.442   0.314  0.00  0.00    +0.174 HD
BRANCH  18  20
ATOM     20  S   UNL     1       0.159  -6.275   1.499  0.00  0.00    +0.072 S 
ATOM     21  O   UNL     1      -0.291  -6.762   0.243  0.00  0.00    -0.150 OA
ATOM     22  O   UNL     1       1.101  -6.979   2.297  0.00  0.00    -0.150 OA
BRANCH  20  23
ATOM     23  C   UNL     1      -1.276  -6.050   2.496  0.00  0.00    +0.109 A 
ATOM     24  C   UNL     1      -1.170  -6.060   3.874  0.00  0.00    +0.029 A 
ATOM     25  C   UNL     1      -2.296  -5.883   4.656  0.00  0.00    +0.005 A 
ATOM     26  C   UNL     1      -3.529  -5.696   4.060  0.00  0.00    -0.047 A 
ATOM     27  C   UNL     1      -3.635  -5.684   2.682  0.00  0.00    +0.005 A 
ATOM     28  C   UNL     1      -2.509  -5.857   1.900  0.00  0.00    +0.029 A 
BRANCH  26  29
ATOM     29  C   UNL     1      -4.757  -5.504   4.912  0.00  0.00    +0.038 C 
BRANCH  29  30
ATOM     30  C   UNL     1      -4.953  -4.013   5.196  0.00  0.00    -0.013 C 
ATOM     31  C   UNL     1      -5.251  -3.280   3.886  0.00  0.00    +0.007 C 
ATOM     32  C   UNL     1      -6.125  -3.828   6.162  0.00  0.00    +0.007 C 
ENDBRANCH  29  30
ENDBRANCH  26  29
ENDBRANCH  20  23
ENDBRANCH  18  20
ENDBRANCH   6  18
TORSDOF 10
