REMARK  Name = ZINC40735397
REMARK  7 active torsions:
REMARK  status: ('A' for Active; 'I' for Inactive)
REMARK    1  A    between atoms: C_1  and  C_2
REMARK    2  A    between atoms: C_7  and  C_9
REMARK    3  A    between atoms: C_7  and  C_10
REMARK    4  A    between atoms: C_14  and  N_28
REMARK    5  A    between atoms: C_15  and  N_19
REMARK    6  A    between atoms: N_19  and  C_20
REMARK    7  A    between atoms: C_20  and  C_21
REMARK                            x       y       z     vdW  Elec       q    Type
REMARK                         _______ _______ _______ _____ _____    ______ ____
ROOT
ATOM      1  C   UNL     1       0.396   0.171   1.989  0.00  0.00    +0.013 C 
ATOM      2  C   UNL     1      -0.004  -1.292   1.742  0.00  0.00    -0.014 C 
ATOM      3  C   UNL     1       0.959  -2.009   0.755  0.00  0.00    +0.030 C 
ATOM      4  C   UNL     1       0.064  -3.204   0.344  0.00  0.00    +0.076 C 
ATOM      5  C   UNL     1       0.065  -4.192   1.508  0.00  0.00    +0.029 C 
ATOM      6  C   UNL     1      -0.376  -3.585   2.828  0.00  0.00    -0.033 C 
ATOM      7  C   UNL     1      -0.039  -2.119   3.026  0.00  0.00    +0.014 C 
ATOM      8  C   UNL     1      -1.881  -3.813   3.029  0.00  0.00    +0.011 C 
ATOM      9  C   UNL     1       0.339  -4.374   3.954  0.00  0.00    +0.011 C 
ATOM     10  N   UNL     1      -1.290  -2.632   0.197  0.00  0.00    -0.310 N 
ATOM     11  C   UNL     1      -1.364  -1.414   1.019  0.00  0.00    +0.113 C 
ATOM     12  C   UNL     1      -2.313  -3.147  -0.590  0.00  0.00    +0.147 A 
ATOM     13  C   UNL     1      -3.585  -2.571  -0.564  0.00  0.00    +0.105 A 
ATOM     14  C   UNL     1      -4.577  -3.126  -1.374  0.00  0.00    +0.145 A 
ATOM     15  N   UNL     1      -4.275  -4.176  -2.135  0.00  0.00    -0.219 NA
ATOM     16  C   UNL     1      -3.061  -4.689  -2.130  0.00  0.00    +0.225 A 
ATOM     17  N   UNL     1      -2.095  -4.192  -1.384  0.00  0.00    -0.219 NA
ENDROOT
BRANCH  13  18
ATOM     18  N   UNL     1      -3.859  -1.463   0.255  0.00  0.00    -0.353 N 
ATOM     19  H   UNL     1      -3.178  -0.787   0.400  0.00  0.00    +0.143 HD
ATOM     20  H   UNL     1      -4.728  -1.374   0.676  0.00  0.00    +0.143 HD
ENDBRANCH  13  18
BRANCH  14  21
ATOM     21  N   UNL     1      -5.859  -2.592  -1.385  0.00  0.00    -0.323 N 
ATOM     22  H   UNL     1      -6.071  -1.827  -0.828  0.00  0.00    +0.148 HD
BRANCH  21  23
ATOM     23  C   UNL     1      -6.892  -3.184  -2.240  0.00  0.00    +0.139 C 
BRANCH  23  24
ATOM     24  C   UNL     1      -8.182  -2.425  -2.068  0.00  0.00    -0.012 A 
ATOM     25  C   UNL     1      -9.174  -2.925  -1.245  0.00  0.00    +0.006 A 
ATOM     26  C   UNL     1     -10.358  -2.228  -1.088  0.00  0.00    +0.000 A 
ATOM     27  C   UNL     1     -10.550  -1.032  -1.753  0.00  0.00    +0.001 A 
ATOM     28  C   UNL     1      -9.559  -0.531  -2.576  0.00  0.00    +0.020 A 
ATOM     29  C   UNL     1      -8.372  -1.225  -2.729  0.00  0.00    +0.046 A 
ATOM     30 CL   UNL     1      -7.124  -0.593  -3.758  0.00  0.00    -0.083 Cl
ENDBRANCH  23  24
ENDBRANCH  21  23
ENDBRANCH  14  21
TORSDOF 4
