REMARK  Name = ZINC40824556
REMARK  6 active torsions:
REMARK  status: ('A' for Active; 'I' for Inactive)
REMARK    1  A    between atoms: C_1  and  C_2
REMARK    2  A    between atoms: C_6  and  C_7
REMARK    3  A    between atoms: N_9  and  C_10
REMARK    4  A    between atoms: N_21  and  N_22
REMARK    5  A    between atoms: N_22  and  C_23
REMARK    6  A    between atoms: C_23  and  N_25
REMARK                            x       y       z     vdW  Elec       q    Type
REMARK                         _______ _______ _______ _____ _____    ______ ____
ROOT
ATOM      1  C   UNL     1      -0.006   1.502   0.010  0.00  0.00    +0.048 C 
ATOM      2  C   UNL     1       0.021  -0.004   0.002  0.00  0.00    +0.009 A 
ATOM      3  C   UNL     1       0.039  -0.839  -1.123  0.00  0.00    +0.042 A 
ATOM      4  C   UNL     1       0.060  -2.138  -0.673  0.00  0.00    +0.115 A 
ATOM      5  O   UNL     1       0.059  -2.112   0.658  0.00  0.00    -0.454 OA
ATOM      6  C   UNL     1       0.039  -0.831   1.091  0.00  0.00    +0.193 A 
ATOM      7  C   UNL     1       0.078  -3.327  -1.599  0.00  0.00    +0.075 C 
ATOM      8  C   UNL     1      -0.439  -2.905  -2.978  0.00  0.00    +0.014 C 
ATOM      9  C   UNL     1       0.330  -1.684  -3.493  0.00  0.00    +0.058 C 
ATOM     10  C   UNL     1       0.039  -0.512  -2.567  0.00  0.00    +0.070 C 
ATOM     11  N   UNL     1      -0.192   0.685  -3.010  0.00  0.00    -0.185 NA
ENDROOT
BRANCH   6  12
ATOM     12  C   UNL     1       0.034  -0.400   2.493  0.00  0.00    +0.284 C 
ATOM     13  O   UNL     1       0.013   0.786   2.765  0.00  0.00    -0.266 OA
ATOM     14  N   UNL     1       0.053  -1.318   3.480  0.00  0.00    -0.278 N 
ATOM     15  H   UNL     1      -0.011  -2.262   3.266  0.00  0.00    +0.155 HD
BRANCH  14  16
ATOM     16  C   UNL     1       0.165  -0.909   4.813  0.00  0.00    +0.048 A 
ATOM     17  C   UNL     1       0.757   0.310   5.120  0.00  0.00    +0.024 A 
ATOM     18  C   UNL     1       0.866   0.711   6.437  0.00  0.00    +0.002 A 
ATOM     19  C   UNL     1       0.388  -0.100   7.450  0.00  0.00    +0.001 A 
ATOM     20  C   UNL     1      -0.202  -1.314   7.149  0.00  0.00    +0.017 A 
ATOM     21  C   UNL     1      -0.320  -1.718   5.833  0.00  0.00    +0.039 A 
ATOM     22 BR   UNL     1      -1.134  -3.375   5.421  0.00  0.00    -0.048 Br
ENDBRANCH  14  16
ENDBRANCH   6  12
BRANCH  11  23
ATOM     23  N   UNL     1      -0.178   0.936  -4.388  0.00  0.00    -0.218 N 
ATOM     24  H   UNL     1       0.003   0.215  -5.011  0.00  0.00    +0.176 HD
BRANCH  23  25
ATOM     25  C   UNL     1      -0.418   2.180  -4.848  0.00  0.00    +0.147 C 
ATOM     26  S   UNL     1      -0.402   2.487  -6.532  0.00  0.00    -0.017 S 
BRANCH  25  27
ATOM     27  N   UNL     1      -0.670   3.182  -3.983  0.00  0.00    -0.339 N 
ATOM     28  H   UNL     1      -0.679   3.008  -3.028  0.00  0.00    +0.144 HD
ATOM     29  H   UNL     1      -0.843   4.077  -4.314  0.00  0.00    +0.144 HD
ENDBRANCH  25  27
ENDBRANCH  23  25
ENDBRANCH  11  23
TORSDOF 5
