REMARK  Name = ZINC12634153
REMARK  8 active torsions:
REMARK  status: ('A' for Active; 'I' for Inactive)
REMARK    1  A    between atoms: C_4  and  N_7
REMARK    2  A    between atoms: N_7  and  C_8
REMARK    3  A    between atoms: C_8  and  N_10
REMARK    4  A    between atoms: N_10  and  N_11
REMARK    5  A    between atoms: C_12  and  C_14
REMARK    6  A    between atoms: C_14  and  C_15
REMARK    7  A    between atoms: C_15  and  N_16
REMARK    8  A    between atoms: C_17  and  C_19
REMARK                            x       y       z     vdW  Elec       q    Type
REMARK                         _______ _______ _______ _____ _____    ______ ____
ROOT
ATOM      1  N   UNL     1       0.100  -2.718   0.190  0.00  0.00    -0.235 N 
ATOM      2  C   UNL     1       0.126  -4.063   0.284  0.00  0.00    +0.231 C 
ATOM      3  O   UNL     1      -0.911  -4.684   0.382  0.00  0.00    -0.274 OA
ATOM      4  H   UNL     1       0.930  -2.222   0.111  0.00  0.00    +0.173 HD
ENDROOT
BRANCH   1   5
ATOM      5  N   UNL     1      -1.125  -2.038   0.205  0.00  0.00    -0.246 N 
ATOM      6  H   UNL     1      -1.954  -2.535   0.284  0.00  0.00    +0.172 HD
BRANCH   5   7
ATOM      7  C   UNL     1      -1.150  -0.694   0.111  0.00  0.00    +0.151 C 
ATOM      8  S   UNL     1      -2.647   0.137   0.130  0.00  0.00    -0.017 S 
BRANCH   7   9
ATOM      9  N   UNL     1       0.002  -0.004   0.002  0.00  0.00    -0.296 N 
ATOM     10  H   UNL     1       0.844  -0.477  -0.090  0.00  0.00    +0.154 HD
BRANCH   9  14
ATOM     11  C   UNL     1      -0.051   4.161   0.060  0.00  0.00    +0.000 A 
ATOM     12  C   UNL     1      -0.848   3.449   0.937  0.00  0.00    +0.002 A 
ATOM     13  C   UNL     1      -0.833   2.068   0.920  0.00  0.00    +0.023 A 
ATOM     14  C   UNL     1      -0.016   1.395   0.021  0.00  0.00    +0.033 A 
ATOM     15  C   UNL     1       0.788   2.113  -0.855  0.00  0.00    +0.023 A 
ATOM     16  C   UNL     1       0.764   3.494  -0.837  0.00  0.00    +0.002 A 
ENDBRANCH   9  14
ENDBRANCH   7   9
ENDBRANCH   5   7
ENDBRANCH   1   5
BRANCH   2  17
ATOM     17  C   UNL     1       1.444  -4.794   0.267  0.00  0.00    +0.116 C 
BRANCH  17  18
ATOM     18  C   UNL     1       1.193  -6.298   0.387  0.00  0.00    +0.114 C 
BRANCH  18  19
ATOM     19  N   UNL     1       2.474  -7.010   0.370  0.00  0.00    -0.311 N 
ATOM     20  C   UNL     1       2.500  -8.354   0.465  0.00  0.00    +0.244 C 
ATOM     21  O   UNL     1       1.461  -8.976   0.563  0.00  0.00    -0.270 OA
ATOM     22  H   UNL     1       3.304  -6.513   0.292  0.00  0.00    +0.149 HD
BRANCH  20  23
ATOM     23  C   UNL     1       3.792  -9.071   0.448  0.00  0.00    +0.037 A 
ATOM     24  C   UNL     1       4.987  -8.359   0.330  0.00  0.00    +0.014 A 
ATOM     25  C   UNL     1       6.190  -9.034   0.321  0.00  0.00    +0.016 A 
ATOM     26  C   UNL     1       6.214 -10.415   0.417  0.00  0.00    +0.018 A 
ATOM     27  C   UNL     1       5.031 -11.127   0.530  0.00  0.00    +0.016 A 
ATOM     28  C   UNL     1       3.822 -10.463   0.545  0.00  0.00    +0.014 A 
ATOM     29 BR   UNL     1       7.867 -11.333   0.397  0.00  0.00    -0.050 Br
ENDBRANCH  20  23
ENDBRANCH  18  19
ENDBRANCH  17  18
ENDBRANCH   2  17
TORSDOF 8
