REMARK  Name = ZINC06881900
REMARK  7 active torsions:
REMARK  status: ('A' for Active; 'I' for Inactive)
REMARK    1  A    between atoms: C_1  and  C_2
REMARK    2  A    between atoms: C_2  and  C_4
REMARK    3  A    between atoms: C_2  and  N_14
REMARK    4  A    between atoms: C_7  and  S_10
REMARK    5  A    between atoms: S_10  and  N_13
REMARK    6  A    between atoms: N_14  and  S_15
REMARK    7  A    between atoms: S_15  and  C_18
REMARK                            x       y       z     vdW  Elec       q    Type
REMARK                         _______ _______ _______ _____ _____    ______ ____
ROOT
ATOM      1  N   UNL     1      -3.470   1.634   0.915  0.00  0.00    -0.183 NA
ATOM      2  H   UNL     1      -3.479   2.601   0.993  0.00  0.00    +0.149 HD
ENDROOT
BRANCH   1   3
ATOM      3  S   UNL     1      -4.537   0.723   1.796  0.00  0.00    +0.059 S 
ATOM      4  O   UNL     1      -5.301   1.633   2.575  0.00  0.00    -0.153 OA
ATOM      5  O   UNL     1      -5.136  -0.192   0.888  0.00  0.00    -0.153 OA
BRANCH   3   6
ATOM      6  C   UNL     1      -3.590  -0.239   2.928  0.00  0.00    +0.109 A 
ATOM      7  C   UNL     1      -3.144  -1.495   2.561  0.00  0.00    +0.032 A 
ATOM      8  C   UNL     1      -2.396  -2.254   3.443  0.00  0.00    +0.051 A 
ATOM      9  C   UNL     1      -2.103  -1.754   4.700  0.00  0.00    +0.162 A 
ATOM     10  C   UNL     1      -2.554  -0.495   5.071  0.00  0.00    +0.164 A 
ATOM     11  C   UNL     1      -3.299   0.264   4.184  0.00  0.00    +0.078 A 
ATOM     12  O   UNL     1      -2.259  -0.011   6.312  0.00  0.00    -0.488 OA
ATOM     13  C   UNL     1      -2.890  -0.676   7.408  0.00  0.00    +0.232 C 
ATOM     14  C   UNL     1      -2.099  -1.907   7.822  0.00  0.00    +0.082 C 
ATOM     15  C   UNL     1      -2.069  -2.968   6.734  0.00  0.00    +0.232 C 
ATOM     16  O   UNL     1      -1.369  -2.494   5.582  0.00  0.00    -0.488 OA
ENDBRANCH   3   6
ENDBRANCH   1   3
BRANCH   1  18
ATOM     17  C   UNL     1      -3.087   0.941  -1.399  0.00  0.00    +0.031 C 
ATOM     18  C   UNL     1      -2.514   0.980   0.019  0.00  0.00    +0.103 C 
BRANCH  18  19
ATOM     19  C   UNL     1      -1.219   1.751   0.017  0.00  0.00    -0.029 A 
ATOM     20  C   UNL     1      -0.013   1.076   0.008  0.00  0.00    +0.007 A 
ATOM     21  C   UNL     1       1.175   1.783   0.000  0.00  0.00    +0.029 A 
ATOM     22  C   UNL     1       1.156   3.165   0.008  0.00  0.00    +0.105 A 
ATOM     23  C   UNL     1      -0.050   3.840   0.022  0.00  0.00    +0.029 A 
ATOM     24  C   UNL     1      -1.238   3.133   0.030  0.00  0.00    +0.007 A 
BRANCH  22  25
ATOM     25  S   UNL     1       2.670   4.067  -0.003  0.00  0.00    +0.056 S 
ATOM     26  O   UNL     1       2.387   5.342   0.557  0.00  0.00    -0.153 OA
ATOM     27  O   UNL     1       3.662   3.202   0.534  0.00  0.00    -0.153 OA
BRANCH  25  28
ATOM     28  N   UNL     1       3.075   4.326  -1.587  0.00  0.00    -0.204 NA
ATOM     29  H   UNL     1       2.502   3.992  -2.295  0.00  0.00    +0.144 HD
ATOM     30  H   UNL     1       3.886   4.811  -1.808  0.00  0.00    +0.144 HD
ENDBRANCH  25  28
ENDBRANCH  22  25
ENDBRANCH  18  19
ENDBRANCH   1  18
TORSDOF 6
