REMARK  Name = ZINC00877191
REMARK  7 active torsions:
REMARK  status: ('A' for Active; 'I' for Inactive)
REMARK    1  A    between atoms: C_1  and  C_2
REMARK    2  A    between atoms: C_4  and  C_28
REMARK    3  A    between atoms: C_7  and  C_27
REMARK    4  A    between atoms: C_11  and  S_15
REMARK    5  A    between atoms: S_15  and  C_16
REMARK    6  A    between atoms: C_16  and  C_17
REMARK    7  A    between atoms: C_23  and  C_26
REMARK                            x       y       z     vdW  Elec       q    Type
REMARK                         _______ _______ _______ _____ _____    ______ ____
ROOT
ATOM      1  C   UNL     1      -2.507   0.972   0.019  0.00  0.00    +0.044 C 
ATOM      2  C   UNL     1      -1.216   1.750   0.017  0.00  0.00    -0.048 A 
ATOM      3  C   UNL     1      -1.249   3.136   0.034  0.00  0.00    +0.007 A 
ATOM      4  C   UNL     1      -0.078   3.861   0.025  0.00  0.00    -0.041 A 
ATOM      5  C   UNL     1       1.149   3.192   0.008  0.00  0.00    +0.002 A 
ATOM      6  C   UNL     1       2.413   3.936  -0.000  0.00  0.00    +0.017 A 
ATOM      7  C   UNL     1       3.580   3.253  -0.015  0.00  0.00    -0.005 A 
ATOM      8  C   UNL     1       3.581   1.838  -0.023  0.00  0.00    +0.165 A 
ATOM      9  N   UNL     1       4.557   0.949  -0.038  0.00  0.00    -0.128 NA
ATOM     10  N   UNL     1       4.065  -0.239  -0.039  0.00  0.00    -0.122 NA
ATOM     11  C   UNL     1       2.751  -0.187  -0.026  0.00  0.00    +0.197 A 
ATOM     12  N   UNL     1       2.399   1.131  -0.015  0.00  0.00    -0.270 N 
ATOM     13  C   UNL     1       1.180   1.787   0.000  0.00  0.00    +0.058 A 
ATOM     14  C   UNL     1      -0.013   1.076   0.008  0.00  0.00    +0.030 A 
ATOM     15  C   UNL     1       4.887   4.003  -0.025  0.00  0.00    +0.047 C 
ATOM     16  C   UNL     1      -0.120   5.367   0.033  0.00  0.00    +0.044 C 
ENDROOT
BRANCH  11  17
ATOM     17  S   UNL     1       1.650  -1.562  -0.023  0.00  0.00    -0.076 S 
BRANCH  17  18
ATOM     18  C   UNL     1       2.845  -2.921  -0.042  0.00  0.00    +0.173 C 
BRANCH  18  19
ATOM     19  C   UNL     1       2.110  -4.237  -0.042  0.00  0.00    +0.226 C 
ATOM     20  O   UNL     1       0.898  -4.254  -0.031  0.00  0.00    -0.275 OA
ATOM     21  N   UNL     1       2.800  -5.395  -0.055  0.00  0.00    -0.301 N 
ATOM     22  C   UNL     1       4.270  -5.390  -0.075  0.00  0.00    +0.108 C 
ATOM     23  C   UNL     1       4.754  -6.242  -1.247  0.00  0.00    +0.019 C 
ATOM     24  C   UNL     1       4.130  -7.637  -1.153  0.00  0.00    +0.006 C 
ATOM     25  C   UNL     1       2.606  -7.523  -1.233  0.00  0.00    +0.003 C 
ATOM     26  C   UNL     1       2.098  -6.685  -0.056  0.00  0.00    +0.111 C 
ATOM     27  C   UNL     1       1.985  -8.920  -1.172  0.00  0.00    +0.009 C 
ENDBRANCH  18  19
ENDBRANCH  17  18
ENDBRANCH  11  17
TORSDOF 3
