REMARK  Name = ZINC19354560
REMARK  14 active torsions:
REMARK  status: ('A' for Active; 'I' for Inactive)
REMARK    1  A    between atoms: C_1  and  C_2
REMARK    2  A    between atoms: C_2  and  C_3
REMARK    3  A    between atoms: C_3  and  C_32
REMARK    4  A    between atoms: N_6  and  N_10
REMARK    5  A    between atoms: C_11  and  C_13
REMARK    6  A    between atoms: C_13  and  S_14
REMARK    7  A    between atoms: S_14  and  C_15
REMARK    8  A    between atoms: C_18  and  C_21
REMARK    9  A    between atoms: N_19  and  N_20
REMARK   10  A    between atoms: C_21  and  O_22
REMARK   11  A    between atoms: O_22  and  C_23
REMARK   12  A    between atoms: C_26  and  C_29
REMARK   13  A    between atoms: C_29  and  C_30
REMARK   14  A    between atoms: C_29  and  C_31
REMARK                            x       y       z     vdW  Elec       q    Type
REMARK                         _______ _______ _______ _____ _____    ______ ____
ROOT
ATOM      1  C   UNL     1      -7.194  -1.023   6.292  0.00  0.00    +0.209 A 
ATOM      2  N   UNL     1      -7.464  -2.154   5.683  0.00  0.00    -0.121 NA
ATOM      3  N   UNL     1      -8.491  -2.707   6.223  0.00  0.00    -0.128 NA
ATOM      4  C   UNL     1      -8.935  -1.968   7.200  0.00  0.00    +0.189 A 
ATOM      5  N   UNL     1      -8.121  -0.871   7.283  0.00  0.00    -0.225 N 
ENDROOT
BRANCH   5   6
ATOM      6  N   UNL     1      -8.217   0.162   8.171  0.00  0.00    -0.295 N 
ATOM      7  H   UNL     1      -9.017   0.165   8.927  0.00  0.00    +0.163 HD
ATOM      8  H   UNL     1      -7.496   0.992   8.130  0.00  0.00    +0.163 HD
ENDBRANCH   5   6
BRANCH   1   9
ATOM      9  S   UNL     1      -5.880   0.086   5.907  0.00  0.00    -0.075 S 
BRANCH   9  10
ATOM     10  C   UNL     1      -5.118  -0.796   4.523  0.00  0.00    +0.174 C 
BRANCH  10  12
ATOM     11  N   UNL     1      -3.211  -0.478   2.981  0.00  0.00    -0.223 N 
ATOM     12  C   UNL     1      -3.936  -0.011   4.016  0.00  0.00    +0.240 C 
ATOM     13  O   UNL     1      -3.638   1.042   4.539  0.00  0.00    -0.273 OA
ATOM     14  H   UNL     1      -3.481  -1.433   2.506  0.00  0.00    +0.174 HD
BRANCH  11  18
ATOM     15  C   UNL     1      -0.729   1.579   1.267  0.00  0.00    +0.111 C 
ATOM     16  C   UNL     1      -2.112   0.968   1.368  0.00  0.00    +0.263 C 
ATOM     17  O   UNL     1      -3.029   1.097   0.585  0.00  0.00    -0.271 OA
ATOM     18  N   UNL     1      -2.112   0.252   2.509  0.00  0.00    -0.137 N 
ATOM     19  C   UNL     1      -0.933   0.325   3.137  0.00  0.00    +0.326 C 
ATOM     20  O   UNL     1      -0.690  -0.237   4.187  0.00  0.00    -0.251 OA
ATOM     21  N   UNL     1      -0.045   1.091   2.477  0.00  0.00    -0.284 N 
ATOM     22  C   UNL     1      -0.013   1.086   0.008  0.00  0.00    +0.041 C 
ATOM     23  H   UNL     1       0.997   1.380   2.675  0.00  0.00    +0.151 HD
BRANCH  15  25
ATOM     24  C   UNL     1       0.603   3.693   1.227  0.00  0.00    +0.006 C 
ATOM     25  C   UNL     1      -0.810   3.107   1.274  0.00  0.00    +0.032 C 
ENDBRANCH  15  25
ENDBRANCH  11  18
ENDBRANCH  10  12
ENDBRANCH   9  10
ENDBRANCH   1   9
BRANCH   4  26
ATOM     26  C   UNL     1     -10.121  -2.268   8.079  0.00  0.00    +0.306 C 
BRANCH  26  27
ATOM     27  O   UNL     1      -9.692  -3.018   9.217  0.00  0.00    -0.484 OA
BRANCH  27  28
ATOM     28  C   UNL     1     -10.646  -3.373  10.118  0.00  0.00    +0.121 A 
ATOM     29  C   UNL     1     -11.967  -3.002   9.913  0.00  0.00    +0.046 A 
ATOM     30  C   UNL     1     -12.936  -3.370  10.826  0.00  0.00    +0.007 A 
ATOM     31  C   UNL     1     -12.588  -4.096  11.950  0.00  0.00    -0.045 A 
ATOM     32  C   UNL     1     -11.271  -4.463  12.160  0.00  0.00    +0.007 A 
ATOM     33  C   UNL     1     -10.299  -4.103  11.246  0.00  0.00    +0.046 A 
BRANCH  31  34
ATOM     34  C   UNL     1     -13.646  -4.490  12.948  0.00  0.00    +0.013 C 
ATOM     35  C   UNL     1     -14.309  -3.232  13.512  0.00  0.00    +0.012 C 
ATOM     36  C   UNL     1     -14.701  -5.358  12.258  0.00  0.00    +0.012 C 
ENDBRANCH  31  34
ENDBRANCH  27  28
ENDBRANCH  26  27
ENDBRANCH   4  26
TORSDOF 10
