REMARK  Name = ZINC20292081
REMARK  8 active torsions:
REMARK  status: ('A' for Active; 'I' for Inactive)
REMARK    1  A    between atoms: C_3  and  N_28
REMARK    2  A    between atoms: C_6  and  C_7
REMARK    3  A    between atoms: N_8  and  N_9
REMARK    4  A    between atoms: C_13  and  S_16
REMARK    5  A    between atoms: N_14  and  N_15
REMARK    6  A    between atoms: S_16  and  C_17
REMARK    7  A    between atoms: C_17  and  C_18
REMARK    8  A    between atoms: N_20  and  C_21
REMARK                            x       y       z     vdW  Elec       q    Type
REMARK                         _______ _______ _______ _____ _____    ______ ____
ROOT
ATOM      1  N   UNL     1      -2.336  -2.737  -0.017  0.00  0.00    -0.204 N 
ATOM      2  C   UNL     1      -2.313  -4.073  -0.020  0.00  0.00    +0.254 A 
ATOM      3  N   UNL     1      -1.213  -4.853  -0.034  0.00  0.00    -0.109 NA
ATOM      4  N   UNL     1      -1.563  -6.090  -0.034  0.00  0.00    -0.119 NA
ATOM      5  C   UNL     1      -2.911  -6.179  -0.019  0.00  0.00    +0.210 A 
ATOM      6  N   UNL     1      -3.404  -4.905  -0.004  0.00  0.00    -0.211 N 
ATOM      7  H   UNL     1      -3.184  -2.266  -0.001  0.00  0.00    +0.177 HD
ENDROOT
BRANCH   6   8
ATOM      8  N   UNL     1      -4.719  -4.534   0.018  0.00  0.00    -0.294 N 
ATOM      9  H   UNL     1      -5.082  -4.434  -0.918  0.00  0.00    +0.163 HD
ATOM     10  H   UNL     1      -5.270  -5.189   0.552  0.00  0.00    +0.163 HD
ENDBRANCH   6   8
BRANCH   1  12
ATOM     11  C   UNL     1      -1.253  -0.758  -0.029  0.00  0.00    +0.138 C 
ATOM     12  N   UNL     1      -1.230  -2.073  -0.033  0.00  0.00    -0.188 NA
BRANCH  11  18
ATOM     13  C   UNL     1      -0.016   1.400  -0.044  0.00  0.00    +0.012 A 
ATOM     14  C   UNL     1       1.170   2.100  -0.062  0.00  0.00    +0.033 A 
ATOM     15  C   UNL     1       2.379   1.423  -0.083  0.00  0.00    +0.126 A 
ATOM     16  C   UNL     1       2.408   0.037  -0.087  0.00  0.00    +0.033 A 
ATOM     17  C   UNL     1       1.233  -0.680  -0.070  0.00  0.00    +0.012 A 
ATOM     18  C   UNL     1       0.003  -0.004  -0.048  0.00  0.00    -0.005 A 
BRANCH  15  19
ATOM     19  N   UNL     1       3.648   2.185  -0.103  0.00  0.00    +0.056 N 
ATOM     20  O   UNL     1       3.625   3.502  -0.100  0.00  0.00    -0.126 OA
ATOM     21  O   UNL     1       4.799   1.546  -0.123  0.00  0.00    -0.126 OA
ENDBRANCH  15  19
ENDBRANCH  11  18
ENDBRANCH   1  12
BRANCH   5  22
ATOM     22  S   UNL     1      -3.803  -7.579  -0.013  0.00  0.00    -0.075 S 
BRANCH  22  23
ATOM     23  C   UNL     1      -2.555  -8.896  -0.029  0.00  0.00    +0.173 C 
BRANCH  23  24
ATOM     24  C   UNL     1      -3.241 -10.238  -0.025  0.00  0.00    +0.227 C 
ATOM     25  O   UNL     1      -4.452 -10.300  -0.013  0.00  0.00    -0.275 OA
ATOM     26  N   UNL     1      -2.508 -11.369  -0.036  0.00  0.00    -0.285 N 
ATOM     27  H   UNL     1      -1.542 -11.320  -0.114  0.00  0.00    +0.155 HD
BRANCH  26  28
ATOM     28  C   UNL     1      -3.140 -12.614   0.066  0.00  0.00    +0.034 A 
ATOM     29  C   UNL     1      -2.529 -13.650   0.759  0.00  0.00    +0.026 A 
ATOM     30  C   UNL     1      -3.154 -14.877   0.858  0.00  0.00    +0.040 A 
ATOM     31  C   UNL     1      -4.390 -15.075   0.266  0.00  0.00    +0.124 A 
ATOM     32  C   UNL     1      -5.002 -14.043  -0.426  0.00  0.00    +0.040 A 
ATOM     33  C   UNL     1      -4.383 -12.812  -0.522  0.00  0.00    +0.026 A 
ATOM     34  F   UNL     1      -5.000 -16.277   0.363  0.00  0.00    -0.205 F 
ENDBRANCH  26  28
ENDBRANCH  23  24
ENDBRANCH  22  23
ENDBRANCH   5  22
TORSDOF 8
