REMARK  Name = ZINC16575728
REMARK  12 active torsions:
REMARK  status: ('A' for Active; 'I' for Inactive)
REMARK    1  A    between atoms: C_1  and  C_2
REMARK    2  A    between atoms: C_2  and  C_3
REMARK    3  A    between atoms: C_2  and  C_4
REMARK    4  A    between atoms: C_7  and  C_10
REMARK    5  A    between atoms: C_11  and  C_12
REMARK    6  A    between atoms: N_14  and  C_15
REMARK    7  A    between atoms: C_15  and  N_17
REMARK    8  A    between atoms: N_17  and  C_18
REMARK    9  A    between atoms: C_21  and  N_24
REMARK   10  A    between atoms: N_24  and  C_25
REMARK   11  A    between atoms: C_25  and  N_27
REMARK   12  A    between atoms: C_28  and  C_30
REMARK                            x       y       z     vdW  Elec       q    Type
REMARK                         _______ _______ _______ _____ _____    ______ ____
ROOT
ATOM      1  C   UNL     1      -4.918   4.701  -1.358  0.00  0.00    +0.141 C 
ATOM      2  S   UNL     1      -3.523   5.667  -1.589  0.00  0.00    -0.018 S 
ENDROOT
BRANCH   1   5
ATOM      3  C   UNL     1      -6.257   6.452  -2.127  0.00  0.00    +0.242 C 
ATOM      4  O   UNL     1      -5.266   7.138  -2.291  0.00  0.00    -0.270 OA
ATOM      5  N   UNL     1      -6.137   5.196  -1.651  0.00  0.00    -0.264 N 
ATOM      6  H   UNL     1      -6.927   4.649  -1.520  0.00  0.00    +0.157 HD
BRANCH   3   8
ATOM      7  C   UNL     1      -7.701   8.246  -2.921  0.00  0.00    +0.013 C 
ATOM      8  C   UNL     1      -7.580   6.989  -2.445  0.00  0.00    +0.068 C 
BRANCH   7  12
ATOM      9  C   UNL     1     -11.537   9.804  -3.845  0.00  0.00    -0.045 A 
ATOM     10  C   UNL     1     -10.412  10.588  -4.032  0.00  0.00    +0.004 A 
ATOM     11  C   UNL     1      -9.161  10.089  -3.734  0.00  0.00    +0.008 A 
ATOM     12  C   UNL     1      -9.032   8.787  -3.241  0.00  0.00    -0.025 A 
ATOM     13  C   UNL     1     -10.173   7.999  -3.058  0.00  0.00    +0.008 A 
ATOM     14  C   UNL     1     -11.417   8.514  -3.357  0.00  0.00    +0.004 A 
BRANCH   9  16
ATOM     15  C   UNL     1     -13.556   9.491  -5.249  0.00  0.00    +0.012 C 
ATOM     16  C   UNL     1     -12.899  10.358  -4.173  0.00  0.00    +0.013 C 
ATOM     17  C   UNL     1     -13.769  10.354  -2.914  0.00  0.00    +0.012 C 
ENDBRANCH   9  16
ENDBRANCH   7  12
ENDBRANCH   3   8
ENDBRANCH   1   5
BRANCH   1  18
ATOM     18  N   UNL     1      -4.797   3.446  -0.883  0.00  0.00    -0.297 N 
ATOM     19  H   UNL     1      -5.590   2.920  -0.694  0.00  0.00    +0.154 HD
BRANCH  18  20
ATOM     20  C   UNL     1      -3.527   2.900  -0.662  0.00  0.00    +0.033 A 
ATOM     21  C   UNL     1      -2.551   3.649  -0.017  0.00  0.00    +0.025 A 
ATOM     22  C   UNL     1      -1.299   3.111   0.201  0.00  0.00    +0.025 A 
ATOM     23  C   UNL     1      -1.014   1.820  -0.224  0.00  0.00    +0.033 A 
ATOM     24  C   UNL     1      -1.988   1.072  -0.874  0.00  0.00    +0.025 A 
ATOM     25  C   UNL     1      -3.242   1.609  -1.087  0.00  0.00    +0.025 A 
BRANCH  23  26
ATOM     26  N   UNL     1       0.256   1.274  -0.003  0.00  0.00    -0.297 N 
ATOM     27  H   UNL     1       0.713   0.802  -0.717  0.00  0.00    +0.154 HD
BRANCH  26  28
ATOM     28  C   UNL     1       0.847   1.408   1.201  0.00  0.00    +0.141 C 
ATOM     29  S   UNL     1       0.090   2.332   2.428  0.00  0.00    -0.018 S 
BRANCH  28  30
ATOM     30  N   UNL     1       2.034   0.815   1.439  0.00  0.00    -0.268 N 
ATOM     31  C   UNL     1       2.624   0.950   2.643  0.00  0.00    +0.215 C 
ATOM     32  O   UNL     1       2.088   1.604   3.512  0.00  0.00    -0.276 OA
ATOM     33  C   UNL     1       3.951   0.287   2.910  0.00  0.00    +0.109 C 
ATOM     34  H   UNL     1       2.462   0.291   0.745  0.00  0.00    +0.156 HD
ENDBRANCH  28  30
ENDBRANCH  26  28
ENDBRANCH  23  26
ENDBRANCH  18  20
ENDBRANCH   1  18
TORSDOF 9
