REMARK  Name = ZINC40597696
REMARK  5 active torsions:
REMARK  status: ('A' for Active; 'I' for Inactive)
REMARK    1  A    between atoms: C_1  and  N_2
REMARK    2  A    between atoms: C_5  and  C_8
REMARK    3  A    between atoms: C_8  and  N_9
REMARK    4  A    between atoms: N_12  and  C_13
REMARK    5  A    between atoms: C_18  and  C_19
REMARK                            x       y       z     vdW  Elec       q    Type
REMARK                         _______ _______ _______ _____ _____    ______ ____
ROOT
ATOM      1  N   UNL     1       1.728  -4.189   1.114  0.00  0.00    -0.299 N 
ATOM      2  C   UNL     1       1.461  -5.380   1.684  0.00  0.00    +0.304 C 
ATOM      3  O   UNL     1       0.580  -5.472   2.518  0.00  0.00    -0.253 OA
ATOM      4  N   UNL     1       2.170  -6.471   1.331  0.00  0.00    -0.269 N 
ATOM      5  H   UNL     1       2.430  -4.116   0.449  0.00  0.00    +0.150 HD
ATOM      6  H   UNL     1       2.828  -6.412   0.621  0.00  0.00    +0.156 HD
ENDROOT
BRANCH   4   7
ATOM      7  C   UNL     1       1.959  -7.680   1.985  0.00  0.00    +0.050 A 
ATOM      8  C   UNL     1       0.685  -8.030   2.411  0.00  0.00    +0.039 A 
ATOM      9  C   UNL     1       0.477  -9.231   3.060  0.00  0.00    +0.020 A 
ATOM     10  C   UNL     1       1.536 -10.097   3.292  0.00  0.00    +0.016 A 
ATOM     11  C   UNL     1       2.807  -9.768   2.877  0.00  0.00    +0.018 A 
ATOM     12  C   UNL     1       3.033  -8.557   2.212  0.00  0.00    +0.084 A 
ATOM     13 BR   UNL     1      -1.262  -9.699   3.637  0.00  0.00    -0.050 Br
BRANCH  12  14
ATOM     14  C   UNL     1       4.386  -8.202   1.760  0.00  0.00    +0.388 C 
ATOM     15  O   UNL     1       5.300  -9.008   1.872  0.00  0.00    -0.241 OA
ATOM     16  O   UNL     1       4.599  -7.100   1.273  0.00  0.00    -0.241 OA
ENDBRANCH  12  14
ENDBRANCH   4   7
BRANCH   1  17
ATOM     17  C   UNL     1       0.957  -3.004   1.499  0.00  0.00    +0.107 C 
BRANCH  17  22
ATOM     18  C   UNL     1      -0.052   1.440  -0.060  0.00  0.00    -0.096 C 
ATOM     19  N   UNL     1      -0.029  -0.029  -0.053  0.00  0.00    +0.378 N 
ATOM     20  C   UNL     1       0.728  -0.535  -1.227  0.00  0.00    -0.079 C 
ATOM     21  C   UNL     1       1.141  -1.964  -0.794  0.00  0.00    -0.016 C 
ATOM     22  C   UNL     1       1.456  -1.792   0.709  0.00  0.00    -0.012 C 
ATOM     23  C   UNL     1       0.697  -0.523   1.137  0.00  0.00    -0.074 C 
ATOM     24  H   UNL     1      -0.970  -0.393  -0.062  0.00  0.00    -0.082 HD
ENDBRANCH  17  22
ENDBRANCH   1  17
TORSDOF 4
