REMARK  Name = ZINC14467993
REMARK  7 active torsions:
REMARK  status: ('A' for Active; 'I' for Inactive)
REMARK    1  A    between atoms: C_1  and  C_2
REMARK    2  A    between atoms: C_2  and  C_3
REMARK    3  A    between atoms: C_3  and  C_5
REMARK    4  A    between atoms: C_3  and  N_6
REMARK    5  A    between atoms: C_7  and  C_9
REMARK    6  A    between atoms: C_22  and  C_25
REMARK    7  A    between atoms: C_30  and  O_31
REMARK                            x       y       z     vdW  Elec       q    Type
REMARK                         _______ _______ _______ _____ _____    ______ ____
ROOT
ATOM      1  C   UNL     1       4.821   0.580   1.912  0.00  0.00    +0.037 A 
ATOM      2  C   UNL     1       5.087   0.572   0.539  0.00  0.00    +0.015 A 
ATOM      3  C   UNL     1       4.655   1.618  -0.242  0.00  0.00    +0.024 A 
ATOM      4  C   UNL     1       3.957   2.679   0.330  0.00  0.00    +0.031 A 
ATOM      5  C   UNL     1       3.689   2.698   1.693  0.00  0.00    -0.019 A 
ATOM      6  C   UNL     1       4.123   1.646   2.480  0.00  0.00    +0.019 A 
ATOM      7  C   UNL     1       2.947   3.821   2.347  0.00  0.00    +0.049 C 
ATOM      8  C   UNL     1       1.531   3.420   2.689  0.00  0.00    -0.023 C 
ATOM      9  C   UNL     1       0.717   4.431   2.514  0.00  0.00    -0.030 C 
ATOM     10  C   UNL     1       1.482   5.651   2.037  0.00  0.00    +0.033 C 
ATOM     11  C   UNL     1       2.781   5.046   1.428  0.00  0.00    +0.029 C 
ATOM     12  C   UNL     1       2.447   4.590   0.005  0.00  0.00    +0.109 C 
ATOM     13  N   UNL     1       3.528   3.726  -0.482  0.00  0.00    -0.336 N 
ATOM     14  H   UNL     1       3.934   3.881  -1.349  0.00  0.00    +0.147 HD
ENDROOT
BRANCH  12  15
ATOM     15  C   UNL     1       1.151   3.821   0.012  0.00  0.00    +0.017 A 
ATOM     16  C   UNL     1       1.160   2.454   0.215  0.00  0.00    +0.029 A 
ATOM     17  C   UNL     1      -0.029   1.747   0.223  0.00  0.00    +0.043 A 
ATOM     18  C   UNL     1      -1.229   2.406   0.021  0.00  0.00    +0.043 A 
ATOM     19  C   UNL     1      -1.243   3.773  -0.177  0.00  0.00    +0.084 A 
ATOM     20  C   UNL     1      -0.050   4.484  -0.185  0.00  0.00    +0.140 A 
ATOM     21 CL   UNL     1      -2.749   4.601  -0.423  0.00  0.00    -0.080 Cl
ATOM     22 CL   UNL     1      -0.015   0.030   0.480  0.00  0.00    -0.083 Cl
BRANCH  20  23
ATOM     23  O   UNL     1      -0.060   5.829  -0.385  0.00  0.00    -0.505 OA
ATOM     24  H   UNL     1       0.009   6.089  -1.314  0.00  0.00    +0.292 HD
ENDBRANCH  20  23
ENDBRANCH  12  15
BRANCH   1  26
ATOM     25  N   UNL     1       5.955  -1.566   2.210  0.00  0.00    -0.309 N 
ATOM     26  C   UNL     1       5.279  -0.537   2.759  0.00  0.00    +0.244 C 
ATOM     27  O   UNL     1       5.048  -0.529   3.953  0.00  0.00    -0.270 OA
ATOM     28  H   UNL     1       6.139  -1.572   1.258  0.00  0.00    +0.149 HD
BRANCH  25  29
ATOM     29  C   UNL     1       6.410  -2.676   3.052  0.00  0.00    +0.070 C 
ATOM     30  C   UNL     1       5.278  -3.693   3.210  0.00  0.00    +0.028 C 
BRANCH  29  32
ATOM     31  C   UNL     1       8.789  -2.370   2.352  0.00  0.00    +0.005 C 
ATOM     32  C   UNL     1       7.616  -3.352   2.396  0.00  0.00    +0.018 C 
ENDBRANCH  29  32
ENDBRANCH  25  29
ENDBRANCH   1  26
TORSDOF 5
