REMARK  Name = ZINC20832489
REMARK  10 active torsions:
REMARK  status: ('A' for Active; 'I' for Inactive)
REMARK    1  A    between atoms: C_1  and  C_2
REMARK    2  A    between atoms: C_2  and  C_3
REMARK    3  A    between atoms: C_2  and  S_4
REMARK    4  A    between atoms: S_4  and  C_5
REMARK    5  A    between atoms: C_11  and  C_13
REMARK    6  A    between atoms: C_13  and  S_14
REMARK    7  A    between atoms: S_14  and  C_15
REMARK    8  A    between atoms: N_20  and  N_21
REMARK    9  A    between atoms: C_22  and  C_23
REMARK   10  A    between atoms: C_28  and  O_29
REMARK                            x       y       z     vdW  Elec       q    Type
REMARK                         _______ _______ _______ _____ _____    ______ ____
ROOT
ATOM      1  C   UNL     1      -6.982   0.243   0.068  0.00  0.00    +0.211 A 
ATOM      2  N   UNL     1      -6.051  -0.757   0.053  0.00  0.00    -0.186 NA
ATOM      3  C   UNL     1      -4.811  -0.180   0.045  0.00  0.00    +0.232 A 
ATOM      4  N   UNL     1      -4.970   1.122   0.059  0.00  0.00    -0.245 N 
ATOM      5  N   UNL     1      -6.345   1.390   0.069  0.00  0.00    -0.144 NA
ATOM      6  N   UNL     1      -3.598  -0.853   0.030  0.00  0.00    -0.205 N 
ATOM      7  H   UNL     1      -3.580  -1.953   0.025  0.00  0.00    +0.177 HD
ATOM      8  H   UNL     1      -4.091   1.783   0.062  0.00  0.00    +0.192 HD
ENDROOT
BRANCH   6   9
ATOM      9  N   UNL     1      -2.397  -0.132   0.023  0.00  0.00    -0.187 NA
ATOM     10  C   UNL     1      -1.262  -0.762   0.009  0.00  0.00    +0.142 C 
BRANCH  10  11
ATOM     11  C   UNL     1       0.002  -0.004   0.002  0.00  0.00    +0.036 A 
ATOM     12  C   UNL     1       1.225  -0.678  -0.013  0.00  0.00    +0.013 A 
ATOM     13  C   UNL     1       2.404   0.038  -0.021  0.00  0.00    +0.001 A 
ATOM     14  C   UNL     1       2.381   1.422  -0.013  0.00  0.00    +0.004 A 
ATOM     15  C   UNL     1       1.176   2.100   0.002  0.00  0.00    +0.046 A 
ATOM     16  C   UNL     1      -0.017   1.397   0.010  0.00  0.00    +0.125 A 
BRANCH  16  17
ATOM     17  O   UNL     1      -1.201   2.063   0.019  0.00  0.00    -0.506 OA
ATOM     18  H   UNL     1      -1.213   3.163   0.025  0.00  0.00    +0.292 HD
ENDBRANCH  16  17
ENDBRANCH  10  11
ENDBRANCH   6   9
BRANCH   1  19
ATOM     19  S   UNL     1      -8.731   0.029   0.082  0.00  0.00    -0.075 S 
BRANCH  19  20
ATOM     20  C   UNL     1      -9.380   1.723   0.098  0.00  0.00    +0.173 C 
BRANCH  20  27
ATOM     21  C   UNL     1     -15.628   3.100   0.164  0.00  0.00    +0.160 A 
ATOM     22  N   UNL     1     -15.059   1.903   0.152  0.00  0.00    -0.133 NA
ATOM     23  N   UNL     1     -13.806   1.761   0.139  0.00  0.00    -0.125 NA
ATOM     24  C   UNL     1     -12.982   2.796   0.138  0.00  0.00    +0.189 A 
ATOM     25  S   UNL     1     -14.169   4.137   0.164  0.00  0.00    -0.024 S 
ATOM     26  N   UNL     1     -11.590   2.833   0.125  0.00  0.00    -0.263 N 
ATOM     27  C   UNL     1     -10.886   1.683   0.112  0.00  0.00    +0.229 C 
ATOM     28  O   UNL     1     -11.465   0.617   0.111  0.00  0.00    -0.275 OA
ATOM     29  H   UNL     1     -11.065   3.799   0.126  0.00  0.00    +0.157 HD
BRANCH  21  30
ATOM     30  S   UNL     1     -17.333   3.543   0.183  0.00  0.00    -0.094 S 
BRANCH  30  32
ATOM     31  C   UNL     1     -17.897   1.203   1.482  0.00  0.00    +0.019 C 
ATOM     32  C   UNL     1     -18.201   1.950   0.182  0.00  0.00    +0.047 C 
ATOM     33  C   UNL     1     -19.708   2.191   0.073  0.00  0.00    +0.019 C 
ENDBRANCH  30  32
ENDBRANCH  21  30
ENDBRANCH  20  27
ENDBRANCH  19  20
ENDBRANCH   1  19
TORSDOF 8
