REMARK  Name = ZINC04263340
REMARK  8 active torsions:
REMARK  status: ('A' for Active; 'I' for Inactive)
REMARK    1  A    between atoms: C_1  and  O_2
REMARK    2  A    between atoms: O_2  and  C_3
REMARK    3  A    between atoms: C_5  and  C_10
REMARK    4  A    between atoms: C_8  and  O_9
REMARK    5  A    between atoms: C_12  and  C_24
REMARK    6  A    between atoms: C_14  and  C_19
REMARK    7  A    between atoms: C_14  and  O_23
REMARK    8  A    between atoms: C_24  and  C_26
REMARK                            x       y       z     vdW  Elec       q    Type
REMARK                         _______ _______ _______ _____ _____    ______ ____
ROOT
ATOM      1  C   UNL     1       2.185   1.371   1.144  0.00  0.00    +0.120 C 
ATOM      2  C   UNL     1       1.600   1.180  -0.260  0.00  0.00    +0.144 C 
ATOM      3  C   UNL     1       0.157   0.685  -0.123  0.00  0.00    +0.243 C 
ATOM      4  N   UNL     1       0.141  -0.530   0.693  0.00  0.00    -0.264 N 
ATOM      5  C   UNL     1       1.065  -0.746   1.641  0.00  0.00    +0.302 C 
ATOM      6  O   UNL     1       1.000  -1.767   2.298  0.00  0.00    -0.253 OA
ATOM      7  N   UNL     1       2.059   0.119   1.891  0.00  0.00    -0.292 N 
ATOM      8  H   UNL     1      -0.553  -1.192   0.546  0.00  0.00    +0.153 HD
ATOM      9  H   UNL     1       2.707  -0.089   2.582  0.00  0.00    +0.151 HD
ENDROOT
BRANCH   1  12
ATOM     10  C   UNL     1       5.340   3.430   0.853  0.00  0.00    +0.162 A 
ATOM     11  C   UNL     1       4.002   3.081   0.952  0.00  0.00    +0.055 A 
ATOM     12  C   UNL     1       3.640   1.749   1.035  0.00  0.00    -0.023 A 
ATOM     13  C   UNL     1       4.610   0.764   1.025  0.00  0.00    +0.009 A 
ATOM     14  C   UNL     1       5.945   1.105   0.920  0.00  0.00    +0.049 A 
ATOM     15  C   UNL     1       6.315   2.438   0.836  0.00  0.00    +0.158 A 
BRANCH  10  17
ATOM     16  C   UNL     1       4.643   5.703   0.792  0.00  0.00    +0.277 C 
ATOM     17  O   UNL     1       5.698   4.739   0.770  0.00  0.00    -0.491 OA
ENDBRANCH  10  17
BRANCH  15  18
ATOM     18  O   UNL     1       7.629   2.775   0.738  0.00  0.00    -0.503 OA
ATOM     19  H   UNL     1       8.064   2.913   1.591  0.00  0.00    +0.292 HD
ENDBRANCH  15  18
ENDBRANCH   1  12
BRANCH   3  20
ATOM     20  C   UNL     1      -0.693   1.765   0.549  0.00  0.00    +0.436 C 
ATOM     21  F   UNL     1      -0.170   2.048   1.816  0.00  0.00    -0.166 F 
ATOM     22  F   UNL     1      -0.677   2.925  -0.232  0.00  0.00    -0.166 F 
ATOM     23  F   UNL     1      -2.009   1.308   0.680  0.00  0.00    -0.166 F 
ENDBRANCH   3  20
BRANCH   3  24
ATOM     24  O   UNL     1      -0.374   0.396  -1.419  0.00  0.00    -0.364 OA
ATOM     25  H   UNL     1      -1.285   0.072  -1.407  0.00  0.00    +0.212 HD
ENDBRANCH   3  24
BRANCH   2  26
ATOM     26  C   UNL     1       2.416   0.161  -1.012  0.00  0.00    +0.173 C 
ATOM     27  O   UNL     1       2.905  -0.779  -0.423  0.00  0.00    -0.292 OA
BRANCH  26  28
ATOM     28  C   UNL     1       2.619   0.306  -2.463  0.00  0.00    +0.018 A 
ATOM     29  C   UNL     1       2.051   1.386  -3.147  0.00  0.00    +0.011 A 
ATOM     30  C   UNL     1       2.251   1.519  -4.505  0.00  0.00    +0.001 A 
ATOM     31  C   UNL     1       3.001   0.580  -5.193  0.00  0.00    +0.000 A 
ATOM     32  C   UNL     1       3.560  -0.494  -4.524  0.00  0.00    +0.001 A 
ATOM     33  C   UNL     1       3.375  -0.638  -3.165  0.00  0.00    +0.011 A 
ENDBRANCH  26  28
ENDBRANCH   2  26
TORSDOF 7
