REMARK  Name = ZINC59941823
REMARK  6 active torsions:
REMARK  status: ('A' for Active; 'I' for Inactive)
REMARK    1  A    between atoms: C_4  and  N_7
REMARK    2  A    between atoms: C_8  and  N_29
REMARK    3  A    between atoms: C_13  and  S_14
REMARK    4  A    between atoms: S_14  and  C_15
REMARK    5  A    between atoms: C_15  and  C_16
REMARK    6  A    between atoms: N_18  and  C_19
REMARK                            x       y       z     vdW  Elec       q    Type
REMARK                         _______ _______ _______ _____ _____    ______ ____
ROOT
ATOM      1  N   UNL     1       3.787  -1.072   0.062  0.00  0.00    -0.277 N 
ATOM      2  C   UNL     1       3.934  -2.436   0.067  0.00  0.00    +0.108 A 
ATOM      3  C   UNL     1       5.184  -2.969  -0.065  0.00  0.00    +0.114 A 
ATOM      4  C   UNL     1       6.285  -2.098  -0.202  0.00  0.00    +0.276 A 
ATOM      5  O   UNL     1       7.414  -2.551  -0.321  0.00  0.00    -0.266 OA
ATOM      6  N   UNL     1       6.088  -0.771  -0.200  0.00  0.00    -0.185 NA
ATOM      7  C   UNL     1       4.879  -0.265  -0.078  0.00  0.00    +0.179 A 
ENDROOT
BRANCH   1  11
ATOM      8  C   UNL     1      -0.006   0.610   0.458  0.00  0.00    +0.000 A 
ATOM      9  C   UNL     1       0.550   0.450  -0.797  0.00  0.00    +0.002 A 
ATOM     10  C   UNL     1       1.807  -0.107  -0.932  0.00  0.00    +0.026 A 
ATOM     11  C   UNL     1       2.512  -0.506   0.195  0.00  0.00    +0.050 A 
ATOM     12  C   UNL     1       1.952  -0.344   1.455  0.00  0.00    +0.026 A 
ATOM     13  C   UNL     1       0.694   0.213   1.583  0.00  0.00    +0.002 A 
ENDBRANCH   1  11
BRANCH   2  14
ATOM     14  N   UNL     1       2.838  -3.256   0.203  0.00  0.00    -0.344 N 
ATOM     15  H   UNL     1       1.945  -2.876   0.205  0.00  0.00    +0.144 HD
ATOM     16  H   UNL     1       2.957  -4.214   0.296  0.00  0.00    +0.144 HD
ENDBRANCH   2  14
BRANCH   7  17
ATOM     17  S   UNL     1       4.667   1.484  -0.089  0.00  0.00    -0.078 S 
BRANCH  17  18
ATOM     18  C   UNL     1       6.350   2.129  -0.293  0.00  0.00    +0.173 C 
BRANCH  18  19
ATOM     19  C   UNL     1       6.311   3.635  -0.319  0.00  0.00    +0.228 C 
ATOM     20  O   UNL     1       5.252   4.217  -0.210  0.00  0.00    -0.275 OA
ATOM     21  N   UNL     1       7.453   4.337  -0.462  0.00  0.00    -0.284 N 
ATOM     22  H   UNL     1       8.292   3.872  -0.608  0.00  0.00    +0.155 HD
BRANCH  21  23
ATOM     23  C   UNL     1       7.428   5.731  -0.402  0.00  0.00    +0.041 A 
ATOM     24  C   UNL     1       6.391   6.381   0.231  0.00  0.00    +0.024 A 
ATOM     25  C   UNL     1       6.356   7.771   0.297  0.00  0.00    +0.002 A 
ATOM     26  C   UNL     1       7.343   8.526  -0.260  0.00  0.00    +0.008 A 
ATOM     27  C   UNL     1       8.419   7.902  -0.915  0.00  0.00    -0.016 A 
ATOM     28  C   UNL     1       8.468   6.488  -0.984  0.00  0.00    +0.003 A 
ATOM     29  C   UNL     1       9.545   5.866  -1.634  0.00  0.00    +0.010 A 
ATOM     30  C   UNL     1      10.530   6.627  -2.184  0.00  0.00    +0.001 A 
ATOM     31  C   UNL     1      10.487   8.018  -2.112  0.00  0.00    +0.001 A 
ATOM     32  C   UNL     1       9.452   8.655  -1.499  0.00  0.00    +0.008 A 
ENDBRANCH  21  23
ENDBRANCH  18  19
ENDBRANCH  17  18
ENDBRANCH   7  17
TORSDOF 6
