REMARK  Name = ZINC61112901
REMARK  4 active torsions:
REMARK  status: ('A' for Active; 'I' for Inactive)
REMARK    1  A    between atoms: C_4  and  N_10
REMARK    2  A    between atoms: C_5  and  C_7
REMARK    3  A    between atoms: C_11  and  C_13
REMARK    4  A    between atoms: C_13  and  N_14
REMARK                            x       y       z     vdW  Elec       q    Type
REMARK                         _______ _______ _______ _____ _____    ______ ____
ROOT
ATOM      1  N   UNL     1       3.496  -0.527  -0.058  0.00  0.00    -0.284 N 
ATOM      2  C   UNL     1       4.606   0.223  -0.207  0.00  0.00    +0.235 C 
ATOM      3  O   UNL     1       4.522   1.433  -0.225  0.00  0.00    -0.274 OA
ATOM      4  H   UNL     1       3.570  -1.489   0.038  0.00  0.00    +0.155 HD
ENDROOT
BRANCH   1   8
ATOM      5  C   UNL     1      -0.257   1.292  -0.007  0.00  0.00    +0.001 A 
ATOM      6  C   UNL     1       0.807   1.902  -0.652  0.00  0.00    +0.002 A 
ATOM      7  C   UNL     1       2.050   1.303  -0.670  0.00  0.00    +0.024 A 
ATOM      8  C   UNL     1       2.242   0.081  -0.040  0.00  0.00    +0.046 A 
ATOM      9  C   UNL     1       1.168  -0.540   0.614  0.00  0.00    +0.058 A 
ATOM     10  C   UNL     1      -0.085   0.079   0.624  0.00  0.00    +0.015 A 
BRANCH   9  11
ATOM     11  C   UNL     1       1.359  -1.839   1.288  0.00  0.00    +0.243 C 
ATOM     12  O   UNL     1       2.469  -2.328   1.360  0.00  0.00    -0.270 OA
ATOM     13  N   UNL     1       0.302  -2.482   1.823  0.00  0.00    -0.325 N 
ATOM     14  H   UNL     1      -0.584  -2.092   1.765  0.00  0.00    +0.145 HD
ATOM     15  H   UNL     1       0.428  -3.336   2.265  0.00  0.00    +0.145 HD
ENDBRANCH   9  11
ENDBRANCH   1   8
BRANCH   2  16
ATOM     16  C   UNL     1       5.950  -0.442  -0.353  0.00  0.00    +0.214 C 
BRANCH  16  17
ATOM     17  N   UNL     1       6.988   0.582  -0.501  0.00  0.00    -0.215 N 
ATOM     18  C   UNL     1       7.388   1.090  -1.685  0.00  0.00    +0.247 C 
ATOM     19  O   UNL     1       6.975   0.798  -2.786  0.00  0.00    -0.273 OA
ATOM     20  C   UNL     1       8.461   2.100  -1.348  0.00  0.00    +0.113 C 
ATOM     21  C   UNL     1       8.042   3.493  -1.805  0.00  0.00    +0.035 C 
ATOM     22  C   UNL     1       9.128   4.505  -1.428  0.00  0.00    +0.003 C 
ATOM     23  C   UNL     1      10.447   4.106  -2.092  0.00  0.00    +0.000 C 
ATOM     24  C   UNL     1      10.866   2.717  -1.606  0.00  0.00    +0.003 C 
ATOM     25  C   UNL     1       9.787   1.699  -1.984  0.00  0.00    +0.035 C 
ATOM     26  N   UNL     1       8.555   2.046   0.117  0.00  0.00    -0.285 N 
ATOM     27  C   UNL     1       7.652   1.133   0.522  0.00  0.00    +0.310 C 
ATOM     28  O   UNL     1       7.463   0.841   1.687  0.00  0.00    -0.252 OA
ATOM     29  H   UNL     1       9.149   2.566   0.680  0.00  0.00    +0.151 HD
ENDBRANCH  16  17
ENDBRANCH   2  16
TORSDOF 4
