REMARK  Name = ZINC22942313
REMARK  0 active torsions:
REMARK  status: ('A' for Active; 'I' for Inactive)
REMARK                            x       y       z     vdW  Elec       q    Type
REMARK                         _______ _______ _______ _____ _____    ______ ____
ROOT
ATOM      1  C   UNL     1      -0.013   1.086   0.008  0.00  0.00    +0.179 C 
ATOM      2  C   UNL     1      -0.908   1.567  -1.137  0.00  0.00    +0.179 C 
ATOM      3  N   UNL     1      -0.603   2.931  -1.608  0.00  0.00    -0.275 NA
ATOM      4  C   UNL     1       0.829   3.094  -1.754  0.00  0.00    +0.179 C 
ATOM      5  C   UNL     1       1.411   2.969  -0.312  0.00  0.00    +0.179 C 
ATOM      6  N   UNL     1       1.364   1.571  -0.003  0.00  0.00    -0.275 NA
ATOM      7  N   UNL     1       2.707   3.606  -0.500  0.00  0.00    -0.281 N 
ATOM      8  C   UNL     1       2.536   4.534  -1.477  0.00  0.00    +0.302 C 
ATOM      9  O   UNL     1       3.351   5.399  -1.732  0.00  0.00    -0.253 OA
ATOM     10  N   UNL     1       1.357   4.390  -2.153  0.00  0.00    -0.281 N 
ATOM     11  N   UNL     1      -2.234   1.616  -0.469  0.00  0.00    -0.281 N 
ATOM     12  C   UNL     1      -2.023   1.712   0.856  0.00  0.00    +0.302 C 
ATOM     13  O   UNL     1      -2.908   1.937   1.658  0.00  0.00    -0.253 OA
ATOM     14  N   UNL     1      -0.747   1.534   1.199  0.00  0.00    -0.281 N 
ATOM     15  H   UNL     1      -1.080   3.130  -2.474  0.00  0.00    +0.126 HD
ATOM     16  H   UNL     1       1.824   1.373   0.874  0.00  0.00    +0.126 HD
ATOM     17  H   UNL     1       3.528   3.408  -0.023  0.00  0.00    +0.152 HD
ATOM     18  H   UNL     1       0.951   5.020  -2.768  0.00  0.00    +0.152 HD
ATOM     19  H   UNL     1      -3.098   1.585  -0.909  0.00  0.00    +0.152 HD
ATOM     20  H   UNL     1      -0.376   1.676   2.084  0.00  0.00    +0.152 HD
ENDROOT
TORSDOF 0
