REMARK  Name = ZINC63416367
REMARK  11 active torsions:
REMARK  status: ('A' for Active; 'I' for Inactive)
REMARK    1  A    between atoms: C_1  and  O_2
REMARK    2  A    between atoms: O_2  and  C_3
REMARK    3  A    between atoms: C_6  and  C_9
REMARK    4  A    between atoms: C_9  and  C_11
REMARK    5  A    between atoms: C_11  and  O_12
REMARK    6  A    between atoms: O_12  and  C_13
REMARK    7  A    between atoms: C_13  and  C_15
REMARK    8  A    between atoms: C_15  and  C_17
REMARK    9  A    between atoms: C_15  and  N_27
REMARK   10  A    between atoms: C_17  and  C_18
REMARK   11  A    between atoms: C_28  and  C_30
REMARK                            x       y       z     vdW  Elec       q    Type
REMARK                         _______ _______ _______ _____ _____    ______ ____
ROOT
ATOM      1  C   UNL     1       4.062  -6.181  -7.087  0.00  0.00    +0.186 C 
ENDROOT
BRANCH   1   2
ATOM      2  N   UNL     1       4.077  -7.646  -7.098  0.00  0.00    -0.302 N 
ATOM      3  C   UNL     1       5.035  -8.306  -7.779  0.00  0.00    +0.220 C 
ATOM      4  O   UNL     1       5.884  -7.686  -8.384  0.00  0.00    -0.275 OA
ATOM      5  H   UNL     1       3.397  -8.142  -6.615  0.00  0.00    +0.150 HD
BRANCH   3   6
ATOM      6  C   UNL     1       5.050  -9.812  -7.791  0.00  0.00    +0.048 C 
ATOM      7  C   UNL     1       3.743 -10.331  -8.394  0.00  0.00    +0.019 C 
ATOM      8  C   UNL     1       3.759 -11.861  -8.406  0.00  0.00    -0.009 C 
ATOM      9  C   UNL     1       4.939 -12.353  -9.246  0.00  0.00    +0.007 C 
ATOM     10  C   UNL     1       6.246 -11.834  -8.642  0.00  0.00    -0.009 C 
ATOM     11  C   UNL     1       6.230 -10.304  -8.631  0.00  0.00    +0.019 C 
ATOM     12  C   UNL     1       6.388 -12.353  -7.210  0.00  0.00    +0.007 C 
ATOM     13  C   UNL     1       5.207 -11.861  -6.370  0.00  0.00    -0.009 C 
ATOM     14  C   UNL     1       3.900 -12.380  -6.974  0.00  0.00    +0.007 C 
ATOM     15  C   UNL     1       5.192 -10.332  -6.359  0.00  0.00    +0.019 C 
ENDBRANCH   3   6
ENDBRANCH   1   2
BRANCH   1  16
ATOM     16  C   UNL     1       3.356  -5.696  -5.848  0.00  0.00    +0.328 C 
ATOM     17  O   UNL     1       2.911  -6.491  -5.055  0.00  0.00    -0.249 OA
BRANCH  16  18
ATOM     18  O   UNL     1       3.221  -4.379  -5.624  0.00  0.00    -0.455 OA
BRANCH  18  19
ATOM     19  C   UNL     1       2.541  -3.989  -4.430  0.00  0.00    +0.311 C 
BRANCH  19  20
ATOM     20  C   UNL     1       2.487  -2.485  -4.350  0.00  0.00    +0.200 C 
ATOM     21  O   UNL     1       2.982  -1.813  -5.230  0.00  0.00    -0.288 OA
BRANCH  20  25
ATOM     22  C   UNL     1       0.605  -0.606  -1.054  0.00  0.00    +0.120 A 
ATOM     23  C   UNL     1       1.172   0.167  -2.061  0.00  0.00    +0.046 A 
ATOM     24  C   UNL     1       1.783  -0.436  -3.130  0.00  0.00    +0.015 A 
ATOM     25  C   UNL     1       1.835  -1.834  -3.207  0.00  0.00    +0.021 A 
ATOM     26  C   UNL     1       1.262  -2.607  -2.190  0.00  0.00    +0.015 A 
ATOM     27  C   UNL     1       0.658  -1.994  -1.122  0.00  0.00    +0.046 A 
BRANCH  22  29
ATOM     28  C   UNL     1      -0.017   1.425   0.010  0.00  0.00    +0.277 C 
ATOM     29  O   UNL     1       0.002  -0.004   0.002  0.00  0.00    -0.495 OA
ENDBRANCH  22  29
ENDBRANCH  20  25
ENDBRANCH  19  20
ENDBRANCH  18  19
ENDBRANCH  16  18
ENDBRANCH   1  16
BRANCH   1  30
ATOM     30  C   UNL     1       3.326  -5.670  -8.327  0.00  0.00    +0.067 C 
BRANCH  30  31
ATOM     31  C   UNL     1       4.099  -6.051  -9.563  0.00  0.00    -0.039 C 
ATOM     32  C   UNL     1       3.900  -7.138 -10.344  0.00  0.00    -0.001 A 
ATOM     33  C   UNL     1       2.941  -8.247 -10.277  0.00  0.00    +0.010 A 
ATOM     34  C   UNL     1       2.988  -9.212 -11.224  0.00  0.00    +0.001 A 
ATOM     35  C   UNL     1       3.927  -9.179 -12.265  0.00  0.00    +0.002 A 
ATOM     36  C   UNL     1       4.839  -8.192 -12.392  0.00  0.00    +0.026 A 
ATOM     37  C   UNL     1       4.881  -7.126 -11.452  0.00  0.00    +0.043 A 
ATOM     38  N   UNL     1       5.656  -6.073 -11.361  0.00  0.00    -0.380 N 
ATOM     39  C   UNL     1       5.250  -5.294 -10.186  0.00  0.00    +0.144 C 
ATOM     40  H   UNL     1       6.375  -5.845 -11.970  0.00  0.00    +0.160 HD
ENDBRANCH  30  31
ENDBRANCH   1  30
TORSDOF 10
