REMARK  Name = ZINC08415872
REMARK  15 active torsions:
REMARK  status: ('A' for Active; 'I' for Inactive)
REMARK    1  A    between atoms: C_1  and  C_2
REMARK    2  A    between atoms: C_2  and  O_3
REMARK    3  A    between atoms: O_3  and  C_4
REMARK    4  A    between atoms: C_4  and  C_6
REMARK    5  A    between atoms: C_8  and  C_34
REMARK    6  A    between atoms: C_15  and  C_26
REMARK    7  A    between atoms: C_17  and  C_21
REMARK    8  A    between atoms: C_18  and  C_20
REMARK    9  A    between atoms: C_21  and  O_23
REMARK   10  A    between atoms: O_23  and  C_24
REMARK   11  A    between atoms: C_24  and  C_25
REMARK   12  A    between atoms: C_31  and  O_32
REMARK   13  A    between atoms: O_32  and  C_33
REMARK   14  A    between atoms: C_38  and  O_40
REMARK   15  A    between atoms: O_40  and  C_41
REMARK                            x       y       z     vdW  Elec       q    Type
REMARK                         _______ _______ _______ _____ _____    ______ ____
ROOT
ATOM      1  C   UNL     1       1.529  -2.830   3.087  0.00  0.00    +0.176 C 
ATOM      2  C   UNL     1       1.405  -4.197   2.406  0.00  0.00    +0.046 C 
ATOM      3  C   UNL     1       2.020  -4.101   1.008  0.00  0.00    +0.060 C 
ATOM      4  C   UNL     1       3.462  -3.671   1.118  0.00  0.00    +0.016 C 
ATOM      5  C   UNL     1       3.874  -2.870   2.123  0.00  0.00    +0.025 C 
ATOM      6  C   UNL     1       2.976  -2.422   3.111  0.00  0.00    +0.176 C 
ATOM      7  O   UNL     1       3.376  -1.693   3.997  0.00  0.00    -0.291 OA
ATOM      8  C   UNL     1       5.313  -2.429   2.216  0.00  0.00    +0.096 C 
ATOM      9  C   UNL     1       6.200  -3.308   1.383  0.00  0.00    +0.065 C 
ATOM     10  C   UNL     1       5.694  -4.093   0.416  0.00  0.00    +0.016 C 
ATOM     11  N   UNL     1       4.349  -4.112   0.173  0.00  0.00    -0.321 N 
ATOM     12  C   UNL     1       6.616  -4.956  -0.405  0.00  0.00    +0.061 C 
ATOM     13  H   UNL     1       4.020  -4.444  -0.677  0.00  0.00    +0.152 HD
ENDROOT
BRANCH   8  14
ATOM     14  C   UNL     1       5.428  -1.008   1.729  0.00  0.00    +0.006 A 
ATOM     15  C   UNL     1       5.054  -0.687   0.439  0.00  0.00    +0.008 A 
ATOM     16  C   UNL     1       5.159   0.617  -0.009  0.00  0.00    +0.001 A 
ATOM     17  C   UNL     1       5.638   1.603   0.834  0.00  0.00    +0.004 A 
ATOM     18  C   UNL     1       6.013   1.288   2.125  0.00  0.00    +0.046 A 
ATOM     19  C   UNL     1       5.903  -0.019   2.578  0.00  0.00    +0.124 A 
BRANCH  19  20
ATOM     20  O   UNL     1       6.266  -0.331   3.850  0.00  0.00    -0.495 OA
ATOM     21  C   UNL     1       6.746   0.737   4.668  0.00  0.00    +0.277 C 
ENDBRANCH  19  20
ENDBRANCH   8  14
BRANCH   2  22
ATOM     22  C   UNL     1      -0.048  -4.581   2.299  0.00  0.00    -0.039 A 
ATOM     23  C   UNL     1      -0.519  -5.190   1.150  0.00  0.00    +0.004 A 
ATOM     24  C   UNL     1      -1.852  -5.542   1.049  0.00  0.00    +0.004 A 
ATOM     25  C   UNL     1      -2.717  -5.287   2.096  0.00  0.00    +0.045 A 
ATOM     26  C   UNL     1      -2.247  -4.676   3.249  0.00  0.00    +0.120 A 
ATOM     27  C   UNL     1      -0.907  -4.329   3.351  0.00  0.00    +0.049 A 
BRANCH  26  28
ATOM     28  O   UNL     1      -3.096  -4.424   4.280  0.00  0.00    -0.495 OA
ATOM     29  C   UNL     1      -4.460  -4.814   4.108  0.00  0.00    +0.277 C 
ENDBRANCH  26  28
ENDBRANCH   2  22
BRANCH   1  30
ATOM     30  C   UNL     1       0.729  -1.810   2.317  0.00  0.00    +0.318 C 
ATOM     31  O   UNL     1       0.033  -2.160   1.394  0.00  0.00    -0.250 OA
BRANCH  30  32
ATOM     32  O   UNL     1       0.792  -0.513   2.657  0.00  0.00    -0.464 OA
BRANCH  32  34
ATOM     33  C   UNL     1       0.207   1.819   2.417  0.00  0.00    +0.048 C 
ATOM     34  C   UNL     1       0.008   0.399   1.885  0.00  0.00    +0.229 C 
ENDBRANCH  32  34
ENDBRANCH  30  32
ENDBRANCH   1  30
BRANCH   9  35
ATOM     35  C   UNL     1       7.595  -3.309   1.620  0.00  0.00    +0.338 C 
ATOM     36  O   UNL     1       8.309  -4.104   1.038  0.00  0.00    -0.245 OA
BRANCH  35  37
ATOM     37  O   UNL     1       8.132  -2.430   2.490  0.00  0.00    -0.462 OA
BRANCH  37  38
ATOM     38  C   UNL     1       9.547  -2.487   2.680  0.00  0.00    +0.229 C 
ATOM     39  C   UNL     1       9.970  -1.423   3.695  0.00  0.00    +0.048 C 
ENDBRANCH  37  38
ENDBRANCH  35  37
ENDBRANCH   9  35
TORSDOF 10
