REMARK  Name = ZINC00208752
REMARK  7 active torsions:
REMARK  status: ('A' for Active; 'I' for Inactive)
REMARK    1  A    between atoms: C_1  and  C_2
REMARK    2  A    between atoms: C_4  and  C_24
REMARK    3  A    between atoms: C_4  and  C_25
REMARK    4  A    between atoms: N_5  and  C_12
REMARK    5  A    between atoms: C_12  and  C_13
REMARK    6  A    between atoms: C_13  and  C_15
REMARK    7  A    between atoms: C_18  and  N_21
REMARK                            x       y       z     vdW  Elec       q    Type
REMARK                         _______ _______ _______ _____ _____    ______ ____
ROOT
ATOM      1  C   UNL     1      -3.846   3.689  -3.625  0.00  0.00    +0.044 C 
ATOM      2  C   UNL     1      -2.975   3.110  -2.540  0.00  0.00    -0.043 C 
ATOM      3  C   UNL     1      -2.959   1.801  -2.294  0.00  0.00    +0.002 C 
ATOM      4  C   UNL     1      -2.083   1.260  -1.196  0.00  0.00    +0.049 C 
ATOM      5  N   UNL     1      -0.831   2.015  -1.107  0.00  0.00    -0.313 N 
ATOM      6  C   UNL     1      -1.047   3.385  -1.006  0.00  0.00    +0.038 A 
ATOM      7  C   UNL     1      -2.107   3.975  -1.712  0.00  0.00    -0.001 A 
ATOM      8  C   UNL     1      -2.329   5.344  -1.623  0.00  0.00    +0.010 A 
ATOM      9  C   UNL     1      -1.503   6.120  -0.833  0.00  0.00    +0.001 A 
ATOM     10  C   UNL     1      -0.459   5.539  -0.134  0.00  0.00    +0.002 A 
ATOM     11  C   UNL     1      -0.228   4.178  -0.217  0.00  0.00    +0.024 A 
ATOM     12  C   UNL     1      -1.766  -0.209  -1.482  0.00  0.00    +0.036 C 
ATOM     13  C   UNL     1      -2.827   1.362   0.137  0.00  0.00    +0.036 C 
ENDROOT
BRANCH   5  14
ATOM     14  C   UNL     1      -0.002   1.530   0.004  0.00  0.00    +0.185 C 
BRANCH  14  15
ATOM     15  C   UNL     1       1.413   2.017  -0.175  0.00  0.00    +0.180 C 
ATOM     16  O   UNL     1       1.728   2.607  -1.186  0.00  0.00    -0.290 OA
BRANCH  15  17
ATOM     17  C   UNL     1       2.413   1.776   0.877  0.00  0.00    +0.019 A 
ATOM     18  C   UNL     1       2.053   1.100   2.048  0.00  0.00    +0.013 A 
ATOM     19  C   UNL     1       2.997   0.874   3.027  0.00  0.00    +0.033 A 
ATOM     20  C   UNL     1       4.295   1.324   2.859  0.00  0.00    +0.126 A 
ATOM     21  C   UNL     1       4.658   1.997   1.706  0.00  0.00    +0.033 A 
ATOM     22  C   UNL     1       3.727   2.226   0.715  0.00  0.00    +0.013 A 
BRANCH  20  23
ATOM     23  N   UNL     1       5.301   1.082   3.918  0.00  0.00    +0.056 N 
ATOM     24  O   UNL     1       6.444   1.476   3.773  0.00  0.00    -0.126 OA
ATOM     25  O   UNL     1       4.985   0.490   4.934  0.00  0.00    -0.126 OA
ENDBRANCH  20  23
ENDBRANCH  15  17
ENDBRANCH  14  15
ENDBRANCH   5  14
TORSDOF 4
