REMARK  Name = ZINC52939254
REMARK  7 active torsions:
REMARK  status: ('A' for Active; 'I' for Inactive)
REMARK    1  A    between atoms: C_1  and  C_2
REMARK    2  A    between atoms: C_8  and  N_10
REMARK    3  A    between atoms: N_10  and  C_11
REMARK    4  A    between atoms: C_11  and  N_13
REMARK    5  A    between atoms: N_13  and  N_14
REMARK    6  A    between atoms: C_15  and  C_17
REMARK    7  A    between atoms: C_18  and  C_19
REMARK                            x       y       z     vdW  Elec       q    Type
REMARK                         _______ _______ _______ _____ _____    ______ ____
ROOT
ATOM      1  N   UNL     1      -1.257   0.843   4.663  0.00  0.00    -0.232 N 
ATOM      2  C   UNL     1      -1.888   1.278   5.772  0.00  0.00    +0.253 C 
ATOM      3  O   UNL     1      -1.272   1.397   6.816  0.00  0.00    -0.269 OA
ATOM      4  H   UNL     1      -1.748   0.748   3.831  0.00  0.00    +0.173 HD
ENDROOT
BRANCH   1   5
ATOM      5  N   UNL     1       0.107   0.528   4.711  0.00  0.00    -0.246 N 
ATOM      6  H   UNL     1       0.598   0.623   5.542  0.00  0.00    +0.172 HD
BRANCH   5   7
ATOM      7  C   UNL     1       0.738   0.093   3.602  0.00  0.00    +0.147 C 
ATOM      8  S   UNL     1       2.405  -0.292   3.661  0.00  0.00    -0.017 S 
BRANCH   7   9
ATOM      9  N   UNL     1       0.056  -0.038   2.447  0.00  0.00    -0.322 N 
ATOM     10  H   UNL     1      -0.888   0.180   2.413  0.00  0.00    +0.148 HD
BRANCH   9  17
ATOM     11  C   UNL     1      -0.019   1.526   0.010  0.00  0.00    +0.009 C 
ATOM     12  C   UNL     1       0.002  -0.004   0.002  0.00  0.00    +0.006 C 
ATOM     13  C   UNL     1       0.718  -0.497  -1.257  0.00  0.00    +0.005 C 
ATOM     14  C   UNL     1       0.739  -2.027  -1.265  0.00  0.00    +0.000 C 
ATOM     15  C   UNL     1       1.479  -2.534  -0.026  0.00  0.00    +0.002 C 
ATOM     16  C   UNL     1       0.763  -2.041   1.233  0.00  0.00    +0.022 C 
ATOM     17  C   UNL     1       0.742  -0.511   1.242  0.00  0.00    +0.075 C 
ENDBRANCH   9  17
ENDBRANCH   7   9
ENDBRANCH   5   7
ENDBRANCH   1   5
BRANCH   2  18
ATOM     18  C   UNL     1      -3.260   1.594   5.723  0.00  0.00    +0.071 C 
ATOM     19  C   UNL     1      -3.898   2.034   6.844  0.00  0.00    +0.034 C 
BRANCH  19  20
ATOM     20  C   UNL     1      -5.268   2.350   6.796  0.00  0.00    +0.085 A 
ATOM     21  C   UNL     1      -5.896   3.162   5.865  0.00  0.00    +0.156 A 
ATOM     22  N   UNL     1      -7.189   3.206   6.166  0.00  0.00    -0.209 NA
ATOM     23  C   UNL     1      -7.419   2.474   7.227  0.00  0.00    +0.179 A 
ATOM     24  N   UNL     1      -6.265   1.898   7.680  0.00  0.00    -0.292 N 
ATOM     25  C   UNL     1      -6.360   1.093   8.790  0.00  0.00    +0.101 A 
ATOM     26  C   UNL     1      -7.535   0.890   9.388  0.00  0.00    +0.067 A 
ATOM     27  S   UNL     1      -8.633   1.876   8.382  0.00  0.00    -0.058 S 
ATOM     28 CL   UNL     1      -5.128   3.977   4.538  0.00  0.00    -0.060 Cl
ENDBRANCH  19  20
ENDBRANCH   2  18
TORSDOF 6
