REMARK  Name = ZINC05080344
REMARK  8 active torsions:
REMARK  status: ('A' for Active; 'I' for Inactive)
REMARK    1  A    between atoms: C_1  and  C_2
REMARK    2  A    between atoms: C_2  and  C_8
REMARK    3  A    between atoms: N_3  and  N_4
REMARK    4  A    between atoms: C_14  and  C_35
REMARK    5  A    between atoms: C_24  and  C_34
REMARK    6  A    between atoms: C_27  and  O_30
REMARK    7  A    between atoms: O_30  and  C_31
REMARK    8  A    between atoms: C_31  and  C_33
REMARK                            x       y       z     vdW  Elec       q    Type
REMARK                         _______ _______ _______ _____ _____    ______ ____
ROOT
ATOM      1  C   UNL     1       2.145   0.611   3.434  0.00  0.00    +0.041 C 
ATOM      2  C   UNL     1       3.571   1.176   3.220  0.00  0.00    +0.010 C 
ATOM      3  C   UNL     1       3.793   1.221   1.681  0.00  0.00    +0.005 C 
ATOM      4  C   UNL     1       2.348   1.325   1.169  0.00  0.00    -0.001 C 
ATOM      5  C   UNL     1       1.638   0.254   2.019  0.00  0.00    -0.021 C 
ATOM      6  C   UNL     1       0.139   0.341   1.861  0.00  0.00    +0.008 C 
ATOM      7  C   UNL     1      -0.236   0.828   0.453  0.00  0.00    +0.005 C 
ATOM      8  C   UNL     1       0.818   0.404  -0.561  0.00  0.00    +0.003 C 
ATOM      9  C   UNL     1       2.116   1.186  -0.297  0.00  0.00    +0.000 C 
ATOM     10  C   UNL     1       3.228   0.473  -1.069  0.00  0.00    +0.031 C 
ATOM     11  C   UNL     1       2.829   0.499  -2.524  0.00  0.00    -0.027 C 
ATOM     12  C   UNL     1       1.597   0.591  -2.923  0.00  0.00    -0.064 C 
ATOM     13  C   UNL     1       0.398   0.640  -2.003  0.00  0.00    -0.008 C 
ATOM     14  C   UNL     1      -0.299   1.982  -2.195  0.00  0.00    +0.015 C 
ATOM     15  C   UNL     1       0.363   2.756  -3.335  0.00  0.00    +0.046 C 
ATOM     16  C   UNL     1       0.429   1.935  -4.618  0.00  0.00    +0.180 C 
ATOM     17  C   UNL     1       1.308   0.695  -4.411  0.00  0.00    +0.075 C 
ATOM     18  C   UNL     1      -0.567  -0.480  -2.407  0.00  0.00    +0.016 C 
ATOM     19  C   UNL     1       2.132  -1.162   1.715  0.00  0.00    +0.012 C 
ENDROOT
BRANCH   1  21
ATOM     20  C   UNL     1       3.478  -1.413   4.398  0.00  0.00    +0.062 C 
ATOM     21  C   UNL     1       2.195  -0.632   4.281  0.00  0.00    +0.037 C 
ATOM     22  N   UNL     1       1.147  -1.026   4.902  0.00  0.00    -0.188 NA
BRANCH  22  23
ATOM     23  N   UNL     1      -0.014  -0.243   4.883  0.00  0.00    -0.191 N 
ATOM     24  C   UNL     1      -1.142  -0.696   5.465  0.00  0.00    +0.317 C 
ATOM     25  O   UNL     1      -2.151  -0.016   5.448  0.00  0.00    -0.251 OA
ATOM     26  N   UNL     1      -1.153  -1.903   6.065  0.00  0.00    -0.312 N 
ATOM     27  H   UNL     1      -0.007   0.626   4.450  0.00  0.00    +0.179 HD
ATOM     28  H   UNL     1      -0.349  -2.445   6.079  0.00  0.00    +0.147 HD
ATOM     29  H   UNL     1      -1.965  -2.229   6.484  0.00  0.00    +0.147 HD
ENDBRANCH  22  23
ENDBRANCH   1  21
BRANCH  16  30
ATOM     30  O   UNL     1      -0.908   1.529  -5.012  0.00  0.00    -0.461 OA
BRANCH  30  31
ATOM     31  C   UNL     1      -1.134   1.371  -6.326  0.00  0.00    +0.304 C 
ATOM     32  O   UNL     1      -0.244   1.565  -7.120  0.00  0.00    -0.251 OA
ATOM     33  C   UNL     1      -2.498   0.951  -6.810  0.00  0.00    +0.136 C 
ENDBRANCH  30  31
ENDBRANCH  16  30
TORSDOF 4
