REMARK  Name = ZINC20805583
REMARK  7 active torsions:
REMARK  status: ('A' for Active; 'I' for Inactive)
REMARK    1  A    between atoms: C_10  and  C_11
REMARK    2  A    between atoms: N_12  and  N_13
REMARK    3  A    between atoms: C_17  and  S_20
REMARK    4  A    between atoms: N_18  and  N_19
REMARK    5  A    between atoms: S_20  and  C_21
REMARK    6  A    between atoms: C_21  and  C_22
REMARK    7  A    between atoms: N_24  and  C_25
REMARK                            x       y       z     vdW  Elec       q    Type
REMARK                         _______ _______ _______ _____ _____    ______ ____
ROOT
ATOM      1  N   UNL     1       1.387   0.082  -0.148  0.00  0.00    -0.204 N 
ATOM      2  C   UNL     1       0.121  -0.485  -0.149  0.00  0.00    +0.254 A 
ATOM      3  N   UNL     1      -1.016   0.168  -0.163  0.00  0.00    -0.109 NA
ATOM      4  N   UNL     1      -2.055  -0.771  -0.162  0.00  0.00    -0.119 NA
ATOM      5  C   UNL     1      -1.519  -1.968  -0.138  0.00  0.00    +0.210 A 
ATOM      6  N   UNL     1      -0.161  -1.823  -0.129  0.00  0.00    -0.211 N 
ATOM      7  H   UNL     1       2.278  -0.563  -0.130  0.00  0.00    +0.177 HD
ENDROOT
BRANCH   6   8
ATOM      8  N   UNL     1       0.755  -2.836  -0.106  0.00  0.00    -0.294 N 
ATOM      9  H   UNL     1       0.417  -3.882  -0.092  0.00  0.00    +0.163 HD
ATOM     10  H   UNL     1       1.831  -2.605  -0.102  0.00  0.00    +0.163 HD
ENDBRANCH   6   8
BRANCH   1  12
ATOM     11  C   UNL     1       2.718   2.007  -0.168  0.00  0.00    +0.139 C 
ATOM     12  N   UNL     1       1.531   1.475  -0.169  0.00  0.00    -0.187 NA
BRANCH  11  22
ATOM     13  C   UNL     1      -0.472   6.051   0.098  0.00  0.00    +0.001 A 
ATOM     14  C   UNL     1      -0.656   4.670   0.123  0.00  0.00    +0.001 A 
ATOM     15  C   UNL     1       0.406   3.821   0.031  0.00  0.00    +0.009 A 
ATOM     16  C   UNL     1       1.700   4.342  -0.090  0.00  0.00    -0.009 A 
ATOM     17  C   UNL     1       1.890   5.745  -0.116  0.00  0.00    -0.017 A 
ATOM     18  C   UNL     1       0.772   6.591  -0.019  0.00  0.00    +0.008 A 
ATOM     19  C   UNL     1       3.190   6.264  -0.238  0.00  0.00    +0.008 A 
ATOM     20  C   UNL     1       4.264   5.432  -0.332  0.00  0.00    +0.001 A 
ATOM     21  C   UNL     1       4.126   4.051  -0.303  0.00  0.00    +0.010 A 
ATOM     22  C   UNL     1       2.869   3.469  -0.191  0.00  0.00    +0.002 A 
ENDBRANCH  11  22
ENDBRANCH   1  12
BRANCH   5  23
ATOM     23  S   UNL     1      -2.397  -3.496  -0.120  0.00  0.00    -0.075 S 
BRANCH  23  24
ATOM     24  C   UNL     1      -4.099  -2.881  -0.143  0.00  0.00    +0.173 C 
BRANCH  24  25
ATOM     25  C   UNL     1      -5.054  -4.046  -0.132  0.00  0.00    +0.228 C 
ATOM     26  O   UNL     1      -4.626  -5.181  -0.110  0.00  0.00    -0.275 OA
ATOM     27  N   UNL     1      -6.384  -3.828  -0.146  0.00  0.00    -0.284 N 
ATOM     28  H   UNL     1      -6.773  -2.800  -0.090  0.00  0.00    +0.155 HD
BRANCH  27  29
ATOM     29  C   UNL     1      -7.270  -4.908  -0.232  0.00  0.00    +0.052 A 
ATOM     30  C   UNL     1      -6.961  -6.112   0.386  0.00  0.00    +0.025 A 
ATOM     31  C   UNL     1      -7.840  -7.175   0.304  0.00  0.00    +0.002 A 
ATOM     32  C   UNL     1      -9.022  -7.044  -0.402  0.00  0.00    +0.002 A 
ATOM     33  C   UNL     1      -9.331  -5.848  -1.023  0.00  0.00    +0.022 A 
ATOM     34  C   UNL     1      -8.459  -4.779  -0.940  0.00  0.00    +0.062 A 
ATOM     35 CL   UNL     1      -8.847  -3.277  -1.721  0.00  0.00    -0.082 Cl
ENDBRANCH  27  29
ENDBRANCH  24  25
ENDBRANCH  23  24
ENDBRANCH   5  23
TORSDOF 7
