REMARK  Name = ZINC36500707
REMARK  10 active torsions:
REMARK  status: ('A' for Active; 'I' for Inactive)
REMARK    1  A    between atoms: C_3  and  C_9
REMARK    2  A    between atoms: C_4  and  O_8
REMARK    3  A    between atoms: C_5  and  O_7
REMARK    4  A    between atoms: N_11  and  C_12
REMARK    5  A    between atoms: N_11  and  C_18
REMARK    6  A    between atoms: C_12  and  C_13
REMARK    7  A    between atoms: C_18  and  C_20
REMARK    8  A    between atoms: C_18  and  C_27
REMARK    9  A    between atoms: C_23  and  O_26
REMARK   10  A    between atoms: N_29  and  C_30
REMARK                            x       y       z     vdW  Elec       q    Type
REMARK                         _______ _______ _______ _____ _____    ______ ____
ROOT
ATOM      1  C   UNL     1       4.482   5.149  -1.260  0.00  0.00    +0.252 C 
ATOM      2  O   UNL     1       4.740   5.955  -2.134  0.00  0.00    -0.270 OA
ATOM      3  N   UNL     1       4.590   5.504   0.036  0.00  0.00    -0.275 N 
ENDROOT
BRANCH   1   6
ATOM      4  C   UNL     1       2.686   1.854  -1.186  0.00  0.00    +0.005 A 
ATOM      5  C   UNL     1       3.087   3.128  -0.849  0.00  0.00    +0.017 A 
ATOM      6  C   UNL     1       4.051   3.784  -1.618  0.00  0.00    +0.082 A 
ATOM      7  C   UNL     1       4.607   3.140  -2.730  0.00  0.00    +0.171 A 
ATOM      8  C   UNL     1       4.192   1.853  -3.058  0.00  0.00    +0.159 A 
ATOM      9  C   UNL     1       3.235   1.216  -2.286  0.00  0.00    +0.049 A 
BRANCH   8  10
ATOM     10  O   UNL     1       4.727   1.221  -4.137  0.00  0.00    -0.503 OA
ATOM     11  H   UNL     1       5.518   0.703  -3.938  0.00  0.00    +0.292 HD
ENDBRANCH   8  10
BRANCH   7  12
ATOM     12  O   UNL     1       5.544   3.768  -3.484  0.00  0.00    -0.503 OA
ATOM     13  H   UNL     1       6.453   3.615  -3.191  0.00  0.00    +0.292 HD
ENDBRANCH   7  12
ENDBRANCH   1   6
BRANCH   3  14
ATOM     14  C   UNL     1       4.737   6.915   0.400  0.00  0.00    +0.183 C 
BRANCH  14  15
ATOM     15  C   UNL     1       5.758   7.562  -0.501  0.00  0.00    +0.122 A 
ATOM     16  C   UNL     1       5.490   8.264  -1.617  0.00  0.00    +0.046 A 
ATOM     17  C   UNL     1       6.732   8.685  -2.144  0.00  0.00    +0.041 A 
ATOM     18  C   UNL     1       7.685   8.215  -1.319  0.00  0.00    +0.195 A 
ATOM     19  O   UNL     1       7.089   7.541  -0.323  0.00  0.00    -0.466 OA
ENDBRANCH  14  15
ENDBRANCH   3  14
BRANCH   3  20
ATOM     20  C   UNL     1       4.561   4.478   1.081  0.00  0.00    +0.193 C 
BRANCH  20  21
ATOM     21  C   UNL     1       3.492   4.817   2.088  0.00  0.00    -0.018 A 
ATOM     22  C   UNL     1       2.164   4.835   1.706  0.00  0.00    +0.009 A 
ATOM     23  C   UNL     1       1.183   5.146   2.627  0.00  0.00    +0.046 A 
ATOM     24  C   UNL     1       1.531   5.440   3.937  0.00  0.00    +0.117 A 
ATOM     25  C   UNL     1       2.865   5.421   4.319  0.00  0.00    +0.046 A 
ATOM     26  C   UNL     1       3.842   5.104   3.395  0.00  0.00    +0.009 A 
BRANCH  24  27
ATOM     27  O   UNL     1       0.568   5.747   4.845  0.00  0.00    -0.507 OA
ATOM     28  H   UNL     1       0.216   4.981   5.320  0.00  0.00    +0.292 HD
ENDBRANCH  24  27
ENDBRANCH  20  21
BRANCH  20  29
ATOM     29  C   UNL     1       5.901   4.423   1.769  0.00  0.00    +0.238 C 
ATOM     30  O   UNL     1       6.693   5.329   1.626  0.00  0.00    -0.273 OA
ATOM     31  N   UNL     1       6.218   3.366   2.543  0.00  0.00    -0.311 N 
ATOM     32  H   UNL     1       5.583   2.641   2.658  0.00  0.00    +0.149 HD
BRANCH  31  33
ATOM     33  C   UNL     1       7.520   3.312   3.212  0.00  0.00    +0.073 C 
ATOM     34  C   UNL     1       8.563   2.736   2.252  0.00  0.00    +0.022 C 
ATOM     35  C   UNL     1       9.923   2.680   2.951  0.00  0.00    +0.002 C 
ATOM     36  C   UNL     1       9.823   1.789   4.191  0.00  0.00    +0.000 C 
ATOM     37  C   UNL     1       8.780   2.366   5.151  0.00  0.00    +0.002 C 
ATOM     38  C   UNL     1       7.420   2.422   4.452  0.00  0.00    +0.022 C 
ENDBRANCH  31  33
ENDBRANCH  20  29
ENDBRANCH   3  20
TORSDOF 10
