REMARK  Name = ZINC44672347
REMARK  3 active torsions:
REMARK  status: ('A' for Active; 'I' for Inactive)
REMARK    1  A    between atoms: C_3  and  C_13
REMARK    2  A    between atoms: C_3  and  N_16
REMARK    3  A    between atoms: C_8  and  C_10
REMARK                            x       y       z     vdW  Elec       q    Type
REMARK                         _______ _______ _______ _____ _____    ______ ____
ROOT
ATOM      1  C   UNL     1       0.698   1.908   0.024  0.00  0.00    +0.004 C 
ATOM      2  C   UNL     1       2.203   1.649   0.280  0.00  0.00    -0.001 C 
ATOM      3  C   UNL     1       2.184   0.400   1.197  0.00  0.00    +0.037 C 
ATOM      4  C   UNL     1       1.033  -0.462   0.638  0.00  0.00    +0.006 C 
ATOM      5  C   UNL     1       0.088   0.497  -0.108  0.00  0.00    +0.006 C 
ATOM      6  C   UNL     1      -0.377  -0.229   1.186  0.00  0.00    +0.108 C 
ENDROOT
BRANCH   3   7
ATOM      7  N   UNL     1       1.908   0.787   2.587  0.00  0.00    +0.389 N 
ATOM      8  H   UNL     1       1.208   1.513   2.601  0.00  0.00    -0.088 HD
ATOM      9  H   UNL     1       1.572  -0.014   3.099  0.00  0.00    -0.088 HD
ATOM     10  H   UNL     1       2.756   1.129   3.015  0.00  0.00    -0.088 HD
ENDBRANCH   3   7
BRANCH   6  11
ATOM     11  C   UNL     1      -0.506   0.585   2.448  0.00  0.00    +0.360 C 
ATOM     12  O   UNL     1      -0.767   1.774   2.382  0.00  0.00    -0.246 OA
ATOM     13  O   UNL     1      -0.349   0.054   3.534  0.00  0.00    -0.246 OA
ENDBRANCH   6  11
BRANCH   3  14
ATOM     14  C   UNL     1       3.492  -0.343   1.104  0.00  0.00    +0.345 C 
ATOM     15  O   UNL     1       4.163  -0.522   2.106  0.00  0.00    -0.248 OA
ATOM     16  O   UNL     1       3.879  -0.764   0.027  0.00  0.00    -0.248 OA
ENDBRANCH   3  14
TORSDOF 3
