REMARK  Name = ZINC37000610
REMARK  9 active torsions:
REMARK  status: ('A' for Active; 'I' for Inactive)
REMARK    1  A    between atoms: C_1  and  C_2
REMARK    2  A    between atoms: C_2  and  C_4
REMARK    3  A    between atoms: C_2  and  N_12
REMARK    4  A    between atoms: C_4  and  C_5
REMARK    5  A    between atoms: N_12  and  C_13
REMARK    6  A    between atoms: C_13  and  C_15
REMARK    7  A    between atoms: C_13  and  C_16
REMARK    8  A    between atoms: C_19  and  O_23
REMARK    9  A    between atoms: C_21  and  O_22
REMARK                            x       y       z     vdW  Elec       q    Type
REMARK                         _______ _______ _______ _____ _____    ______ ____
ROOT
ATOM      1  N   UNL     1      -1.376  -0.512   0.012  0.00  0.00    -0.307 NA
ATOM      2  H   UNL     1      -1.426  -1.413   0.464  0.00  0.00    +0.123 HD
ENDROOT
BRANCH   1   4
ATOM      3  C   UNL     1      -0.019   1.526   0.010  0.00  0.00    +0.024 C 
ATOM      4  C   UNL     1       0.002  -0.004   0.002  0.00  0.00    +0.055 C 
BRANCH   4   5
ATOM      5  C   UNL     1       0.742  -0.511   1.242  0.00  0.00    +0.053 C 
BRANCH   5   6
ATOM      6  C   UNL     1       0.870  -2.011   1.172  0.00  0.00    -0.046 A 
ATOM      7  C   UNL     1      -0.118  -2.814   1.711  0.00  0.00    +0.005 A 
ATOM      8  C   UNL     1      -0.001  -4.190   1.647  0.00  0.00    +0.015 A 
ATOM      9  C   UNL     1       1.104  -4.763   1.043  0.00  0.00    +0.018 A 
ATOM     10  C   UNL     1       2.092  -3.959   0.504  0.00  0.00    +0.015 A 
ATOM     11  C   UNL     1       1.972  -2.583   0.564  0.00  0.00    +0.005 A 
ATOM     12 BR   UNL     1       1.265  -6.645   0.956  0.00  0.00    -0.050 Br
ENDBRANCH   5   6
ENDBRANCH   4   5
ENDBRANCH   1   4
BRANCH   1  13
ATOM     13  C   UNL     1      -1.924  -0.575  -1.349  0.00  0.00    +0.085 C 
ATOM     14  C   UNL     1      -1.512  -1.895  -2.005  0.00  0.00    +0.029 C 
BRANCH  13  15
ATOM     15  C   UNL     1      -3.428  -0.492  -1.289  0.00  0.00    +0.011 A 
ATOM     16  C   UNL     1      -4.089  -0.784  -0.111  0.00  0.00    +0.012 A 
ATOM     17  C   UNL     1      -5.468  -0.708  -0.053  0.00  0.00    +0.046 A 
ATOM     18  C   UNL     1      -6.191  -0.340  -1.179  0.00  0.00    +0.120 A 
ATOM     19  C   UNL     1      -5.530  -0.047  -2.361  0.00  0.00    +0.091 A 
ATOM     20  C   UNL     1      -4.147  -0.117  -2.415  0.00  0.00    +0.125 A 
BRANCH  20  21
ATOM     21  O   UNL     1      -3.495   0.175  -3.572  0.00  0.00    -0.506 OA
ATOM     22  H   UNL     1      -3.363  -0.587  -4.152  0.00  0.00    +0.292 HD
ENDBRANCH  20  21
BRANCH  18  23
ATOM     23  O   UNL     1      -7.547  -0.266  -1.121  0.00  0.00    -0.507 OA
ATOM     24  H   UNL     1      -7.883   0.603  -0.863  0.00  0.00    +0.292 HD
ENDBRANCH  18  23
ENDBRANCH  13  15
ENDBRANCH   1  13
TORSDOF 7
