REMARK  Name = ZINC18190318
REMARK  4 active torsions:
REMARK  status: ('A' for Active; 'I' for Inactive)
REMARK    1  A    between atoms: C_3  and  O_22
REMARK    2  A    between atoms: C_4  and  O_21
REMARK    3  A    between atoms: C_10  and  O_20
REMARK    4  A    between atoms: C_16  and  O_19
REMARK                            x       y       z     vdW  Elec       q    Type
REMARK                         _______ _______ _______ _____ _____    ______ ____
ROOT
ATOM      1  C   UNL     1      -0.017   1.396   0.010  0.00  0.00    +0.016 A 
ATOM      2  C   UNL     1       1.158   2.091   0.002  0.00  0.00    +0.050 A 
ATOM      3  C   UNL     1       2.376   1.414  -0.018  0.00  0.00    +0.162 A 
ATOM      4  C   UNL     1       2.416   0.022  -0.035  0.00  0.00    +0.201 A 
ATOM      5  C   UNL     1       1.235  -0.704  -0.029  0.00  0.00    +0.173 A 
ATOM      6  C   UNL     1       0.002  -0.004   0.002  0.00  0.00    +0.027 A 
ATOM      7  C   UNL     1      -1.172  -0.775   0.066  0.00  0.00    +0.006 C 
ATOM      8  C   UNL     1      -2.477  -0.429   0.348  0.00  0.00    -0.011 C 
ATOM      9  C   UNL     1      -3.052   0.870   0.452  0.00  0.00    +0.058 C 
ATOM     10  C   UNL     1      -4.399   0.942   0.652  0.00  0.00    +0.164 C 
ATOM     11  C   UNL     1      -5.198  -0.215   0.761  0.00  0.00    +0.220 C 
ATOM     12  O   UNL     1      -6.409  -0.098   0.897  0.00  0.00    -0.284 OA
ATOM     13  C   UNL     1      -4.628  -1.509   0.715  0.00  0.00    +0.059 C 
ATOM     14  C   UNL     1      -3.286  -1.588   0.529  0.00  0.00    -0.033 C 
ATOM     15  C   UNL     1      -2.388  -2.799   0.514  0.00  0.00    +0.079 C 
ATOM     16  C   UNL     1      -1.126  -2.281  -0.197  0.00  0.00    +0.130 C 
ATOM     17  C   UNL     1       0.152  -2.790   0.476  0.00  0.00    +0.269 C 
ATOM     18  O   UNL     1       1.262  -2.057  -0.056  0.00  0.00    -0.484 OA
ENDROOT
BRANCH  16  19
ATOM     19  O   UNL     1      -1.154  -2.574  -1.595  0.00  0.00    -0.380 OA
ATOM     20  H   UNL     1      -1.126  -3.519  -1.800  0.00  0.00    +0.211 HD
ENDBRANCH  16  19
BRANCH  10  21
ATOM     21  O   UNL     1      -4.987   2.164   0.751  0.00  0.00    -0.503 OA
ATOM     22  H   UNL     1      -5.943   2.130   0.893  0.00  0.00    +0.292 HD
ENDBRANCH  10  21
BRANCH   4  23
ATOM     23  O   UNL     1       3.613  -0.625  -0.057  0.00  0.00    -0.501 OA
ATOM     24  H   UNL     1       3.970  -0.822   0.819  0.00  0.00    +0.292 HD
ENDBRANCH   4  23
BRANCH   3  25
ATOM     25  O   UNL     1       3.535   2.118  -0.021  0.00  0.00    -0.503 OA
ATOM     26  H   UNL     1       3.880   2.312   0.862  0.00  0.00    +0.292 HD
ENDBRANCH   3  25
TORSDOF 4
