REMARK  Name = ZINC36317390
REMARK  6 active torsions:
REMARK  status: ('A' for Active; 'I' for Inactive)
REMARK    1  A    between atoms: C_1  and  C_2
REMARK    2  A    between atoms: C_2  and  C_3
REMARK    3  A    between atoms: C_2  and  C_4
REMARK    4  A    between atoms: C_2  and  C_5
REMARK    5  A    between atoms: C_10  and  N_24
REMARK    6  A    between atoms: C_11  and  C_13
REMARK                            x       y       z     vdW  Elec       q    Type
REMARK                         _______ _______ _______ _____ _____    ______ ____
ROOT
ATOM      1  C   UNL     1       0.826  -1.197  -0.822  0.00  0.00    +0.039 A 
ATOM      2  C   UNL     1       1.630  -0.872  -1.831  0.00  0.00    +0.071 A 
ATOM      3  S   UNL     1       2.006  -2.469  -2.537  0.00  0.00    -0.057 S 
ATOM      4  C   UNL     1       1.046  -3.457  -1.413  0.00  0.00    +0.179 A 
ATOM      5  N   UNL     1       0.505  -2.516  -0.570  0.00  0.00    -0.278 N 
ATOM      6  C   UNL     1      -0.258  -3.239   0.341  0.00  0.00    +0.129 A 
ATOM      7  C   UNL     1      -0.143  -4.556   0.019  0.00  0.00    +0.112 A 
ATOM      8  N   UNL     1       0.663  -4.650  -1.071  0.00  0.00    -0.219 NA
ENDROOT
BRANCH   7   9
ATOM      9  C   UNL     1      -0.790  -5.686   0.725  0.00  0.00    +0.007 A 
ATOM     10  C   UNL     1      -0.968  -5.635   2.109  0.00  0.00    +0.012 A 
ATOM     11  C   UNL     1      -1.569  -6.686   2.768  0.00  0.00    +0.030 A 
ATOM     12  C   UNL     1      -1.998  -7.796   2.055  0.00  0.00    +0.087 A 
ATOM     13  C   UNL     1      -1.824  -7.855   0.672  0.00  0.00    +0.157 A 
ATOM     14  C   UNL     1      -1.226  -6.798   0.008  0.00  0.00    +0.058 A 
ATOM     15  O   UNL     1      -2.332  -9.040   0.252  0.00  0.00    -0.408 OA
ATOM     16  C   UNL     1      -2.811  -9.714   1.309  0.00  0.00    +0.419 A 
ATOM     17  O   UNL     1      -3.331 -10.812   1.264  0.00  0.00    -0.223 OA
ATOM     18  N   UNL     1      -2.625  -8.987   2.428  0.00  0.00    -0.288 N 
ATOM     19  H   UNL     1      -2.879  -9.244   3.328  0.00  0.00    +0.172 HD
ENDBRANCH   7   9
BRANCH   1  21
ATOM     20  C   UNL     1       0.729   1.253  -0.449  0.00  0.00    +0.017 C 
ATOM     21  C   UNL     1       0.262  -0.113   0.060  0.00  0.00    +0.004 C 
ATOM     22  C   UNL     1       0.752  -0.317   1.495  0.00  0.00    +0.017 C 
ATOM     23  C   UNL     1      -1.266  -0.173   0.029  0.00  0.00    +0.017 C 
ENDBRANCH   1  21
BRANCH   6  24
ATOM     24  N   UNL     1      -1.006  -2.709   1.396  0.00  0.00    -0.342 N 
ATOM     25  H   UNL     1      -1.014  -1.752   1.552  0.00  0.00    +0.144 HD
ATOM     26  H   UNL     1      -1.519  -3.298   1.971  0.00  0.00    +0.144 HD
ENDBRANCH   6  24
TORSDOF 3
