REMARK  Name = ZINC00421468
REMARK  5 active torsions:
REMARK  status: ('A' for Active; 'I' for Inactive)
REMARK    1  A    between atoms: C_1  and  C_2
REMARK    2  A    between atoms: C_9  and  C_14
REMARK    3  A    between atoms: C_17  and  C_28
REMARK    4  A    between atoms: C_23  and  N_27
REMARK    5  A    between atoms: C_24  and  C_25
REMARK                            x       y       z     vdW  Elec       q    Type
REMARK                         _______ _______ _______ _____ _____    ______ ____
ROOT
ATOM      1  C   UNL     1      -4.985   1.048   0.030  0.00  0.00    +0.107 C 
ATOM      2  C   UNL     1      -5.775   1.451   1.248  0.00  0.00    +0.049 A 
ATOM      3  C   UNL     1      -5.577   1.106   2.578  0.00  0.00    +0.068 A 
ATOM      4  N   UNL     1      -6.509   1.690   3.293  0.00  0.00    -0.176 NA
ATOM      5  N   UNL     1      -7.333   2.429   2.430  0.00  0.00    -0.246 N 
ATOM      6  H   UNL     1      -8.126   2.977   2.698  0.00  0.00    +0.192 HD
ATOM      7  C   UNL     1      -6.868   2.270   1.181  0.00  0.00    +0.222 A 
ATOM      8  O   UNL     1      -7.328   2.783   0.013  0.00  0.00    -0.423 OA
ATOM      9  C   UNL     1      -6.852   2.253  -1.132  0.00  0.00    +0.200 C 
ATOM     10  C   UNL     1      -5.774   1.441  -1.194  0.00  0.00    +0.098 C 
ATOM     11  C   UNL     1      -4.483   0.216   3.108  0.00  0.00    +0.068 C 
ENDROOT
BRANCH   1  20
ATOM     12  C   UNL     1       2.472   1.039  -0.016  0.00  0.00    +0.044 C 
ATOM     13  C   UNL     1       1.159   1.778   0.001  0.00  0.00    -0.050 A 
ATOM     14  C   UNL     1       1.151   3.166   0.009  0.00  0.00    +0.005 A 
ATOM     15  C   UNL     1      -0.038   3.862   0.023  0.00  0.00    +0.026 A 
ATOM     16  C   UNL     1      -1.244   3.169   0.031  0.00  0.00    +0.049 A 
ATOM     17  C   UNL     1      -1.232   1.762   0.018  0.00  0.00    -0.001 A 
ATOM     18  C   UNL     1      -0.013   1.076   0.008  0.00  0.00    +0.013 A 
ATOM     19  C   UNL     1      -2.506   1.041   0.019  0.00  0.00    +0.020 A 
ATOM     20  C   UNL     1      -3.656   1.759   0.028  0.00  0.00    +0.030 A 
ATOM     21  C   UNL     1      -3.613   3.170   0.036  0.00  0.00    +0.253 A 
ATOM     22  O   UNL     1      -4.659   3.796   0.044  0.00  0.00    -0.268 OA
ATOM     23  N   UNL     1      -2.448   3.840   0.045  0.00  0.00    -0.322 N 
ATOM     24  H   UNL     1      -2.455   4.840   0.062  0.00  0.00    +0.169 HD
ENDBRANCH   1  20
BRANCH   9  25
ATOM     25  N   UNL     1      -7.502   2.556  -2.303  0.00  0.00    -0.328 N 
ATOM     26  H   UNL     1      -7.184   2.190  -3.143  0.00  0.00    +0.145 HD
ATOM     27  H   UNL     1      -8.279   3.137  -2.291  0.00  0.00    +0.145 HD
ENDBRANCH   9  25
BRANCH  10  28
ATOM     28  C   UNL     1      -5.365   0.934  -2.470  0.00  0.00    +0.101 C 
ATOM     29  N   UNL     1      -5.041   0.532  -3.482  0.00  0.00    -0.191 NA
ENDBRANCH  10  28
TORSDOF 3
