REMARK  Name = ZINC39362859
REMARK  9 active torsions:
REMARK  status: ('A' for Active; 'I' for Inactive)
REMARK    1  A    between atoms: C_4  and  C_7
REMARK    2  A    between atoms: C_7  and  C_8
REMARK    3  A    between atoms: C_8  and  N_9
REMARK    4  A    between atoms: C_10  and  C_12
REMARK    5  A    between atoms: C_12  and  S_13
REMARK    6  A    between atoms: S_13  and  C_14
REMARK    7  A    between atoms: C_17  and  C_27
REMARK    8  A    between atoms: N_19  and  C_20
REMARK    9  A    between atoms: C_27  and  C_28
REMARK                            x       y       z     vdW  Elec       q    Type
REMARK                         _______ _______ _______ _____ _____    ______ ____
ROOT
ATOM      1  C   UNL     1       9.569  -3.723   4.044  0.00  0.00    +0.180 C 
ATOM      2  N   UNL     1      10.062  -4.069   2.902  0.00  0.00    -0.162 NA
ATOM      3  N   UNL     1      11.113  -4.981   3.053  0.00  0.00    -0.246 N 
ATOM      4  C   UNL     1      11.259  -5.203   4.502  0.00  0.00    +0.187 C 
ATOM      5  N   UNL     1      10.222  -4.345   5.098  0.00  0.00    -0.258 N 
ATOM      6  H   UNL     1      11.639  -5.386   2.346  0.00  0.00    +0.170 HD
ENDROOT
BRANCH   5   7
ATOM      7  C   UNL     1       9.946  -4.189   6.461  0.00  0.00    +0.038 A 
ATOM      8  C   UNL     1      10.874  -3.575   7.292  0.00  0.00    +0.026 A 
ATOM      9  C   UNL     1      10.600  -3.421   8.637  0.00  0.00    +0.040 A 
ATOM     10  C   UNL     1       9.401  -3.880   9.157  0.00  0.00    +0.124 A 
ATOM     11  C   UNL     1       8.475  -4.492   8.330  0.00  0.00    +0.040 A 
ATOM     12  C   UNL     1       8.742  -4.643   6.983  0.00  0.00    +0.026 A 
ATOM     13  F   UNL     1       9.135  -3.730  10.473  0.00  0.00    -0.205 F 
ENDBRANCH   5   7
BRANCH   1  14
ATOM     14  S   UNL     1       8.234  -2.590   4.239  0.00  0.00    -0.079 S 
BRANCH  14  15
ATOM     15  C   UNL     1       7.804  -2.121   2.541  0.00  0.00    +0.172 C 
BRANCH  15  17
ATOM     16  N   UNL     1       6.167  -0.651   1.409  0.00  0.00    -0.314 N 
ATOM     17  C   UNL     1       6.659  -1.141   2.565  0.00  0.00    +0.223 C 
ATOM     18  O   UNL     1       6.180  -0.794   3.623  0.00  0.00    -0.275 OA
ATOM     19  H   UNL     1       6.550  -0.929   0.563  0.00  0.00    +0.149 HD
BRANCH  16  20
ATOM     20  C   UNL     1       5.054   0.301   1.433  0.00  0.00    +0.109 C 
BRANCH  20  21
ATOM     21  C   UNL     1       4.691   0.697   0.000  0.00  0.00    +0.054 C 
BRANCH  21  25
ATOM     22  C   UNL     1       1.446   3.474   0.066  0.00  0.00    +0.000 A 
ATOM     23  C   UNL     1       2.749   3.933   0.110  0.00  0.00    +0.000 A 
ATOM     24  C   UNL     1       3.799   3.034   0.089  0.00  0.00    +0.004 A 
ATOM     25  C   UNL     1       3.546   1.677   0.024  0.00  0.00    -0.046 A 
ATOM     26  C   UNL     1       2.243   1.218  -0.019  0.00  0.00    +0.004 A 
ATOM     27  C   UNL     1       1.193   2.116   0.000  0.00  0.00    +0.000 A 
ENDBRANCH  21  25
ENDBRANCH  20  21
ENDBRANCH  16  20
ENDBRANCH  15  17
ENDBRANCH  14  15
ENDBRANCH   1  14
BRANCH   4  28
ATOM     28  C   UNL     1      11.015  -6.673   4.848  0.00  0.00    +0.097 C 
BRANCH  28  29
ATOM     29  C   UNL     1      12.108  -7.519   4.247  0.00  0.00    +0.029 A 
ATOM     30  N   UNL     1      12.016  -7.941   2.949  0.00  0.00    -0.311 N 
ATOM     31  C   UNL     1      12.986  -8.696   2.403  0.00  0.00    +0.327 A 
ATOM     32  O   UNL     1      12.884  -9.060   1.247  0.00  0.00    -0.247 OA
ATOM     33  N   UNL     1      14.069  -9.054   3.118  0.00  0.00    -0.275 N 
ATOM     34  C   UNL     1      14.197  -8.659   4.400  0.00  0.00    +0.254 A 
ATOM     35  O   UNL     1      15.177  -8.982   5.048  0.00  0.00    -0.268 OA
ATOM     36  C   UNL     1      13.186  -7.860   4.986  0.00  0.00    +0.091 A 
ATOM     37  H   UNL     1      14.759  -9.598   2.708  0.00  0.00    +0.173 HD
ATOM     38  H   UNL     1      11.243  -7.693   2.417  0.00  0.00    +0.170 HD
ENDBRANCH  28  29
ENDBRANCH   4  28
TORSDOF 9
