REMARK  Name = ZINC15483787
REMARK  7 active torsions:
REMARK  status: ('A' for Active; 'I' for Inactive)
REMARK    1  A    between atoms: C_1  and  C_2
REMARK    2  A    between atoms: C_4  and  C_26
REMARK    3  A    between atoms: C_5  and  S_9
REMARK    4  A    between atoms: C_6  and  C_8
REMARK    5  A    between atoms: S_9  and  C_10
REMARK    6  A    between atoms: C_10  and  C_11
REMARK    7  A    between atoms: N_24  and  C_25
REMARK                            x       y       z     vdW  Elec       q    Type
REMARK                         _______ _______ _______ _____ _____    ______ ____
ROOT
ATOM      1  C   UNL     1       5.615  -1.761  -1.964  0.00  0.00    +0.150 A 
ATOM      2  N   UNL     1       6.788  -1.218  -2.137  0.00  0.00    -0.131 NA
ATOM      3  N   UNL     1       7.687  -2.132  -2.236  0.00  0.00    -0.110 NA
ATOM      4  C   UNL     1       7.132  -3.319  -2.131  0.00  0.00    +0.239 A 
ATOM      5  N   UNL     1       5.796  -3.114  -1.948  0.00  0.00    -0.264 N 
ATOM      6  C   UNL     1       4.924  -4.185  -1.795  0.00  0.00    +0.063 A 
ATOM      7  C   UNL     1       3.564  -3.985  -1.612  0.00  0.00    +0.027 A 
ATOM      8  C   UNL     1       2.724  -5.070  -1.462  0.00  0.00    +0.002 A 
ATOM      9  C   UNL     1       3.227  -6.361  -1.492  0.00  0.00    +0.001 A 
ATOM     10  C   UNL     1       4.576  -6.579  -1.674  0.00  0.00    +0.015 A 
ATOM     11  C   UNL     1       5.435  -5.492  -1.826  0.00  0.00    +0.063 A 
ATOM     12  C   UNL     1       6.884  -5.681  -2.021  0.00  0.00    +0.263 A 
ATOM     13  O   UNL     1       7.364  -6.798  -2.054  0.00  0.00    -0.267 OA
ATOM     14  N   UNL     1       7.668  -4.593  -2.173  0.00  0.00    -0.280 N 
ATOM     15  C   UNL     1       9.110  -4.763  -2.365  0.00  0.00    +0.155 C 
ENDROOT
BRANCH   1  16
ATOM     16  C   UNL     1       4.306  -1.031  -1.804  0.00  0.00    +0.151 C 
BRANCH  16  17
ATOM     17  S   UNL     1       3.916  -0.867  -0.040  0.00  0.00    -0.117 S 
BRANCH  17  22
ATOM     18  C   UNL     1      -1.348   2.086   0.019  0.00  0.00    +0.044 C 
ATOM     19  C   UNL     1      -0.034   1.349   0.009  0.00  0.00    -0.050 A 
ATOM     20  C   UNL     1       1.155   2.056   0.034  0.00  0.00    +0.007 A 
ATOM     21  C   UNL     1       2.361   1.384   0.019  0.00  0.00    -0.037 A 
ATOM     22  C   UNL     1       2.380  -0.005  -0.021  0.00  0.00    +0.014 A 
ATOM     23  C   UNL     1       1.184  -0.713  -0.046  0.00  0.00    -0.037 A 
ATOM     24  C   UNL     1      -0.019  -0.034  -0.031  0.00  0.00    +0.007 A 
ATOM     25  C   UNL     1       1.199  -2.219  -0.090  0.00  0.00    +0.045 C 
ATOM     26  C   UNL     1       3.655   2.156   0.046  0.00  0.00    +0.045 C 
ENDBRANCH  17  22
ENDBRANCH  16  17
ENDBRANCH   1  16
TORSDOF 3
