REMARK  Name = ZINC04231479
REMARK  7 active torsions:
REMARK  status: ('A' for Active; 'I' for Inactive)
REMARK    1  A    between atoms: C_2  and  C_3
REMARK    2  A    between atoms: C_3  and  O_4
REMARK    3  A    between atoms: O_4  and  C_5
REMARK    4  A    between atoms: C_8  and  C_11
REMARK    5  A    between atoms: N_12  and  N_13
REMARK    6  A    between atoms: C_14  and  C_16
REMARK    7  A    between atoms: C_21  and  N_22
REMARK                            x       y       z     vdW  Elec       q    Type
REMARK                         _______ _______ _______ _____ _____    ______ ____
ROOT
ATOM      1  N   UNL     1      -2.408  -0.080  -0.534  0.00  0.00    -0.203 N 
ATOM      2  C   UNL     1      -1.236  -0.740  -0.442  0.00  0.00    +0.265 C 
ATOM      3  O   UNL     1      -1.212  -1.952  -0.542  0.00  0.00    -0.268 OA
ATOM      4  H   UNL     1      -2.428   0.886  -0.454  0.00  0.00    +0.178 HD
ENDROOT
BRANCH   2   5
ATOM      5  C   UNL     1       0.014   0.007  -0.218  0.00  0.00    +0.061 A 
ATOM      6  C   UNL     1      -0.022   1.383   0.023  0.00  0.00    +0.030 A 
ATOM      7  C   UNL     1       1.151   2.076   0.232  0.00  0.00    +0.020 A 
ATOM      8  C   UNL     1       2.369   1.415   0.204  0.00  0.00    +0.032 A 
ATOM      9  C   UNL     1       2.422   0.056  -0.032  0.00  0.00    +0.040 A 
ATOM     10  C   UNL     1       1.249  -0.659  -0.245  0.00  0.00    +0.051 A 
ATOM     11 BR   UNL     1       4.090  -0.833  -0.067  0.00  0.00    -0.048 Br
ATOM     12 BR   UNL     1       1.098   3.938   0.557  0.00  0.00    -0.050 Br
BRANCH  10  13
ATOM     13  N   UNL     1       1.299  -2.028  -0.483  0.00  0.00    -0.357 N 
ATOM     14  H   UNL     1       0.580  -2.462  -0.969  0.00  0.00    +0.142 HD
ATOM     15  H   UNL     1       2.053  -2.548  -0.164  0.00  0.00    +0.142 HD
ENDBRANCH  10  13
ENDBRANCH   2   5
BRANCH   1  17
ATOM     16  C   UNL     1      -4.725  -0.154  -0.836  0.00  0.00    +0.138 C 
ATOM     17  N   UNL     1      -3.597  -0.790  -0.747  0.00  0.00    -0.187 NA
BRANCH  16  21
ATOM     18  C   UNL     1      -8.328  -2.306  -1.482  0.00  0.00    +0.121 A 
ATOM     19  C   UNL     1      -8.359  -0.922  -1.366  0.00  0.00    +0.046 A 
ATOM     20  C   UNL     1      -7.192  -0.220  -1.157  0.00  0.00    +0.013 A 
ATOM     21  C   UNL     1      -5.976  -0.902  -1.060  0.00  0.00    -0.005 A 
ATOM     22  C   UNL     1      -5.949  -2.293  -1.182  0.00  0.00    +0.013 A 
ATOM     23  C   UNL     1      -7.122  -2.988  -1.387  0.00  0.00    +0.046 A 
BRANCH  18  24
ATOM     24  O   UNL     1      -9.480  -2.994  -1.689  0.00  0.00    -0.488 OA
BRANCH  24  25
ATOM     25  C   UNL     1      -9.377  -4.415  -1.799  0.00  0.00    +0.256 C 
BRANCH  25  27
ATOM     26  C   UNL     1     -10.920  -5.925  -2.939  0.00  0.00    +0.007 C 
ATOM     27  C   UNL     1     -10.746  -5.003  -2.025  0.00  0.00    +0.006 C 
ENDBRANCH  25  27
ENDBRANCH  24  25
ENDBRANCH  18  24
ENDBRANCH  16  21
ENDBRANCH   1  17
TORSDOF 7
