REMARK  Name = ZINC13556581
REMARK  9 active torsions:
REMARK  status: ('A' for Active; 'I' for Inactive)
REMARK    1  A    between atoms: C_1  and  C_2
REMARK    2  A    between atoms: C_3  and  C_19
REMARK    3  A    between atoms: C_4  and  C_10
REMARK    4  A    between atoms: C_13  and  O_18
REMARK    5  A    between atoms: C_14  and  O_16
REMARK    6  A    between atoms: O_16  and  C_17
REMARK    7  A    between atoms: N_21  and  C_22
REMARK    8  A    between atoms: C_25  and  O_28
REMARK    9  A    between atoms: O_28  and  C_29
REMARK                            x       y       z     vdW  Elec       q    Type
REMARK                         _______ _______ _______ _____ _____    ______ ____
ROOT
ATOM      1  C   UNL     1      -0.828   0.895   2.240  0.00  0.00    +0.061 C 
ATOM      2  C   UNL     1      -0.462  -0.278   1.369  0.00  0.00    +0.017 C 
ATOM      3  C   UNL     1      -1.393  -0.817   0.554  0.00  0.00    +0.056 C 
ATOM      4  C   UNL     1      -0.982  -1.995  -0.305  0.00  0.00    +0.139 C 
ATOM      5  N   UNL     1       0.410  -2.460  -0.179  0.00  0.00    -0.315 N 
ATOM      6  C   UNL     1       1.224  -1.818   0.682  0.00  0.00    +0.135 C 
ATOM      7  N   UNL     1       0.809  -0.776   1.413  0.00  0.00    -0.300 N 
ATOM      8  S   UNL     1       2.845  -2.348   0.840  0.00  0.00    -0.019 S 
ATOM      9  H   UNL     1       1.446  -0.355   2.012  0.00  0.00    +0.154 HD
ATOM     10  H   UNL     1       0.732  -3.210  -0.702  0.00  0.00    +0.149 HD
ENDROOT
BRANCH   4  11
ATOM     11  C   UNL     1      -1.218  -1.624  -1.747  0.00  0.00    -0.019 A 
ATOM     12  C   UNL     1      -2.240  -2.227  -2.456  0.00  0.00    +0.009 A 
ATOM     13  C   UNL     1      -2.461  -1.890  -3.778  0.00  0.00    +0.049 A 
ATOM     14  C   UNL     1      -1.657  -0.946  -4.396  0.00  0.00    +0.158 A 
ATOM     15  C   UNL     1      -0.628  -0.339  -3.682  0.00  0.00    +0.162 A 
ATOM     16  C   UNL     1      -0.415  -0.677  -2.355  0.00  0.00    +0.055 A 
BRANCH  15  17
ATOM     17  O   UNL     1       0.164   0.589  -4.284  0.00  0.00    -0.491 OA
ATOM     18  C   UNL     1       1.267   1.090  -3.526  0.00  0.00    +0.277 C 
ENDBRANCH  15  17
BRANCH  14  19
ATOM     19  O   UNL     1      -1.872  -0.614  -5.697  0.00  0.00    -0.503 OA
ATOM     20  H   UNL     1      -2.489   0.121  -5.818  0.00  0.00    +0.292 HD
ENDBRANCH  14  19
ENDBRANCH   4  11
BRANCH   3  21
ATOM     21  C   UNL     1      -2.710  -0.297   0.503  0.00  0.00    +0.248 C 
ATOM     22  O   UNL     1      -2.988   0.717   1.117  0.00  0.00    -0.270 OA
ATOM     23  N   UNL     1      -3.654  -0.926  -0.224  0.00  0.00    -0.282 N 
ATOM     24  H   UNL     1      -3.464  -1.788  -0.625  0.00  0.00    +0.155 HD
BRANCH  23  25
ATOM     25  C   UNL     1      -4.911  -0.334  -0.401  0.00  0.00    +0.034 A 
ATOM     26  C   UNL     1      -5.020   1.046  -0.507  0.00  0.00    +0.027 A 
ATOM     27  C   UNL     1      -6.260   1.629  -0.682  0.00  0.00    +0.047 A 
ATOM     28  C   UNL     1      -7.396   0.836  -0.751  0.00  0.00    +0.120 A 
ATOM     29  C   UNL     1      -7.288  -0.543  -0.644  0.00  0.00    +0.047 A 
ATOM     30  C   UNL     1      -6.048  -1.128  -0.475  0.00  0.00    +0.027 A 
BRANCH  28  31
ATOM     31  O   UNL     1      -8.617   1.411  -0.922  0.00  0.00    -0.495 OA
ATOM     32  C   UNL     1      -9.743   0.534  -0.984  0.00  0.00    +0.277 C 
ENDBRANCH  28  31
ENDBRANCH  23  25
ENDBRANCH   3  21
TORSDOF 6
