REMARK  Name = ZINC40551004
REMARK  4 active torsions:
REMARK  status: ('A' for Active; 'I' for Inactive)
REMARK    1  A    between atoms: C_1  and  C_2
REMARK    2  A    between atoms: C_8  and  N_10
REMARK    3  A    between atoms: N_13  and  C_14
REMARK    4  A    between atoms: C_14  and  C_20
REMARK                            x       y       z     vdW  Elec       q    Type
REMARK                         _______ _______ _______ _____ _____    ______ ____
ROOT
ATOM      1  N   UNL     1       0.056  -0.038   2.447  0.00  0.00    -0.296 N 
ATOM      2  C   UNL     1       0.738   0.093   3.602  0.00  0.00    +0.301 C 
ATOM      3  O   UNL     1       1.922  -0.180   3.644  0.00  0.00    -0.253 OA
ATOM      4  N   UNL     1       0.107   0.528   4.711  0.00  0.00    -0.284 N 
ATOM      5  H   UNL     1      -0.888   0.180   2.413  0.00  0.00    +0.151 HD
ATOM      6  H   UNL     1      -0.838   0.746   4.678  0.00  0.00    +0.151 HD
ENDROOT
BRANCH   1  13
ATOM      7  C   UNL     1      -0.019   1.526   0.010  0.00  0.00    +0.009 C 
ATOM      8  C   UNL     1       0.002  -0.004   0.002  0.00  0.00    +0.006 C 
ATOM      9  C   UNL     1       0.718  -0.497  -1.257  0.00  0.00    +0.005 C 
ATOM     10  C   UNL     1       0.739  -2.027  -1.265  0.00  0.00    +0.000 C 
ATOM     11  C   UNL     1       1.479  -2.534  -0.026  0.00  0.00    +0.002 C 
ATOM     12  C   UNL     1       0.763  -2.041   1.233  0.00  0.00    +0.022 C 
ATOM     13  C   UNL     1       0.742  -0.511   1.242  0.00  0.00    +0.077 C 
ENDBRANCH   1  13
BRANCH   4  14
ATOM     14  C   UNL     1       0.848   0.671   5.967  0.00  0.00    +0.137 C 
ATOM     15  C   UNL     1       1.989   1.672   5.774  0.00  0.00    +0.037 C 
ATOM     16  C   UNL     1       1.414   3.029   5.364  0.00  0.00    +0.003 C 
ATOM     17  C   UNL     1       0.471   3.534   6.458  0.00  0.00    +0.000 C 
ATOM     18  C   UNL     1      -0.670   2.534   6.650  0.00  0.00    +0.003 C 
ATOM     19  C   UNL     1      -0.095   1.177   7.060  0.00  0.00    +0.037 C 
BRANCH  14  20
ATOM     20  C   UNL     1       1.415  -0.666   6.371  0.00  0.00    +0.379 C 
ATOM     21  O   UNL     1       1.218  -1.647   5.674  0.00  0.00    -0.244 OA
ATOM     22  O   UNL     1       2.070  -0.766   7.394  0.00  0.00    -0.244 OA
ENDBRANCH  14  20
ENDBRANCH   4  14
TORSDOF 3
