REMARK  Name = ZINC50018365
REMARK  4 active torsions:
REMARK  status: ('A' for Active; 'I' for Inactive)
REMARK    1  A    between atoms: C_2  and  C_19
REMARK    2  A    between atoms: C_3  and  N_18
REMARK    3  A    between atoms: C_6  and  N_7
REMARK    4  A    between atoms: C_11  and  C_14
REMARK                            x       y       z     vdW  Elec       q    Type
REMARK                         _______ _______ _______ _____ _____    ______ ____
ROOT
ATOM      1  C   UNL     1      -0.078   1.253   0.014  0.00  0.00    +0.043 A 
ATOM      2  C   UNL     1       1.050   2.082  -0.024  0.00  0.00    +0.086 A 
ATOM      3  C   UNL     1       2.333   1.510  -0.043  0.00  0.00    +0.042 A 
ATOM      4  C   UNL     1       2.472   0.128  -0.025  0.00  0.00    +0.063 A 
ATOM      5  C   UNL     1       1.353  -0.681   0.012  0.00  0.00    +0.146 A 
ATOM      6  C   UNL     1       0.077  -0.118   0.032  0.00  0.00    +0.066 A 
ATOM      7  F   UNL     1       1.496  -2.024   0.029  0.00  0.00    -0.203 F 
ENDROOT
BRANCH   6   8
ATOM      8  N   UNL     1      -1.052  -0.949   0.070  0.00  0.00    -0.327 N 
ATOM      9  C   UNL     1      -1.630  -1.367   1.354  0.00  0.00    +0.105 C 
ATOM     10  C   UNL     1      -3.121  -1.015   1.362  0.00  0.00    +0.020 C 
ATOM     11  C   UNL     1      -3.795  -1.636   0.137  0.00  0.00    +0.016 C 
ATOM     12  C   UNL     1      -3.170  -1.063  -1.137  0.00  0.00    +0.092 C 
ATOM     13  C   UNL     1      -1.683  -1.412  -1.174  0.00  0.00    +0.118 C 
BRANCH  12  14
ATOM     14  C   UNL     1      -3.856  -1.651  -2.343  0.00  0.00    +0.215 C 
ATOM     15  O   UNL     1      -3.218  -2.288  -3.154  0.00  0.00    -0.276 OA
ATOM     16  N   UNL     1      -5.180  -1.470  -2.520  0.00  0.00    -0.329 N 
ATOM     17  H   UNL     1      -5.691  -0.960  -1.871  0.00  0.00    +0.145 HD
ATOM     18  H   UNL     1      -5.622  -1.848  -3.296  0.00  0.00    +0.145 HD
ENDBRANCH  12  14
ENDBRANCH   6   8
BRANCH   3  19
ATOM     19  N   UNL     1       3.459   2.323  -0.081  0.00  0.00    -0.357 N 
ATOM     20  H   UNL     1       3.365   3.286  -0.010  0.00  0.00    +0.142 HD
ATOM     21  H   UNL     1       4.340   1.928  -0.179  0.00  0.00    +0.142 HD
ENDBRANCH   3  19
BRANCH   2  22
ATOM     22  C   UNL     1       0.894   3.543  -0.044  0.00  0.00    +0.388 C 
ATOM     23  O   UNL     1      -0.222   4.037  -0.143  0.00  0.00    -0.241 OA
ATOM     24  O   UNL     1       1.878   4.265   0.040  0.00  0.00    -0.241 OA
ENDBRANCH   2  22
TORSDOF 4
