REMARK  Name = ZINC32125375
REMARK  5 active torsions:
REMARK  status: ('A' for Active; 'I' for Inactive)
REMARK    1  A    between atoms: C_10  and  C_12
REMARK    2  A    between atoms: N_14  and  C_15
REMARK    3  A    between atoms: C_15  and  N_17
REMARK    4  A    between atoms: N_17  and  C_18
REMARK    5  A    between atoms: C_19  and  C_28
REMARK                            x       y       z     vdW  Elec       q    Type
REMARK                         _______ _______ _______ _____ _____    ______ ____
ROOT
ATOM      1  C   UNL     1       6.603  -2.413   1.580  0.00  0.00    +0.141 C 
ATOM      2  S   UNL     1       7.026  -1.268   0.380  0.00  0.00    -0.018 S 
ENDROOT
BRANCH   1   5
ATOM      3  C   UNL     1       8.832  -3.094   1.715  0.00  0.00    +0.250 C 
ATOM      4  O   UNL     1       9.132  -2.281   0.862  0.00  0.00    -0.270 OA
ATOM      5  N   UNL     1       7.551  -3.204   2.120  0.00  0.00    -0.264 N 
ATOM      6  H   UNL     1       7.280  -3.940   2.892  0.00  0.00    +0.157 HD
BRANCH   3  16
ATOM      7  C   UNL     1      10.543  -5.627   3.912  0.00  0.00    +0.001 A 
ATOM      8  C   UNL     1      11.825  -5.623   3.453  0.00  0.00    +0.009 A 
ATOM      9  C   UNL     1      12.203  -4.785   2.391  0.00  0.00    -0.003 A 
ATOM     10  C   UNL     1      11.238  -3.938   1.795  0.00  0.00    -0.005 A 
ATOM     11  C   UNL     1      11.611  -3.100   0.737  0.00  0.00    +0.009 A 
ATOM     12  C   UNL     1      12.899  -3.111   0.291  0.00  0.00    +0.002 A 
ATOM     13  C   UNL     1      13.851  -3.943   0.874  0.00  0.00    +0.016 A 
ATOM     14  C   UNL     1      13.523  -4.770   1.906  0.00  0.00    +0.026 A 
ATOM     15 BR   UNL     1      14.834  -5.891   2.680  0.00  0.00    -0.050 Br
ATOM     16  C   UNL     1       9.868  -3.959   2.305  0.00  0.00    +0.045 A 
ATOM     17  C   UNL     1       9.566  -4.809   3.362  0.00  0.00    +0.014 A 
ENDBRANCH   3  16
ENDBRANCH   1   5
BRANCH   1  18
ATOM     18  N   UNL     1       5.322  -2.523   1.986  0.00  0.00    -0.291 N 
ATOM     19  H   UNL     1       5.051  -3.259   2.757  0.00  0.00    +0.154 HD
BRANCH  18  20
ATOM     20  C   UNL     1       4.348  -1.709   1.431  0.00  0.00    +0.084 A 
ATOM     21  C   UNL     1       2.991  -1.674   1.714  0.00  0.00    +0.068 A 
ATOM     22  C   UNL     1       2.172  -0.713   0.986  0.00  0.00    -0.023 A 
ATOM     23  C   UNL     1       2.842   0.044   0.092  0.00  0.00    -0.004 A 
ATOM     24  S   UNL     1       4.528  -0.489   0.215  0.00  0.00    -0.077 S 
ATOM     25  C   UNL     1       2.285   1.093  -0.819  0.00  0.00    +0.043 C 
ATOM     26  C   UNL     1       1.392   2.044  -0.010  0.00  0.00    +0.005 C 
ATOM     27  C   UNL     1      -0.030   1.492  -0.016  0.00  0.00    +0.001 C 
ATOM     28  C   UNL     1      -0.001  -0.035  -0.039  0.00  0.00    +0.005 C 
ATOM     29  C   UNL     1       0.673  -0.574   1.219  0.00  0.00    +0.037 C 
BRANCH  21  30
ATOM     30  C   UNL     1       2.401  -2.571   2.711  0.00  0.00    +0.244 C 
ATOM     31  O   UNL     1       1.980  -3.662   2.375  0.00  0.00    -0.270 OA
ATOM     32  N   UNL     1       2.324  -2.187   4.001  0.00  0.00    -0.325 N 
ATOM     33  H   UNL     1       1.882  -2.861   4.750  0.00  0.00    +0.145 HD
ATOM     34  H   UNL     1       2.705  -1.201   4.305  0.00  0.00    +0.145 HD
ENDBRANCH  21  30
ENDBRANCH  18  20
ENDBRANCH   1  18
TORSDOF 5
