REMARK  Name = ZINC14256768
REMARK  8 active torsions:
REMARK  status: ('A' for Active; 'I' for Inactive)
REMARK    1  A    between atoms: C_1  and  C_2
REMARK    2  A    between atoms: C_2  and  C_3
REMARK    3  A    between atoms: C_2  and  C_4
REMARK    4  A    between atoms: C_7  and  S_10
REMARK    5  A    between atoms: S_10  and  N_13
REMARK    6  A    between atoms: N_13  and  C_14
REMARK    7  A    between atoms: C_17  and  S_20
REMARK    8  A    between atoms: S_20  and  N_23
REMARK                            x       y       z     vdW  Elec       q    Type
REMARK                         _______ _______ _______ _____ _____    ______ ____
ROOT
ATOM      1  N   UNL     1       1.238  -2.074  -0.024  0.00  0.00    -0.216 N 
ATOM      2  H   UNL     1       0.629  -1.405  -0.374  0.00  0.00    +0.174 HD
ENDROOT
BRANCH   1   3
ATOM      3  C   UNL     1       1.184  -2.429   1.326  0.00  0.00    +0.048 A 
ATOM      4  C   UNL     1       1.111  -1.444   2.303  0.00  0.00    +0.026 A 
ATOM      5  C   UNL     1       1.058  -1.798   3.636  0.00  0.00    +0.030 A 
ATOM      6  C   UNL     1       1.078  -3.132   4.000  0.00  0.00    +0.105 A 
ATOM      7  C   UNL     1       1.151  -4.116   3.030  0.00  0.00    +0.030 A 
ATOM      8  C   UNL     1       1.204  -3.768   1.695  0.00  0.00    +0.026 A 
BRANCH   6   9
ATOM      9  S   UNL     1       1.011  -3.581   5.703  0.00  0.00    +0.056 S 
ATOM     10  O   UNL     1       1.593  -4.873   5.806  0.00  0.00    -0.153 OA
ATOM     11  O   UNL     1       1.498  -2.465   6.436  0.00  0.00    -0.153 OA
BRANCH   9  12
ATOM     12  N   UNL     1      -0.587  -3.748   6.103  0.00  0.00    -0.204 NA
ATOM     13  H   UNL     1      -0.851  -4.374   6.795  0.00  0.00    +0.144 HD
ATOM     14  H   UNL     1      -1.260  -3.220   5.644  0.00  0.00    +0.144 HD
ENDBRANCH   9  12
ENDBRANCH   6   9
ENDBRANCH   1   3
BRANCH   1  15
ATOM     15  S   UNL     1       2.341  -2.795  -1.026  0.00  0.00    +0.072 S 
ATOM     16  O   UNL     1       2.182  -4.197  -0.864  0.00  0.00    -0.150 OA
ATOM     17  O   UNL     1       2.220  -2.156  -2.290  0.00  0.00    -0.150 OA
BRANCH  15  21
ATOM     18  C   UNL     1       6.457  -1.767   0.554  0.00  0.00    -0.045 A 
ATOM     19  C   UNL     1       5.855  -2.958   0.916  0.00  0.00    +0.006 A 
ATOM     20  C   UNL     1       4.598  -3.272   0.433  0.00  0.00    +0.029 A 
ATOM     21  C   UNL     1       3.943  -2.395  -0.411  0.00  0.00    +0.109 A 
ATOM     22  C   UNL     1       4.548  -1.207  -0.777  0.00  0.00    +0.029 A 
ATOM     23  C   UNL     1       5.803  -0.891  -0.291  0.00  0.00    +0.006 A 
BRANCH  18  25
ATOM     24  C   UNL     1       8.795  -1.250  -0.091  0.00  0.00    +0.012 C 
ATOM     25  C   UNL     1       7.827  -1.425   1.081  0.00  0.00    +0.013 C 
ATOM     26  C   UNL     1       7.754  -0.123   1.881  0.00  0.00    +0.012 C 
ENDBRANCH  18  25
ENDBRANCH  15  21
ENDBRANCH   1  15
TORSDOF 6
