REMARK  Name = ZINC17080372
REMARK  11 active torsions:
REMARK  status: ('A' for Active; 'I' for Inactive)
REMARK    1  A    between atoms: C_1  and  C_2
REMARK    2  A    between atoms: C_2  and  C_3
REMARK    3  A    between atoms: C_2  and  C_4
REMARK    4  A    between atoms: C_7  and  N_10
REMARK    5  A    between atoms: N_13  and  N_14
REMARK    6  A    between atoms: N_14  and  S_15
REMARK    7  A    between atoms: S_15  and  C_18
REMARK    8  A    between atoms: C_21  and  O_26
REMARK    9  A    between atoms: C_22  and  O_24
REMARK   10  A    between atoms: O_24  and  C_25
REMARK   11  A    between atoms: O_26  and  C_27
REMARK                            x       y       z     vdW  Elec       q    Type
REMARK                         _______ _______ _______ _____ _____    ______ ____
ROOT
ATOM      1  N   UNL     1      -0.240   3.153  -3.630  0.00  0.00    -0.268 N 
ATOM      2  C   UNL     1      -0.871   3.846  -2.662  0.00  0.00    +0.319 C 
ATOM      3  O   UNL     1      -1.145   5.018  -2.833  0.00  0.00    -0.251 OA
ATOM      4  N   UNL     1      -1.199   3.240  -1.504  0.00  0.00    -0.215 N 
ATOM      5  H   UNL     1       0.038   2.238  -3.469  0.00  0.00    +0.156 HD
ATOM      6  H   UNL     1      -1.653   3.739  -0.806  0.00  0.00    +0.172 HD
ENDROOT
BRANCH   1  10
ATOM      7  C   UNL     1       0.516   4.941  -7.317  0.00  0.00    -0.045 A 
ATOM      8  C   UNL     1       0.570   5.696  -6.160  0.00  0.00    +0.006 A 
ATOM      9  C   UNL     1       0.320   5.106  -4.936  0.00  0.00    +0.023 A 
ATOM     10  C   UNL     1       0.013   3.753  -4.869  0.00  0.00    +0.035 A 
ATOM     11  C   UNL     1      -0.035   2.997  -6.032  0.00  0.00    +0.023 A 
ATOM     12  C   UNL     1       0.211   3.594  -7.253  0.00  0.00    +0.006 A 
BRANCH   7  14
ATOM     13  C   UNL     1       1.988   4.905  -9.312  0.00  0.00    +0.012 C 
ATOM     14  C   UNL     1       0.789   5.587  -8.650  0.00  0.00    +0.013 C 
ATOM     15  C   UNL     1      -0.441   5.442  -9.549  0.00  0.00    +0.012 C 
ENDBRANCH   7  14
ENDBRANCH   1  10
BRANCH   4  16
ATOM     16  N   UNL     1      -0.884   1.889  -1.306  0.00  0.00    -0.107 NA
ATOM     17  H   UNL     1      -1.185   1.223  -1.944  0.00  0.00    +0.172 HD
BRANCH  16  18
ATOM     18  S   UNL     1       0.003   1.430   0.015  0.00  0.00    +0.074 S 
ATOM     19  O   UNL     1       0.031   0.010   0.012  0.00  0.00    -0.152 OA
ATOM     20  O   UNL     1       1.187   2.216   0.002  0.00  0.00    -0.152 OA
BRANCH  18  21
ATOM     21  C   UNL     1      -0.906   1.913   1.445  0.00  0.00    +0.110 A 
ATOM     22  C   UNL     1      -0.701   3.161   2.004  0.00  0.00    +0.032 A 
ATOM     23  C   UNL     1      -1.415   3.546   3.123  0.00  0.00    +0.051 A 
ATOM     24  C   UNL     1      -2.331   2.677   3.694  0.00  0.00    +0.162 A 
ATOM     25  C   UNL     1      -2.533   1.419   3.135  0.00  0.00    +0.163 A 
ATOM     26  C   UNL     1      -1.818   1.041   2.010  0.00  0.00    +0.078 A 
BRANCH  25  27
ATOM     27  O   UNL     1      -3.431   0.562   3.691  0.00  0.00    -0.491 OA
ATOM     28  C   UNL     1      -3.586  -0.712   3.064  0.00  0.00    +0.277 C 
ENDBRANCH  25  27
BRANCH  24  29
ATOM     29  O   UNL     1      -3.031   3.053   4.797  0.00  0.00    -0.491 OA
ATOM     30  C   UNL     1      -2.772   4.359   5.316  0.00  0.00    +0.277 C 
ENDBRANCH  24  29
ENDBRANCH  18  21
ENDBRANCH  16  18
ENDBRANCH   4  16
TORSDOF 7
