REMARK  Name = ZINC49127069
REMARK  6 active torsions:
REMARK  status: ('A' for Active; 'I' for Inactive)
REMARK    1  A    between atoms: C_1  and  C_2
REMARK    2  A    between atoms: C_2  and  C_4
REMARK    3  A    between atoms: C_2  and  N_10
REMARK    4  A    between atoms: N_10  and  S_11
REMARK    5  A    between atoms: S_11  and  C_14
REMARK    6  A    between atoms: C_15  and  N_22
REMARK                            x       y       z     vdW  Elec       q    Type
REMARK                         _______ _______ _______ _____ _____    ______ ____
ROOT
ATOM      1  S   UNL     1      -0.703  -1.258  -3.370  0.00  0.00    +0.062 S 
ATOM      2  O   UNL     1      -0.131  -1.611  -4.622  0.00  0.00    -0.153 OA
ATOM      3  O   UNL     1      -1.813  -1.952  -2.816  0.00  0.00    -0.153 OA
ENDROOT
BRANCH   1   4
ATOM      4  C   UNL     1      -1.178   0.435  -3.493  0.00  0.00    +0.140 A 
ATOM      5  C   UNL     1      -2.249   0.912  -2.749  0.00  0.00    +0.053 A 
ATOM      6  C   UNL     1      -2.620   2.247  -2.849  0.00  0.00    +0.040 A 
ATOM      7  C   UNL     1      -1.923   3.096  -3.687  0.00  0.00    +0.021 A 
ATOM      8  C   UNL     1      -0.856   2.618  -4.427  0.00  0.00    +0.032 A 
ATOM      9  C   UNL     1      -0.481   1.290  -4.325  0.00  0.00    +0.047 A 
ATOM     10 BR   UNL     1       0.983   0.642  -5.332  0.00  0.00    -0.048 Br
ATOM     11 BR   UNL     1      -2.427   4.913  -3.823  0.00  0.00    -0.050 Br
BRANCH   5  12
ATOM     12  N   UNL     1      -2.953   0.051  -1.904  0.00  0.00    -0.356 N 
ATOM     13  H   UNL     1      -2.511  -0.725  -1.525  0.00  0.00    +0.142 HD
ATOM     14  H   UNL     1      -3.883   0.230  -1.695  0.00  0.00    +0.142 HD
ENDBRANCH   5  12
ENDBRANCH   1   4
BRANCH   1  15
ATOM     15  N   UNL     1       0.515  -1.344  -2.252  0.00  0.00    -0.182 NA
ATOM     16  H   UNL     1       1.405  -1.617  -2.524  0.00  0.00    +0.149 HD
BRANCH  15  18
ATOM     17  C   UNL     1       0.615   0.454  -0.598  0.00  0.00    +0.031 C 
ATOM     18  C   UNL     1       0.248  -1.009  -0.851  0.00  0.00    +0.110 C 
BRANCH  18  19
ATOM     19  C   UNL     1       1.075  -1.896   0.044  0.00  0.00    +0.009 A 
ATOM     20  C   UNL     1       0.728  -2.494   1.210  0.00  0.00    +0.014 A 
ATOM     21  C   UNL     1       1.661  -3.273   1.868  0.00  0.00    +0.028 A 
ATOM     22  C   UNL     1       2.897  -3.417   1.327  0.00  0.00    +0.078 A 
ATOM     23  S   UNL     1       2.764  -2.438  -0.161  0.00  0.00    -0.080 S 
ATOM     24 CL   UNL     1       4.253  -4.322   1.922  0.00  0.00    -0.076 Cl
ENDBRANCH  18  19
ENDBRANCH  15  18
ENDBRANCH   1  15
TORSDOF 5
