REMARK  Name = ZINC36964216
REMARK  5 active torsions:
REMARK  status: ('A' for Active; 'I' for Inactive)
REMARK    1  A    between atoms: C_3  and  N_22
REMARK    2  A    between atoms: C_4  and  N_19
REMARK    3  A    between atoms: C_6  and  S_7
REMARK    4  A    between atoms: S_7  and  N_10
REMARK    5  A    between atoms: N_10  and  C_11
REMARK                            x       y       z     vdW  Elec       q    Type
REMARK                         _______ _______ _______ _____ _____    ______ ____
ROOT
ATOM      1  C   UNL     1       0.005   1.371  -0.252  0.00  0.00    +0.030 A 
ATOM      2  C   UNL     1       1.205   2.053  -0.311  0.00  0.00    +0.027 A 
ATOM      3  C   UNL     1       2.396   1.381  -0.064  0.00  0.00    +0.055 A 
ATOM      4  C   UNL     1       2.375   0.026   0.242  0.00  0.00    +0.149 A 
ATOM      5  C   UNL     1       1.172  -0.648   0.299  0.00  0.00    +0.063 A 
ATOM      6  C   UNL     1      -0.012   0.023   0.053  0.00  0.00    +0.108 A 
ENDROOT
BRANCH   6   7
ATOM      7  S   UNL     1      -1.545  -0.842   0.128  0.00  0.00    +0.059 S 
ATOM      8  O   UNL     1      -1.335  -1.970   0.967  0.00  0.00    -0.153 OA
ATOM      9  O   UNL     1      -2.547   0.129   0.394  0.00  0.00    -0.153 OA
BRANCH   7  10
ATOM     10  N   UNL     1      -1.849  -1.432  -1.389  0.00  0.00    -0.185 NA
ATOM     11  H   UNL     1      -2.612  -1.107  -1.892  0.00  0.00    +0.148 HD
BRANCH  10  12
ATOM     12  C   UNL     1      -0.966  -2.445  -1.972  0.00  0.00    +0.099 C 
ATOM     13  C   UNL     1      -1.557  -3.843  -1.720  0.00  0.00    +0.044 C 
ATOM     14  C   UNL     1      -0.783  -4.862  -2.605  0.00  0.00    +0.167 C 
ATOM     15  S   UNL     1      -0.613  -3.894  -4.164  0.00  0.00    -0.029 S 
ATOM     16  O   UNL     1       0.715  -4.032  -4.651  0.00  0.00    -0.174 OA
ATOM     17  O   UNL     1      -1.706  -4.199  -5.019  0.00  0.00    -0.174 OA
ATOM     18  C   UNL     1      -0.832  -2.197  -3.494  0.00  0.00    +0.186 C 
ENDBRANCH  10  12
ENDBRANCH   7  10
ENDBRANCH   6   7
BRANCH   4  19
ATOM     19  N   UNL     1       3.641  -0.693   0.505  0.00  0.00    +0.058 N 
ATOM     20  O   UNL     1       3.782  -1.830   0.121  0.00  0.00    -0.126 OA
ATOM     21  O   UNL     1       4.536  -0.143   1.105  0.00  0.00    -0.126 OA
ENDBRANCH   4  19
BRANCH   3  22
ATOM     22  N   UNL     1       3.611   2.067  -0.124  0.00  0.00    -0.356 N 
ATOM     23  H   UNL     1       3.619   3.032  -0.227  0.00  0.00    +0.142 HD
ATOM     24  H   UNL     1       4.447   1.579  -0.063  0.00  0.00    +0.142 HD
ENDBRANCH   3  22
TORSDOF 5
