REMARK  Name = ZINC18174587
REMARK  7 active torsions:
REMARK  status: ('A' for Active; 'I' for Inactive)
REMARK    1  A    between atoms: C_1  and  C_2
REMARK    2  A    between atoms: C_5  and  N_8
REMARK    3  A    between atoms: N_11  and  C_12
REMARK    4  A    between atoms: N_11  and  C_13
REMARK    5  A    between atoms: C_13  and  C_14
REMARK    6  A    between atoms: N_16  and  C_17
REMARK    7  A    between atoms: C_22  and  C_23
REMARK                            x       y       z     vdW  Elec       q    Type
REMARK                         _______ _______ _______ _____ _____    ______ ____
ROOT
ATOM      1  N   UNL     1       0.048  -4.151  -0.006  0.00  0.00    -0.269 N 
ATOM      2  C   UNL     1       0.165  -4.833   1.151  0.00  0.00    +0.307 C 
ATOM      3  O   UNL     1       0.157  -4.238   2.211  0.00  0.00    -0.252 OA
ATOM      4  N   UNL     1       0.292  -6.175   1.132  0.00  0.00    -0.280 N 
ATOM      5  C   UNL     1       0.302  -6.892  -0.145  0.00  0.00    +0.134 C 
ATOM      6  H   UNL     1      -0.011  -4.630  -0.847  0.00  0.00    +0.156 HD
ENDROOT
BRANCH   1  11
ATOM      7  C   UNL     1      -0.095   1.520   0.048  0.00  0.00    +0.044 C 
ATOM      8  C   UNL     1      -0.057   0.014   0.034  0.00  0.00    -0.050 A 
ATOM      9  C   UNL     1      -0.643  -0.701   1.063  0.00  0.00    +0.005 A 
ATOM     10  C   UNL     1      -0.609  -2.082   1.052  0.00  0.00    +0.023 A 
ATOM     11  C   UNL     1       0.013  -2.752   0.007  0.00  0.00    +0.035 A 
ATOM     12  C   UNL     1       0.599  -2.031  -1.024  0.00  0.00    +0.023 A 
ATOM     13  C   UNL     1       0.558  -0.651  -1.011  0.00  0.00    +0.005 A 
ENDBRANCH   1  11
BRANCH   4  14
ATOM     14  C   UNL     1       0.419  -6.916   2.390  0.00  0.00    +0.205 C 
BRANCH  14  15
ATOM     15  C   UNL     1      -0.951  -7.304   2.885  0.00  0.00    +0.235 C 
ATOM     16  O   UNL     1      -1.936  -6.992   2.250  0.00  0.00    -0.274 OA
ATOM     17  N   UNL     1      -1.080  -7.997   4.033  0.00  0.00    -0.284 N 
ATOM     18  H   UNL     1      -0.299  -8.190   4.575  0.00  0.00    +0.155 HD
BRANCH  17  19
ATOM     19  C   UNL     1      -2.343  -8.441   4.444  0.00  0.00    +0.036 A 
ATOM     20  C   UNL     1      -3.469  -7.669   4.187  0.00  0.00    +0.024 A 
ATOM     21  C   UNL     1      -4.713  -8.109   4.593  0.00  0.00    +0.017 A 
ATOM     22  C   UNL     1      -4.839  -9.317   5.256  0.00  0.00    +0.018 A 
ATOM     23  C   UNL     1      -3.719 -10.088   5.513  0.00  0.00    +0.020 A 
ATOM     24  C   UNL     1      -2.473  -9.655   5.104  0.00  0.00    -0.028 A 
ATOM     25  C   UNL     1      -1.254 -10.498   5.379  0.00  0.00    +0.046 C 
ATOM     26 BR   UNL     1      -6.544  -9.915   5.812  0.00  0.00    -0.050 Br
ENDBRANCH  17  19
ENDBRANCH  14  15
ENDBRANCH   4  14
TORSDOF 4
