REMARK  Name = ZINC01200814
REMARK  9 active torsions:
REMARK  status: ('A' for Active; 'I' for Inactive)
REMARK    1  A    between atoms: C_1  and  C_2
REMARK    2  A    between atoms: C_2  and  N_3
REMARK    3  A    between atoms: N_3  and  C_4
REMARK    4  A    between atoms: C_4  and  C_5
REMARK    5  A    between atoms: C_6  and  C_8
REMARK    6  A    between atoms: C_9  and  C_28
REMARK    7  A    between atoms: C_10  and  C_25
REMARK    8  A    between atoms: C_11  and  N_13
REMARK    9  A    between atoms: N_16  and  C_17
REMARK                            x       y       z     vdW  Elec       q    Type
REMARK                         _______ _______ _______ _____ _____    ______ ____
ROOT
ATOM      1  C   UNL     1      -0.534   1.809  -0.142  0.00  0.00    +0.079 A 
ATOM      2  C   UNL     1      -0.666   0.455  -0.292  0.00  0.00    -0.017 A 
ATOM      3  C   UNL     1       0.488  -0.285  -0.499  0.00  0.00    +0.069 A 
ATOM      4  C   UNL     1       1.704   0.404  -0.541  0.00  0.00    +0.086 A 
ATOM      5  S   UNL     1       1.226   2.051  -0.293  0.00  0.00    -0.068 S 
ATOM      6  C   UNL     1      -2.018  -0.208  -0.233  0.00  0.00    +0.046 C 
ENDROOT
BRANCH   4   7
ATOM      7  N   UNL     1       2.974  -0.104  -0.732  0.00  0.00    -0.263 N 
ATOM      8  C   UNL     1       4.037   0.725  -0.741  0.00  0.00    +0.308 C 
ATOM      9  O   UNL     1       3.878   1.919  -0.581  0.00  0.00    -0.252 OA
ATOM     10  N   UNL     1       5.277   0.229  -0.927  0.00  0.00    -0.269 N 
ATOM     11  H   UNL     1       3.102  -1.057  -0.860  0.00  0.00    +0.157 HD
ATOM     12  H   UNL     1       5.397  -0.712  -1.132  0.00  0.00    +0.156 HD
BRANCH  10  13
ATOM     13  C   UNL     1       6.390   1.072  -0.826  0.00  0.00    +0.036 A 
ATOM     14  C   UNL     1       7.504   0.852  -1.626  0.00  0.00    +0.025 A 
ATOM     15  C   UNL     1       8.599   1.687  -1.528  0.00  0.00    +0.023 A 
ATOM     16  C   UNL     1       8.592   2.737  -0.626  0.00  0.00    +0.059 A 
ATOM     17  C   UNL     1       7.485   2.956   0.176  0.00  0.00    +0.061 A 
ATOM     18  C   UNL     1       6.384   2.125   0.078  0.00  0.00    +0.044 A 
ATOM     19 CL   UNL     1       7.479   4.274   1.306  0.00  0.00    -0.082 Cl
ATOM     20 CL   UNL     1       9.973   3.781  -0.501  0.00  0.00    -0.082 Cl
ENDBRANCH  10  13
ENDBRANCH   4   7
BRANCH   3  21
ATOM     21  C   UNL     1       0.434  -1.743  -0.669  0.00  0.00    +0.244 C 
ATOM     22  O   UNL     1       0.305  -2.221  -1.781  0.00  0.00    -0.270 OA
ATOM     23  N   UNL     1       0.528  -2.550   0.406  0.00  0.00    -0.325 N 
ATOM     24  H   UNL     1       0.631  -2.169   1.291  0.00  0.00    +0.145 HD
ATOM     25  H   UNL     1       0.493  -3.513   0.293  0.00  0.00    +0.145 HD
ENDBRANCH   3  21
BRANCH   1  27
ATOM     26  N   UNL     1      -1.242   4.090   0.338  0.00  0.00    -0.298 N 
ATOM     27  C   UNL     1      -1.579   2.810   0.081  0.00  0.00    +0.254 C 
ATOM     28  O   UNL     1      -2.752   2.487   0.033  0.00  0.00    -0.269 OA
BRANCH  26  30
ATOM     29  C   UNL     1      -2.674   5.301   1.907  0.00  0.00    +0.024 C 
ATOM     30  C   UNL     1      -2.284   5.115   0.440  0.00  0.00    +0.105 C 
ENDBRANCH  26  30
BRANCH  26  31
ATOM     31  C   UNL     1       0.165   4.455   0.515  0.00  0.00    +0.105 C 
ATOM     32  C   UNL     1       0.775   4.811  -0.843  0.00  0.00    +0.024 C 
ENDBRANCH  26  31
ENDBRANCH   1  27
TORSDOF 6
