REMARK  Name = ZINC04016167
REMARK  3 active torsions:
REMARK  status: ('A' for Active; 'I' for Inactive)
REMARK    1  A    between atoms: C_5  and  N_7
REMARK    2  A    between atoms: C_13  and  S_19
REMARK    3  A    between atoms: C_14  and  O_18
REMARK                            x       y       z     vdW  Elec       q    Type
REMARK                         _______ _______ _______ _____ _____    ______ ____
ROOT
ATOM      1  C   UNL     1      -0.006   1.084   0.167  0.00  0.00    +0.003 A 
ATOM      2  C   UNL     1       1.183   1.779   0.003  0.00  0.00    +0.012 A 
ATOM      3  C   UNL     1       1.166   3.159  -0.151  0.00  0.00    +0.035 A 
ATOM      4  C   UNL     1      -0.062   3.850  -0.137  0.00  0.00    +0.054 A 
ATOM      5  C   UNL     1      -1.254   3.137   0.030  0.00  0.00    +0.036 A 
ATOM      6  C   UNL     1      -1.213   1.750   0.176  0.00  0.00    +0.023 A 
ATOM      7  C   UNL     1      -0.079   5.315  -0.298  0.00  0.00    +0.196 C 
ATOM      8  O   UNL     1      -1.084   5.950  -0.043  0.00  0.00    -0.287 OA
ATOM      9  C   UNL     1       1.141   6.003  -0.774  0.00  0.00    +0.037 A 
ATOM     10  C   UNL     1       1.086   7.323  -1.205  0.00  0.00    +0.014 A 
ATOM     11  C   UNL     1       2.236   7.954  -1.651  0.00  0.00    +0.034 A 
ATOM     12  C   UNL     1       3.443   7.284  -1.671  0.00  0.00    +0.161 A 
ATOM     13  C   UNL     1       3.521   5.962  -1.242  0.00  0.00    +0.156 A 
ATOM     14  C   UNL     1       2.369   5.313  -0.789  0.00  0.00    +0.076 A 
ATOM     15  C   UNL     1       2.427   3.913  -0.329  0.00  0.00    +0.198 C 
ATOM     16  O   UNL     1       3.497   3.384  -0.100  0.00  0.00    -0.286 OA
ENDROOT
BRANCH  12  17
ATOM     17  S   UNL     1       4.892   8.107  -2.242  0.00  0.00    +0.143 S 
ATOM     18  O   UNL     1       5.404   8.841  -1.139  0.00  0.00    -0.140 OA
ATOM     19  O   UNL     1       5.664   7.135  -2.935  0.00  0.00    -0.140 OA
ATOM     20  O   UNL     1       4.450   9.130  -3.278  0.00  0.00    -0.043 OA
ENDBRANCH  12  17
BRANCH   5  21
ATOM     21  N   UNL     1      -2.470   3.804   0.045  0.00  0.00    -0.357 N 
ATOM     22  H   UNL     1      -2.532   4.707  -0.305  0.00  0.00    +0.142 HD
ATOM     23  H   UNL     1      -3.258   3.368   0.405  0.00  0.00    +0.142 HD
ENDBRANCH   5  21
BRANCH  13  24
ATOM     24  O   UNL     1       4.708   5.308  -1.263  0.00  0.00    -0.504 OA
ATOM     25  H   UNL     1       4.886   4.841  -2.091  0.00  0.00    +0.292 HD
ENDBRANCH  13  24
TORSDOF 3
