REMARK  Name = ZINC59913439
REMARK  9 active torsions:
REMARK  status: ('A' for Active; 'I' for Inactive)
REMARK    1  A    between atoms: C_1  and  C_2
REMARK    2  A    between atoms: C_2  and  C_3
REMARK    3  A    between atoms: C_2  and  C_4
REMARK    4  A    between atoms: C_7  and  S_10
REMARK    5  A    between atoms: N_8  and  N_9
REMARK    6  A    between atoms: S_10  and  C_11
REMARK    7  A    between atoms: C_11  and  C_12
REMARK    8  A    between atoms: C_12  and  C_13
REMARK    9  A    between atoms: N_15  and  C_16
REMARK                            x       y       z     vdW  Elec       q    Type
REMARK                         _______ _______ _______ _____ _____    ______ ____
ROOT
ATOM      1  C   UNL     1      -5.954  -2.355  -0.258  0.00  0.00    +0.086 C 
ENDROOT
BRANCH   1   2
ATOM      2  S   UNL     1      -4.508  -2.467  -1.348  0.00  0.00    -0.084 S 
BRANCH   2   6
ATOM      3  C   UNL     1      -1.429  -0.481  -0.011  0.00  0.00    +0.154 A 
ATOM      4  N   UNL     1      -2.325  -0.265   0.910  0.00  0.00    -0.132 NA
ATOM      5  N   UNL     1      -3.421  -0.865   0.609  0.00  0.00    -0.121 NA
ATOM      6  C   UNL     1      -3.281  -1.503  -0.530  0.00  0.00    +0.208 A 
ATOM      7  N   UNL     1      -2.007  -1.273  -0.964  0.00  0.00    -0.228 N 
BRANCH   3   9
ATOM      8  C   UNL     1      -0.047   1.578  -0.012  0.00  0.00    +0.015 C 
ATOM      9  C   UNL     1      -0.018   0.048  -0.025  0.00  0.00    +0.052 C 
ATOM     10  C   UNL     1       0.730  -0.459   1.209  0.00  0.00    +0.015 C 
ENDBRANCH   3   9
BRANCH   7  11
ATOM     11  N   UNL     1      -1.429  -1.741  -2.110  0.00  0.00    -0.295 N 
ATOM     12  H   UNL     1      -0.983  -2.632  -1.952  0.00  0.00    +0.163 HD
ATOM     13  H   UNL     1      -2.104  -1.801  -2.857  0.00  0.00    +0.163 HD
ENDBRANCH   7  11
ENDBRANCH   2   6
ENDBRANCH   1   2
BRANCH   1  14
ATOM     14  C   UNL     1      -7.109  -3.159  -0.857  0.00  0.00    +0.107 C 
BRANCH  14  15
ATOM     15  C   UNL     1      -8.309  -3.066   0.049  0.00  0.00    +0.218 C 
ATOM     16  O   UNL     1      -8.247  -2.421   1.074  0.00  0.00    -0.275 OA
ATOM     17  N   UNL     1      -9.452  -3.701  -0.280  0.00  0.00    -0.284 N 
ATOM     18  H   UNL     1      -9.523  -4.163  -1.129  0.00  0.00    +0.155 HD
BRANCH  17  19
ATOM     19  C   UNL     1     -10.536  -3.693   0.606  0.00  0.00    +0.053 A 
ATOM     20  C   UNL     1     -10.784  -2.576   1.393  0.00  0.00    +0.044 A 
ATOM     21  C   UNL     1     -11.855  -2.571   2.266  0.00  0.00    +0.043 A 
ATOM     22  C   UNL     1     -12.681  -3.678   2.356  0.00  0.00    +0.021 A 
ATOM     23  C   UNL     1     -12.437  -4.792   1.574  0.00  0.00    +0.023 A 
ATOM     24  C   UNL     1     -11.371  -4.800   0.695  0.00  0.00    +0.062 A 
ATOM     25 CL   UNL     1     -11.069  -6.197  -0.292  0.00  0.00    -0.082 Cl
ATOM     26 CL   UNL     1     -12.165  -1.176   3.251  0.00  0.00    -0.083 Cl
ENDBRANCH  17  19
ENDBRANCH  14  15
ENDBRANCH   1  14
TORSDOF 7
