REMARK  Name = ZINC08915320
REMARK  5 active torsions:
REMARK  status: ('A' for Active; 'I' for Inactive)
REMARK    1  A    between atoms: C_6  and  C_7
REMARK    2  A    between atoms: C_9  and  C_21
REMARK    3  A    between atoms: C_11  and  C_16
REMARK    4  A    between atoms: C_11  and  O_20
REMARK    5  A    between atoms: C_21  and  C_23
REMARK                            x       y       z     vdW  Elec       q    Type
REMARK                         _______ _______ _______ _____ _____    ______ ____
ROOT
ATOM      1  C   UNL     1      -1.293  -0.775   0.011  0.00  0.00    +0.120 C 
ATOM      2  C   UNL     1      -1.589  -1.263   1.433  0.00  0.00    +0.144 C 
ATOM      3  C   UNL     1      -2.845  -2.139   1.396  0.00  0.00    +0.243 C 
ATOM      4  N   UNL     1      -2.648  -3.221   0.430  0.00  0.00    -0.264 N 
ATOM      5  C   UNL     1      -1.849  -3.068  -0.636  0.00  0.00    +0.302 C 
ATOM      6  O   UNL     1      -1.728  -3.995  -1.414  0.00  0.00    -0.253 OA
ATOM      7  N   UNL     1      -1.180  -1.930  -0.881  0.00  0.00    -0.292 N 
ATOM      8  H   UNL     1      -3.104  -4.067   0.565  0.00  0.00    +0.153 HD
ATOM      9  H   UNL     1      -0.610  -1.873  -1.663  0.00  0.00    +0.151 HD
ENDROOT
BRANCH   1  15
ATOM     10  C   UNL     1      -0.017   1.378   0.010  0.00  0.00    +0.007 A 
ATOM     11  C   UNL     1       1.171   2.086   0.002  0.00  0.00    +0.020 A 
ATOM     12  C   UNL     1       2.378   1.410  -0.013  0.00  0.00    +0.041 A 
ATOM     13  C   UNL     1       2.396   0.027  -0.021  0.00  0.00    +0.020 A 
ATOM     14  C   UNL     1       1.208  -0.679  -0.013  0.00  0.00    +0.007 A 
ATOM     15  C   UNL     1       0.002  -0.004   0.002  0.00  0.00    -0.026 A 
ATOM     16 CL   UNL     1       3.870   2.298  -0.023  0.00  0.00    -0.084 Cl
ENDBRANCH   1  15
BRANCH   3  17
ATOM     17  C   UNL     1      -3.096  -2.732   2.784  0.00  0.00    +0.436 C 
ATOM     18  F   UNL     1      -3.277  -1.697   3.708  0.00  0.00    -0.166 F 
ATOM     19  F   UNL     1      -4.243  -3.532   2.750  0.00  0.00    -0.166 F 
ATOM     20  F   UNL     1      -1.997  -3.510   3.165  0.00  0.00    -0.166 F 
ENDBRANCH   3  17
BRANCH   3  21
ATOM     21  O   UNL     1      -3.969  -1.348   1.004  0.00  0.00    -0.364 OA
ATOM     22  H   UNL     1      -4.800  -1.840   0.960  0.00  0.00    +0.212 HD
ENDBRANCH   3  21
BRANCH   2  23
ATOM     23  C   UNL     1      -1.819  -0.079   2.336  0.00  0.00    +0.173 C 
ATOM     24  O   UNL     1      -2.288   0.945   1.886  0.00  0.00    -0.292 OA
BRANCH  23  25
ATOM     25  C   UNL     1      -1.476  -0.165   3.764  0.00  0.00    +0.018 A 
ATOM     26  C   UNL     1      -0.930  -1.343   4.285  0.00  0.00    +0.013 A 
ATOM     27  C   UNL     1      -0.610  -1.417   5.624  0.00  0.00    +0.020 A 
ATOM     28  C   UNL     1      -0.828  -0.328   6.453  0.00  0.00    +0.041 A 
ATOM     29  C   UNL     1      -1.369   0.842   5.943  0.00  0.00    +0.020 A 
ATOM     30  C   UNL     1      -1.688   0.932   4.606  0.00  0.00    +0.013 A 
ATOM     31 CL   UNL     1      -0.423  -0.430   8.138  0.00  0.00    -0.084 Cl
ENDBRANCH  23  25
ENDBRANCH   2  23
TORSDOF 5
