REMARK  Name = ZINC36635423
REMARK  5 active torsions:
REMARK  status: ('A' for Active; 'I' for Inactive)
REMARK    1  A    between atoms: C_1  and  C_2
REMARK    2  A    between atoms: C_6  and  N_9
REMARK    3  A    between atoms: C_7  and  C_8
REMARK    4  A    between atoms: C_13  and  N_17
REMARK    5  A    between atoms: N_17  and  C_18
REMARK                            x       y       z     vdW  Elec       q    Type
REMARK                         _______ _______ _______ _____ _____    ______ ____
ROOT
ATOM      1  N   UNL     1       0.050  -2.798   2.395  0.00  0.00    -0.209 N 
ATOM      2  C   UNL     1      -1.068  -3.184   3.022  0.00  0.00    +0.228 C 
ATOM      3  O   UNL     1      -2.197  -2.976   2.636  0.00  0.00    -0.275 OA
ATOM      4  C   UNL     1      -0.697  -3.923   4.290  0.00  0.00    +0.128 C 
ATOM      5  C   UNL     1       0.845  -3.896   4.287  0.00  0.00    +0.166 C 
ATOM      6  C   UNL     1       1.184  -3.150   3.015  0.00  0.00    +0.247 C 
ATOM      7  O   UNL     1       2.304  -2.908   2.620  0.00  0.00    -0.273 OA
ENDROOT
BRANCH   1  13
ATOM      8  C   UNL     1      -0.018   1.503   0.010  0.00  0.00    +0.044 C 
ATOM      9  C   UNL     1       0.002  -0.004   0.002  0.00  0.00    -0.046 A 
ATOM     10  C   UNL     1       0.006  -0.688  -1.200  0.00  0.00    +0.004 A 
ATOM     11  C   UNL     1       0.024  -2.071  -1.211  0.00  0.00    +0.002 A 
ATOM     12  C   UNL     1       0.039  -2.773  -0.022  0.00  0.00    +0.024 A 
ATOM     13  C   UNL     1       0.035  -2.089   1.186  0.00  0.00    +0.047 A 
ATOM     14  C   UNL     1       0.023  -0.700   1.194  0.00  0.00    -0.026 A 
ATOM     15  C   UNL     1       0.025   0.046   2.504  0.00  0.00    +0.046 C 
ENDBRANCH   1  13
BRANCH   5  16
ATOM     16  N   UNL     1       1.384  -5.258   4.244  0.00  0.00    -0.332 N 
ATOM     17  H   UNL     1       0.853  -5.978   3.869  0.00  0.00    +0.147 HD
BRANCH  16  18
ATOM     18  C   UNL     1       2.662  -5.519   4.744  0.00  0.00    +0.042 A 
ATOM     19  C   UNL     1       3.421  -4.490   5.288  0.00  0.00    +0.024 A 
ATOM     20  C   UNL     1       4.683  -4.752   5.782  0.00  0.00    +0.002 A 
ATOM     21  C   UNL     1       5.193  -6.037   5.736  0.00  0.00    +0.001 A 
ATOM     22  C   UNL     1       4.441  -7.064   5.196  0.00  0.00    +0.017 A 
ATOM     23  C   UNL     1       3.175  -6.810   4.705  0.00  0.00    +0.039 A 
ATOM     24 BR   UNL     1       2.144  -8.216   3.972  0.00  0.00    -0.048 Br
ENDBRANCH  16  18
ENDBRANCH   5  16
TORSDOF 3
