REMARK  Name = ZINC39590765
REMARK  5 active torsions:
REMARK  status: ('A' for Active; 'I' for Inactive)
REMARK    1  A    between atoms: C_1  and  O_2
REMARK    2  A    between atoms: O_2  and  C_3
REMARK    3  A    between atoms: C_6  and  C_9
REMARK    4  A    between atoms: C_12  and  C_19
REMARK    5  A    between atoms: C_22  and  C_25
REMARK                            x       y       z     vdW  Elec       q    Type
REMARK                         _______ _______ _______ _____ _____    ______ ____
ROOT
ATOM      1  C   UNL     1       2.492  -2.492  -4.363  0.00  0.00    +0.125 C 
ATOM      2  N   UNL     1       3.073  -1.930  -5.383  0.00  0.00    -0.173 NA
ATOM      3  N   UNL     1       3.582  -2.646  -6.444  0.00  0.00    -0.206 N 
ATOM      4  C   UNL     1       3.973  -2.569  -7.871  0.00  0.00    +0.206 C 
ATOM      5  N   UNL     1       3.552  -3.860  -8.467  0.00  0.00    -0.231 NA
ATOM      6  N   UNL     1       3.034  -4.683  -7.361  0.00  0.00    -0.224 NA
ATOM      7  C   UNL     1       3.712  -4.114  -6.179  0.00  0.00    +0.240 C 
ATOM      8  S   UNL     1       2.678  -4.242  -4.674  0.00  0.00    -0.063 S 
ATOM      9  H   UNL     1       4.326  -4.316  -8.925  0.00  0.00    +0.143 HD
ATOM     10  H   UNL     1       3.280  -5.654  -7.486  0.00  0.00    +0.144 HD
ENDROOT
BRANCH   1  14
ATOM     11  C   UNL     1       0.606  -0.607  -1.056  0.00  0.00    +0.120 A 
ATOM     12  C   UNL     1       1.172   0.164  -2.062  0.00  0.00    +0.046 A 
ATOM     13  C   UNL     1       1.785  -0.444  -3.136  0.00  0.00    +0.014 A 
ATOM     14  C   UNL     1       1.836  -1.837  -3.212  0.00  0.00    +0.009 A 
ATOM     15  C   UNL     1       1.266  -2.608  -2.199  0.00  0.00    +0.014 A 
ATOM     16  C   UNL     1       0.659  -1.993  -1.125  0.00  0.00    +0.046 A 
BRANCH  11  18
ATOM     17  C   UNL     1      -0.017   1.425   0.010  0.00  0.00    +0.277 C 
ATOM     18  O   UNL     1       0.002  -0.004   0.002  0.00  0.00    -0.495 OA
ENDBRANCH  11  18
ENDBRANCH   1  14
BRANCH   4  19
ATOM     19  C   UNL     1       3.252  -1.407  -8.556  0.00  0.00    +0.190 C 
ATOM     20  C   UNL     1       3.595  -1.360 -10.035  0.00  0.00    +0.034 C 
ATOM     21  C   UNL     1       4.193  -0.163 -10.189  0.00  0.00    +0.091 C 
ATOM     22  N   UNL     1       4.246   0.497  -9.002  0.00  0.00    -0.154 NA
ATOM     23  N   UNL     1       3.748  -0.116  -8.051  0.00  0.00    -0.176 NA
BRANCH  21  24
ATOM     24  C   UNL     1       4.720   0.361 -11.473  0.00  0.00    +0.002 A 
ATOM     25  C   UNL     1       4.609  -0.398 -12.636  0.00  0.00    +0.010 A 
ATOM     26  C   UNL     1       5.100   0.095 -13.828  0.00  0.00    +0.001 A 
ATOM     27  C   UNL     1       5.702   1.340 -13.870  0.00  0.00    +0.000 A 
ATOM     28  C   UNL     1       5.815   2.098 -12.718  0.00  0.00    +0.001 A 
ATOM     29  C   UNL     1       5.322   1.617 -11.522  0.00  0.00    +0.010 A 
ENDBRANCH  21  24
ENDBRANCH   4  19
TORSDOF 4
