REMARK  Name = ZINC05263594
REMARK  5 active torsions:
REMARK  status: ('A' for Active; 'I' for Inactive)
REMARK    1  A    between atoms: N_9  and  C_12
REMARK    2  A    between atoms: C_12  and  S_13
REMARK    3  A    between atoms: S_13  and  C_14
REMARK    4  A    between atoms: C_17  and  C_20
REMARK    5  A    between atoms: N_18  and  N_19
REMARK                            x       y       z     vdW  Elec       q    Type
REMARK                         _______ _______ _______ _____ _____    ______ ____
ROOT
ATOM      1  C   UNL     1       5.269  -2.841  -2.326  0.00  0.00    +0.210 A 
ATOM      2  N   UNL     1       5.843  -1.892  -1.622  0.00  0.00    -0.121 NA
ATOM      3  N   UNL     1       6.723  -1.285  -2.335  0.00  0.00    -0.127 NA
ATOM      4  C   UNL     1       6.765  -1.809  -3.538  0.00  0.00    +0.182 A 
ATOM      5  N   UNL     1       5.838  -2.826  -3.567  0.00  0.00    -0.224 N 
ENDROOT
BRANCH   4   6
ATOM      6  C   UNL     1       7.645  -1.390  -4.649  0.00  0.00    +0.021 A 
ATOM      7  C   UNL     1       7.374  -1.808  -5.953  0.00  0.00    +0.014 A 
ATOM      8  C   UNL     1       8.199  -1.413  -6.986  0.00  0.00    +0.039 A 
ATOM      9  C   UNL     1       9.295  -0.605  -6.731  0.00  0.00    +0.123 A 
ATOM     10  C   UNL     1       9.568  -0.187  -5.438  0.00  0.00    +0.039 A 
ATOM     11  C   UNL     1       8.748  -0.571  -4.399  0.00  0.00    +0.014 A 
ATOM     12  F   UNL     1      10.099  -0.222  -7.746  0.00  0.00    -0.205 F 
ENDBRANCH   4   6
BRANCH   5  13
ATOM     13  N   UNL     1       5.547  -3.647  -4.619  0.00  0.00    -0.295 N 
ATOM     14  H   UNL     1       4.814  -3.256  -5.191  0.00  0.00    +0.163 HD
ATOM     15  H   UNL     1       6.372  -3.837  -5.168  0.00  0.00    +0.163 HD
ENDBRANCH   5  13
BRANCH   1  16
ATOM     16  S   UNL     1       4.005  -3.936  -1.769  0.00  0.00    -0.065 S 
BRANCH  16  17
ATOM     17  C   UNL     1       3.709  -3.428  -0.053  0.00  0.00    +0.194 C 
BRANCH  17  26
ATOM     18  C   UNL     1      -0.017   1.382   0.010  0.00  0.00    +0.001 A 
ATOM     19  C   UNL     1       1.165   2.099   0.002  0.00  0.00    +0.001 A 
ATOM     20  C   UNL     1       2.385   1.442  -0.013  0.00  0.00    +0.014 A 
ATOM     21  C   UNL     1       2.420   0.056  -0.021  0.00  0.00    +0.049 A 
ATOM     22  C   UNL     1       1.215  -0.675  -0.013  0.00  0.00    +0.049 A 
ATOM     23  C   UNL     1       0.002  -0.004   0.002  0.00  0.00    +0.014 A 
ATOM     24  C   UNL     1       1.606  -2.100  -0.025  0.00  0.00    +0.255 C 
ATOM     25  O   UNL     1       0.843  -3.045  -0.023  0.00  0.00    -0.270 OA
ATOM     26  N   UNL     1       2.949  -2.175  -0.039  0.00  0.00    -0.224 N 
ATOM     27  C   UNL     1       3.503  -0.949  -0.038  0.00  0.00    +0.255 C 
ATOM     28  O   UNL     1       4.693  -0.709  -0.049  0.00  0.00    -0.270 OA
ENDBRANCH  17  26
ENDBRANCH  16  17
ENDBRANCH   1  16
TORSDOF 5
