REMARK  Name = ZINC33790545
REMARK  6 active torsions:
REMARK  status: ('A' for Active; 'I' for Inactive)
REMARK    1  A    between atoms: C_1  and  C_2
REMARK    2  A    between atoms: C_2  and  C_3
REMARK    3  A    between atoms: C_3  and  N_4
REMARK    4  A    between atoms: C_10  and  C_19
REMARK    5  A    between atoms: C_11  and  N_18
REMARK    6  A    between atoms: C_14  and  C_15
REMARK                            x       y       z     vdW  Elec       q    Type
REMARK                         _______ _______ _______ _____ _____    ______ ____
ROOT
ATOM      1  N   UNL     1       1.131   6.015   2.077  0.00  0.00    +0.380 N 
ATOM      2  C   UNL     1       1.193   4.699   2.724  0.00  0.00    -0.078 C 
ATOM      3  C   UNL     1      -0.028   3.870   2.317  0.00  0.00    -0.001 C 
ATOM      4  C   UNL     1      -0.041   3.706   0.793  0.00  0.00    +0.042 C 
ATOM      5  C   UNL     1      -0.064   5.096   0.146  0.00  0.00    -0.001 C 
ATOM      6  C   UNL     1       1.158   5.890   0.614  0.00  0.00    -0.078 C 
ATOM      7  C   UNL     1       1.202   2.978   0.362  0.00  0.00    +0.076 C 
ATOM      8  C   UNL     1       1.171   1.670  -0.000  0.00  0.00    +0.100 C 
ATOM      9  N   UNL     1      -0.011   0.966   0.007  0.00  0.00    -0.296 N 
ATOM     10  C   UNL     1      -1.212   1.638   0.017  0.00  0.00    +0.092 C 
ATOM     11  C   UNL     1      -1.272   2.946   0.385  0.00  0.00    +0.069 C 
ATOM     12  S   UNL     1      -2.688   0.793  -0.447  0.00  0.00    -0.034 SA
ATOM     13  H   UNL     1       0.004  -0.134   0.006  0.00  0.00    +0.154 HD
ATOM     14  H   UNL     1       0.174   6.481   2.355  0.00  0.00    -0.082 HD
ENDROOT
BRANCH   8  15
ATOM     15  N   UNL     1       2.333   1.042  -0.378  0.00  0.00    -0.346 N 
ATOM     16  H   UNL     1       2.315  -0.018  -0.672  0.00  0.00    +0.143 HD
ATOM     17  H   UNL     1       3.281   1.599  -0.386  0.00  0.00    +0.143 HD
ENDBRANCH   8  15
BRANCH  11  18
ATOM     18  C   UNL     1      -2.537   3.617   0.378  0.00  0.00    +0.098 C 
ATOM     19  N   UNL     1      -3.540   4.149   0.372  0.00  0.00    -0.191 NA
ENDBRANCH  11  18
BRANCH   7  20
ATOM     20  C   UNL     1       2.449   3.681   0.332  0.00  0.00    +0.099 C 
ATOM     21  N   UNL     1       3.438   4.239   0.308  0.00  0.00    -0.191 NA
ENDBRANCH   7  20
BRANCH   1  22
ATOM     22  C   UNL     1       2.214   6.886   2.550  0.00  0.00    -0.079 C 
BRANCH  22  24
ATOM     23  C   UNL     1       3.105   9.221   2.546  0.00  0.00    +0.002 C 
ATOM     24  C   UNL     1       1.976   8.313   2.052  0.00  0.00    -0.022 C 
ENDBRANCH  22  24
ENDBRANCH   1  22
TORSDOF 5
