REMARK  Name = ZINC48607226
REMARK  4 active torsions:
REMARK  status: ('A' for Active; 'I' for Inactive)
REMARK    1  A    between atoms: C_5  and  C_6
REMARK    2  A    between atoms: C_6  and  N_7
REMARK    3  A    between atoms: C_8  and  C_10
REMARK    4  A    between atoms: C_15  and  O_16
REMARK                            x       y       z     vdW  Elec       q    Type
REMARK                         _______ _______ _______ _____ _____    ______ ____
ROOT
ATOM      1  N   UNL     1      -1.544  -1.274  -1.371  0.00  0.00    -0.307 N 
ATOM      2  C   UNL     1      -2.565  -2.121  -1.611  0.00  0.00    +0.248 C 
ATOM      3  O   UNL     1      -3.163  -2.632  -0.684  0.00  0.00    -0.270 OA
ATOM      4  H   UNL     1      -1.067  -0.867  -2.111  0.00  0.00    +0.149 HD
ENDROOT
BRANCH   2   5
ATOM      5  C   UNL     1      -2.956  -2.428  -2.998  0.00  0.00    +0.082 A 
ATOM      6  C   UNL     1      -2.266  -1.846  -4.067  0.00  0.00    +0.066 A 
ATOM      7  C   UNL     1      -2.634  -2.136  -5.364  0.00  0.00    +0.167 A 
ATOM      8  C   UNL     1      -3.696  -3.010  -5.613  0.00  0.00    +0.170 A 
ATOM      9  C   UNL     1      -4.383  -3.589  -4.557  0.00  0.00    +0.095 A 
ATOM     10  C   UNL     1      -4.017  -3.308  -3.252  0.00  0.00    +0.133 A 
ATOM     11  O   UNL     1      -3.855  -3.127  -6.962  0.00  0.00    -0.452 OA
ATOM     12  C   UNL     1      -3.155  -2.006  -7.532  0.00  0.00    +0.466 C 
ATOM     13  O   UNL     1      -2.134  -1.709  -6.562  0.00  0.00    -0.453 OA
BRANCH  10  14
ATOM     14  O   UNL     1      -4.687  -3.881  -2.220  0.00  0.00    -0.506 OA
ATOM     15  H   UNL     1      -5.447  -3.368  -1.912  0.00  0.00    +0.292 HD
ENDBRANCH  10  14
ENDBRANCH   2   5
BRANCH   1  16
ATOM     16  C   UNL     1      -1.156  -0.969   0.008  0.00  0.00    +0.147 C 
BRANCH  16  21
ATOM     17  C   UNL     1      -0.016   1.351   0.009  0.00  0.00    +0.028 A 
ATOM     18  C   UNL     1       1.184   2.038   0.002  0.00  0.00    +0.025 A 
ATOM     19  C   UNL     1       2.343   1.335  -0.013  0.00  0.00    +0.060 A 
ATOM     20  S   UNL     1       1.753  -0.350  -0.017  0.00  0.00    -0.099 S 
ATOM     21  C   UNL     1       0.002  -0.004   0.002  0.00  0.00    +0.008 A 
ATOM     22 BR   UNL     1       1.208   3.929   0.011  0.00  0.00    -0.050 Br
ENDBRANCH  16  21
ENDBRANCH   1  16
TORSDOF 4
