REMARK  Name = ZINC04177296
REMARK  7 active torsions:
REMARK  status: ('A' for Active; 'I' for Inactive)
REMARK    1  A    between atoms: C_4  and  O_22
REMARK    2  A    between atoms: C_5  and  C_7
REMARK    3  A    between atoms: C_12  and  O_21
REMARK    4  A    between atoms: C_16  and  N_20
REMARK    5  A    between atoms: C_17  and  C_18
REMARK    6  A    between atoms: O_22  and  C_23
REMARK    7  A    between atoms: C_23  and  C_24
REMARK                            x       y       z     vdW  Elec       q    Type
REMARK                         _______ _______ _______ _____ _____    ______ ____
ROOT
ATOM      1  C   UNL     1       3.682   2.172  -0.020  0.00  0.00    +0.101 C 
ATOM      2  C   UNL     1       4.484   1.807   1.201  0.00  0.00    +0.008 A 
ATOM      3  C   UNL     1       4.131   2.337   2.430  0.00  0.00    +0.012 A 
ATOM      4  C   UNL     1       4.855   2.014   3.561  0.00  0.00    +0.046 A 
ATOM      5  C   UNL     1       5.941   1.154   3.467  0.00  0.00    +0.120 A 
ATOM      6  C   UNL     1       6.296   0.622   2.238  0.00  0.00    +0.092 A 
ATOM      7  C   UNL     1       5.567   0.948   1.102  0.00  0.00    +0.138 A 
ATOM      8  O   UNL     1       5.928   0.419  -0.093  0.00  0.00    -0.441 OA
ATOM      9  C   UNL     1       5.512   0.994  -1.234  0.00  0.00    +0.199 C 
ATOM     10  C   UNL     1       4.452   1.836  -1.266  0.00  0.00    +0.098 C 
ENDROOT
BRANCH   1  15
ATOM     11  C   UNL     1       1.208  -0.680  -0.013  0.00  0.00    +0.001 A 
ATOM     12  C   UNL     1       0.002  -0.004   0.002  0.00  0.00    +0.004 A 
ATOM     13  C   UNL     1      -0.017   1.377   0.010  0.00  0.00    +0.046 A 
ATOM     14  C   UNL     1       1.176   2.086   0.002  0.00  0.00    +0.125 A 
ATOM     15  C   UNL     1       2.385   1.405  -0.013  0.00  0.00    +0.007 A 
ATOM     16  C   UNL     1       2.398   0.024  -0.021  0.00  0.00    +0.008 A 
BRANCH  14  17
ATOM     17  O   UNL     1       1.160   3.445   0.010  0.00  0.00    -0.487 OA
BRANCH  17  18
ATOM     18  C   UNL     1      -0.120   4.079   0.026  0.00  0.00    +0.264 C 
BRANCH  18  19
ATOM     19  C   UNL     1       0.060   5.575   0.033  0.00  0.00    -0.010 A 
ATOM     20  C   UNL     1       0.148   6.255   1.233  0.00  0.00    +0.008 A 
ATOM     21  C   UNL     1       0.319   7.626   1.240  0.00  0.00    +0.020 A 
ATOM     22  C   UNL     1       0.390   8.320   0.045  0.00  0.00    +0.041 A 
ATOM     23  C   UNL     1       0.296   7.640  -1.156  0.00  0.00    +0.020 A 
ATOM     24  C   UNL     1       0.131   6.268  -1.161  0.00  0.00    +0.008 A 
ATOM     25 CL   UNL     1       0.598  10.043   0.053  0.00  0.00    -0.084 Cl
ENDBRANCH  18  19
ENDBRANCH  17  18
ENDBRANCH  14  17
ENDBRANCH   1  15
BRANCH   9  26
ATOM     26  N   UNL     1       6.181   0.720  -2.401  0.00  0.00    -0.328 N 
ATOM     27  H   UNL     1       6.941   0.118  -2.393  0.00  0.00    +0.145 HD
ATOM     28  H   UNL     1       5.892   1.127  -3.232  0.00  0.00    +0.145 HD
ENDBRANCH   9  26
BRANCH  10  29
ATOM     29  C   UNL     1       4.056   2.419  -2.513  0.00  0.00    +0.101 C 
ATOM     30  N   UNL     1       3.743   2.881  -3.503  0.00  0.00    -0.191 NA
ENDBRANCH  10  29
BRANCH   5  31
ATOM     31  O   UNL     1       6.654   0.835   4.579  0.00  0.00    -0.507 OA
ATOM     32  H   UNL     1       6.328   0.053   5.045  0.00  0.00    +0.292 HD
ENDBRANCH   5  31
TORSDOF 7
