REMARK  Name = ZINC56746037
REMARK  6 active torsions:
REMARK  status: ('A' for Active; 'I' for Inactive)
REMARK    1  A    between atoms: C_1  and  C_2
REMARK    2  A    between atoms: C_2  and  C_4
REMARK    3  A    between atoms: C_2  and  N_10
REMARK    4  A    between atoms: C_4  and  C_5
REMARK    5  A    between atoms: N_13  and  N_14
REMARK    6  A    between atoms: N_17  and  C_18
REMARK                            x       y       z     vdW  Elec       q    Type
REMARK                         _______ _______ _______ _____ _____    ______ ____
ROOT
ATOM      1  N   UNL     1       0.715  -0.470   1.194  0.00  0.00    -0.295 N 
ATOM      2  C   UNL     1       0.056  -0.613   2.361  0.00  0.00    +0.316 C 
ATOM      3  O   UNL     1      -1.125  -0.332   2.431  0.00  0.00    -0.251 OA
ATOM      4  N   UNL     1       0.706  -1.066   3.451  0.00  0.00    -0.217 N 
ATOM      5  H   UNL     1       1.657  -0.694   1.139  0.00  0.00    +0.151 HD
ATOM      6  H   UNL     1       0.232  -1.169   4.291  0.00  0.00    +0.174 HD
ENDROOT
BRANCH   4   7
ATOM      7  N   UNL     1       2.067  -1.389   3.371  0.00  0.00    -0.217 N 
ATOM      8  C   UNL     1       2.717  -1.842   4.461  0.00  0.00    +0.320 C 
ATOM      9  O   UNL     1       3.898  -2.123   4.392  0.00  0.00    -0.251 OA
ATOM     10  N   UNL     1       2.059  -1.985   5.628  0.00  0.00    -0.268 N 
ATOM     11  H   UNL     1       2.541  -1.287   2.531  0.00  0.00    +0.174 HD
ATOM     12  H   UNL     1       1.135  -1.698   5.702  0.00  0.00    +0.156 HD
BRANCH  10  13
ATOM     13  C   UNL     1       2.707  -2.546   6.734  0.00  0.00    +0.035 A 
ATOM     14  C   UNL     1       2.002  -3.351   7.620  0.00  0.00    +0.024 A 
ATOM     15  C   UNL     1       2.645  -3.904   8.710  0.00  0.00    +0.017 A 
ATOM     16  C   UNL     1       3.990  -3.658   8.920  0.00  0.00    +0.018 A 
ATOM     17  C   UNL     1       4.695  -2.856   8.039  0.00  0.00    +0.017 A 
ATOM     18  C   UNL     1       4.059  -2.305   6.944  0.00  0.00    +0.024 A 
ATOM     19 BR   UNL     1       4.867  -4.417  10.414  0.00  0.00    -0.050 Br
ENDBRANCH  10  13
ENDBRANCH   4   7
BRANCH   1  21
ATOM     20  C   UNL     1      -0.003   1.552   0.021  0.00  0.00    +0.028 C 
ATOM     21  C   UNL     1       0.008   0.022   0.009  0.00  0.00    +0.076 C 
BRANCH  21  22
ATOM     22  C   UNL     1       0.719  -0.473  -1.252  0.00  0.00    +0.057 C 
BRANCH  22  23
ATOM     23  C   UNL     1       0.623  -1.975  -1.326  0.00  0.00    -0.039 A 
ATOM     24  C   UNL     1       1.593  -2.770  -0.744  0.00  0.00    +0.011 A 
ATOM     25  C   UNL     1       1.476  -4.117  -0.829  0.00  0.00    +0.045 A 
ATOM     26  S   UNL     1      -0.041  -4.299  -1.753  0.00  0.00    -0.105 S 
ATOM     27  C   UNL     1      -0.419  -2.567  -1.959  0.00  0.00    +0.049 A 
ENDBRANCH  22  23
ENDBRANCH  21  22
ENDBRANCH   1  21
TORSDOF 5
