REMARK  Name = ZINC61882584
REMARK  6 active torsions:
REMARK  status: ('A' for Active; 'I' for Inactive)
REMARK    1  A    between atoms: C_4  and  S_9
REMARK    2  A    between atoms: C_6  and  N_7
REMARK    3  A    between atoms: S_9  and  N_12
REMARK    4  A    between atoms: N_12  and  C_13
REMARK    5  A    between atoms: C_13  and  C_19
REMARK    6  A    between atoms: C_19  and  O_20
REMARK                            x       y       z     vdW  Elec       q    Type
REMARK                         _______ _______ _______ _____ _____    ______ ____
ROOT
ATOM      1  S   UNL     1       4.385  -1.025   0.045  0.00  0.00    +0.060 S 
ATOM      2  O   UNL     1       5.077   0.166   0.394  0.00  0.00    -0.153 OA
ATOM      3  O   UNL     1       3.180  -1.012  -0.708  0.00  0.00    -0.153 OA
ENDROOT
BRANCH   1   7
ATOM      4  C   UNL     1       7.315  -3.605  -2.258  0.00  0.00    +0.044 A 
ATOM      5  C   UNL     1       6.089  -3.284  -2.811  0.00  0.00    +0.045 A 
ATOM      6  C   UNL     1       5.196  -2.497  -2.106  0.00  0.00    +0.049 A 
ATOM      7  C   UNL     1       5.526  -2.028  -0.848  0.00  0.00    +0.122 A 
ATOM      8  C   UNL     1       6.750  -2.344  -0.290  0.00  0.00    +0.065 A 
ATOM      9  C   UNL     1       7.649  -3.136  -0.995  0.00  0.00    +0.042 A 
ATOM     10 BR   UNL     1       7.200  -1.701   1.430  0.00  0.00    -0.046 Br
ATOM     11 CL   UNL     1       5.670  -3.870  -4.390  0.00  0.00    -0.083 Cl
BRANCH   9  12
ATOM     12  N   UNL     1       8.887  -3.458  -0.433  0.00  0.00    -0.357 N 
ATOM     13  H   UNL     1       9.514  -4.011  -0.925  0.00  0.00    +0.142 HD
ATOM     14  H   UNL     1       9.120  -3.130   0.450  0.00  0.00    +0.142 HD
ENDBRANCH   9  12
ENDBRANCH   1   7
BRANCH   1  15
ATOM     15  N   UNL     1       4.049  -1.810   1.464  0.00  0.00    -0.182 NA
ATOM     16  H   UNL     1       4.541  -1.587   2.270  0.00  0.00    +0.149 HD
BRANCH  15  17
ATOM     17  C   UNL     1       3.010  -2.841   1.502  0.00  0.00    +0.063 C 
ATOM     18  C   UNL     1       1.653  -2.211   1.179  0.00  0.00    +0.026 C 
ATOM     19  C   UNL     1       1.335  -1.128   2.212  0.00  0.00    +0.002 C 
ATOM     20  C   UNL     1       1.288  -1.753   3.608  0.00  0.00    +0.000 C 
ATOM     21  C   UNL     1       2.644  -2.383   3.931  0.00  0.00    +0.002 C 
ATOM     22  C   UNL     1       2.962  -3.466   2.898  0.00  0.00    +0.026 C 
BRANCH  17  23
ATOM     23  C   UNL     1       3.327  -3.924   0.469  0.00  0.00    +0.179 C 
BRANCH  23  24
ATOM     24  O   UNL     1       3.207  -3.378  -0.846  0.00  0.00    -0.393 OA
ATOM     25  H   UNL     1       3.395  -4.010  -1.554  0.00  0.00    +0.209 HD
ENDBRANCH  23  24
ENDBRANCH  17  23
ENDBRANCH  15  17
ENDBRANCH   1  15
TORSDOF 6
