REMARK  Name = ZINC28579288
REMARK  5 active torsions:
REMARK  status: ('A' for Active; 'I' for Inactive)
REMARK    1  A    between atoms: C_1  and  O_2
REMARK    2  A    between atoms: O_2  and  C_3
REMARK    3  A    between atoms: C_6  and  N_9
REMARK    4  A    between atoms: N_12  and  C_13
REMARK    5  A    between atoms: C_14  and  C_24
REMARK                            x       y       z     vdW  Elec       q    Type
REMARK                         _______ _______ _______ _____ _____    ______ ____
ROOT
ATOM      1  N   UNL     1      -3.578   7.739   3.791  0.00  0.00    -0.269 N 
ATOM      2  C   UNL     1      -3.088   6.910   2.847  0.00  0.00    +0.308 C 
ATOM      3  O   UNL     1      -3.272   7.153   1.671  0.00  0.00    -0.252 OA
ATOM      4  N   UNL     1      -2.394   5.812   3.209  0.00  0.00    -0.263 N 
ATOM      5  H   UNL     1      -3.478   7.480   4.856  0.00  0.00    +0.156 HD
ATOM      6  H   UNL     1      -2.228   5.593   4.274  0.00  0.00    +0.157 HD
ENDROOT
BRANCH   4   7
ATOM      7  C   UNL     1      -1.893   4.964   2.242  0.00  0.00    +0.083 C 
ATOM      8  C   UNL     1      -1.170   3.812   2.439  0.00  0.00    +0.061 C 
ATOM      9  C   UNL     1      -0.678   3.095   1.227  0.00  0.00    +0.045 C 
ATOM     10  C   UNL     1      -0.714   1.562   1.296  0.00  0.00    +0.010 C 
ATOM     11  C   UNL     1      -0.020   1.083   0.006  0.00  0.00    +0.001 C 
ATOM     12  C   UNL     1      -0.717   1.579  -1.255  0.00  0.00    +0.001 C 
ATOM     13  C   UNL     1      -0.923   3.109  -1.239  0.00  0.00    +0.015 C 
ATOM     14  C   UNL     1      -1.626   3.427   0.035  0.00  0.00    +0.061 C 
ATOM     15  S   UNL     1      -2.003   5.140   0.464  0.00  0.00    -0.105 S 
BRANCH   8  16
ATOM     16  C   UNL     1      -0.900   3.319   3.756  0.00  0.00    +0.097 C 
ATOM     17  N   UNL     1      -0.685   2.928   4.801  0.00  0.00    -0.191 NA
ENDBRANCH   8  16
ENDBRANCH   4   7
BRANCH   1  21
ATOM     18  C   UNL     1      -5.473  11.281   2.675  0.00  0.00    +0.120 A 
ATOM     19  C   UNL     1      -5.609  10.146   1.890  0.00  0.00    +0.047 A 
ATOM     20  C   UNL     1      -4.982   8.972   2.259  0.00  0.00    +0.027 A 
ATOM     21  C   UNL     1      -4.215   8.929   3.416  0.00  0.00    +0.035 A 
ATOM     22  C   UNL     1      -4.084  10.065   4.204  0.00  0.00    +0.027 A 
ATOM     23  C   UNL     1      -4.707  11.239   3.831  0.00  0.00    +0.047 A 
BRANCH  18  25
ATOM     24  C   UNL     1      -5.909  13.567   3.166  0.00  0.00    +0.277 C 
ATOM     25  O   UNL     1      -6.092  12.436   2.312  0.00  0.00    -0.495 OA
ENDBRANCH  18  25
ENDBRANCH   1  21
TORSDOF 4
