REMARK  Name = ZINC08720566
REMARK  3 active torsions:
REMARK  status: ('A' for Active; 'I' for Inactive)
REMARK    1  A    between atoms: C_5  and  N_7
REMARK    2  A    between atoms: N_15  and  N_16
REMARK    3  A    between atoms: C_17  and  C_19
REMARK                            x       y       z     vdW  Elec       q    Type
REMARK                         _______ _______ _______ _____ _____    ______ ____
ROOT
ATOM      1  N   UNL     1       2.428  -2.833  -1.425  0.00  0.00    -0.325 N 
ATOM      2  C   UNL     1       3.638  -2.001  -1.457  0.00  0.00    +0.124 C 
ATOM      3  C   UNL     1       3.641  -1.064  -0.244  0.00  0.00    +0.128 C 
ATOM      4  N   UNL     1       2.374  -0.318  -0.226  0.00  0.00    -0.281 N 
ATOM      5  C   UNL     1       1.118  -1.077  -0.323  0.00  0.00    +0.128 C 
ATOM      6  C   UNL     1       1.214  -2.013  -1.539  0.00  0.00    +0.124 C 
ATOM      7  C   UNL     1       2.363   1.025  -0.117  0.00  0.00    +0.319 C 
ATOM      8  O   UNL     1       3.410   1.645  -0.128  0.00  0.00    -0.251 OA
ATOM      9  N   UNL     1       1.193   1.682   0.005  0.00  0.00    -0.218 N 
ATOM     10  H   UNL     1       0.364   1.185   0.089  0.00  0.00    +0.174 HD
ENDROOT
BRANCH   1  15
ATOM     11  C   UNL     1       3.526  -5.715  -3.425  0.00  0.00    +0.002 A 
ATOM     12  C   UNL     1       2.544  -5.750  -4.398  0.00  0.00    +0.003 A 
ATOM     13  C   UNL     1       1.523  -4.818  -4.387  0.00  0.00    +0.040 A 
ATOM     14  C   UNL     1       1.480  -3.848  -3.402  0.00  0.00    +0.144 A 
ATOM     15  C   UNL     1       2.466  -3.812  -2.422  0.00  0.00    +0.065 A 
ATOM     16  C   UNL     1       3.493  -4.747  -2.440  0.00  0.00    +0.026 A 
ATOM     17  F   UNL     1       0.483  -2.937  -3.393  0.00  0.00    -0.204 F 
ENDBRANCH   1  15
BRANCH   9  18
ATOM     18  N   UNL     1       1.173   3.083   0.010  0.00  0.00    -0.229 N 
ATOM     19  C   UNL     1      -0.003   3.740   0.035  0.00  0.00    +0.267 C 
ATOM     20  O   UNL     1      -1.048   3.117   0.049  0.00  0.00    -0.268 OA
ATOM     21  H   UNL     1       2.006   3.580  -0.001  0.00  0.00    +0.173 HD
BRANCH  19  22
ATOM     22  C   UNL     1      -0.024   5.206   0.047  0.00  0.00    +0.075 A 
ATOM     23  C   UNL     1      -1.112   6.064   0.066  0.00  0.00    +0.021 A 
ATOM     24  C   UNL     1      -0.846   7.411   0.078  0.00  0.00    +0.008 A 
ATOM     25  C   UNL     1       0.446   7.832   0.057  0.00  0.00    +0.046 A 
ATOM     26  S   UNL     1       1.345   6.350   0.030  0.00  0.00    -0.092 S 
ENDBRANCH  19  22
ENDBRANCH   9  18
TORSDOF 3
