REMARK  Name = ZINC36640285
REMARK  7 active torsions:
REMARK  status: ('A' for Active; 'I' for Inactive)
REMARK    1  A    between atoms: C_1  and  C_2
REMARK    2  A    between atoms: C_2  and  C_4
REMARK    3  A    between atoms: C_2  and  S_15
REMARK    4  A    between atoms: N_6  and  C_7
REMARK    5  A    between atoms: S_15  and  C_16
REMARK    6  A    between atoms: C_19  and  C_22
REMARK    7  A    between atoms: N_20  and  N_21
REMARK                            x       y       z     vdW  Elec       q    Type
REMARK                         _______ _______ _______ _____ _____    ______ ____
ROOT
ATOM      1  C   UNL     1      -0.026   1.509  -0.005  0.00  0.00    +0.029 C 
ATOM      2  C   UNL     1       0.002  -0.021  -0.004  0.00  0.00    +0.137 C 
ENDROOT
BRANCH   2   3
ATOM      3  C   UNL     1       0.731  -0.509   1.221  0.00  0.00    +0.230 C 
ATOM      4  O   UNL     1       0.105  -0.894   2.186  0.00  0.00    -0.274 OA
ATOM      5  N   UNL     1       2.079  -0.519   1.244  0.00  0.00    -0.283 N 
ATOM      6  H   UNL     1       2.579  -0.273   0.450  0.00  0.00    +0.155 HD
BRANCH   5   7
ATOM      7  C   UNL     1       2.756  -0.883   2.413  0.00  0.00    +0.053 A 
ATOM      8  C   UNL     1       2.227  -1.857   3.249  0.00  0.00    +0.025 A 
ATOM      9  C   UNL     1       2.898  -2.215   4.402  0.00  0.00    +0.003 A 
ATOM     10  C   UNL     1       4.095  -1.604   4.726  0.00  0.00    +0.021 A 
ATOM     11  C   UNL     1       4.626  -0.633   3.897  0.00  0.00    +0.061 A 
ATOM     12  C   UNL     1       3.962  -0.274   2.737  0.00  0.00    +0.080 A 
ATOM     13 CL   UNL     1       4.631   0.940   1.692  0.00  0.00    -0.080 Cl
ATOM     14 CL   UNL     1       6.129   0.132   4.308  0.00  0.00    -0.082 Cl
ENDBRANCH   5   7
ENDBRANCH   2   3
BRANCH   2  15
ATOM     15  S   UNL     1      -1.698  -0.656   0.011  0.00  0.00    -0.072 S 
BRANCH  15  16
ATOM     16  C   UNL     1      -2.363  -0.131  -1.534  0.00  0.00    +0.209 A 
ATOM     17  N   UNL     1      -1.736   0.557  -2.460  0.00  0.00    -0.121 NA
ATOM     18  N   UNL     1      -2.522   0.766  -3.455  0.00  0.00    -0.123 NA
ATOM     19  C   UNL     1      -3.687   0.230  -3.226  0.00  0.00    +0.255 A 
ATOM     20  N   UNL     1      -3.625  -0.366  -1.997  0.00  0.00    -0.220 N 
BRANCH  19  21
ATOM     21  C   UNL     1      -4.878   0.255  -4.148  0.00  0.00    +0.454 C 
ATOM     22  F   UNL     1      -4.469   0.638  -5.429  0.00  0.00    -0.163 F 
ATOM     23  F   UNL     1      -5.452  -1.020  -4.204  0.00  0.00    -0.163 F 
ATOM     24  F   UNL     1      -5.821   1.169  -3.666  0.00  0.00    -0.163 F 
ENDBRANCH  19  21
BRANCH  20  25
ATOM     25  N   UNL     1      -4.622  -1.052  -1.362  0.00  0.00    -0.295 N 
ATOM     26  H   UNL     1      -5.182  -0.433  -0.794  0.00  0.00    +0.163 HD
ATOM     27  H   UNL     1      -5.195  -1.552  -2.024  0.00  0.00    +0.163 HD
ENDBRANCH  20  25
ENDBRANCH  15  16
ENDBRANCH   2  15
TORSDOF 6
