REMARK  Name = ZINC20682277
REMARK  9 active torsions:
REMARK  status: ('A' for Active; 'I' for Inactive)
REMARK    1  A    between atoms: C_1  and  C_2
REMARK    2  A    between atoms: C_2  and  C_3
REMARK    3  A    between atoms: C_3  and  C_5
REMARK    4  A    between atoms: C_3  and  N_6
REMARK    5  A    between atoms: N_6  and  S_7
REMARK    6  A    between atoms: S_7  and  C_10
REMARK    7  A    between atoms: C_23  and  C_26
REMARK    8  A    between atoms: C_29  and  O_33
REMARK    9  A    between atoms: C_31  and  O_32
REMARK                            x       y       z     vdW  Elec       q    Type
REMARK                         _______ _______ _______ _____ _____    ______ ____
ROOT
ATOM      1  C   UNL     1       3.404  -6.708   0.351  0.00  0.00    +0.106 A 
ATOM      2  C   UNL     1       3.945  -5.939   1.365  0.00  0.00    +0.030 A 
ATOM      3  C   UNL     1       3.621  -4.600   1.456  0.00  0.00    +0.025 A 
ATOM      4  C   UNL     1       2.755  -4.030   0.531  0.00  0.00    +0.031 A 
ATOM      5  C   UNL     1       2.211  -4.796  -0.488  0.00  0.00    -0.018 A 
ATOM      6  C   UNL     1       2.544  -6.142  -0.569  0.00  0.00    +0.034 A 
ATOM      7  C   UNL     1       1.279  -4.225  -1.509  0.00  0.00    +0.049 C 
ATOM      8  C   UNL     1      -0.148  -4.646  -1.252  0.00  0.00    -0.023 C 
ATOM      9  C   UNL     1      -0.970  -3.670  -1.550  0.00  0.00    -0.030 C 
ATOM     10  C   UNL     1      -0.201  -2.464  -2.054  0.00  0.00    +0.033 C 
ATOM     11  C   UNL     1       1.227  -2.685  -1.484  0.00  0.00    +0.029 C 
ATOM     12  C   UNL     1       1.225  -2.187  -0.035  0.00  0.00    +0.108 C 
ATOM     13  N   UNL     1       2.434  -2.672   0.638  0.00  0.00    -0.336 N 
ATOM     14  H   UNL     1       3.064  -1.974   1.208  0.00  0.00    +0.147 HD
ENDROOT
BRANCH  12  15
ATOM     15  C   UNL     1       1.209  -0.680  -0.020  0.00  0.00    +0.015 A 
ATOM     16  C   UNL     1       0.057  -0.006   0.336  0.00  0.00    +0.012 A 
ATOM     17  C   UNL     1       0.039   1.376   0.351  0.00  0.00    +0.046 A 
ATOM     18  C   UNL     1       1.179   2.089   0.009  0.00  0.00    +0.120 A 
ATOM     19  C   UNL     1       2.336   1.415  -0.349  0.00  0.00    +0.091 A 
ATOM     20  C   UNL     1       2.351   0.029  -0.363  0.00  0.00    +0.125 A 
BRANCH  20  21
ATOM     21  O   UNL     1       3.484  -0.635  -0.714  0.00  0.00    -0.506 OA
ATOM     22  H   UNL     1       4.389  -0.072  -0.986  0.00  0.00    +0.292 HD
ENDBRANCH  20  21
BRANCH  18  23
ATOM     23  O   UNL     1       1.160   3.448   0.025  0.00  0.00    -0.507 OA
ATOM     24  H   UNL     1       2.064   4.013  -0.247  0.00  0.00    +0.292 HD
ENDBRANCH  18  23
ENDBRANCH  12  15
BRANCH   1  25
ATOM     25  S   UNL     1       3.813  -8.417   0.232  0.00  0.00    +0.059 S 
ATOM     26  O   UNL     1       3.608  -8.791  -1.124  0.00  0.00    -0.153 OA
ATOM     27  O   UNL     1       5.064  -8.582   0.886  0.00  0.00    -0.153 OA
BRANCH  25  28
ATOM     28  N   UNL     1       2.698  -9.252   1.127  0.00  0.00    -0.187 NA
ATOM     29  H   UNL     1       2.990  -9.659   2.106  0.00  0.00    +0.148 HD
BRANCH  28  30
ATOM     30  C   UNL     1       1.290  -9.256   0.723  0.00  0.00    +0.073 C 
ATOM     31  C   UNL     1       1.005 -10.502  -0.119  0.00  0.00    +0.025 C 
BRANCH  30  33
ATOM     32  C   UNL     1       0.595  -7.966   2.746  0.00  0.00    +0.005 C 
ATOM     33  C   UNL     1       0.402  -9.269   1.968  0.00  0.00    +0.017 C 
ENDBRANCH  30  33
ENDBRANCH  28  30
ENDBRANCH  25  28
ENDBRANCH   1  25
TORSDOF 7
