REMARK  Name = ZINC12584525
REMARK  5 active torsions:
REMARK  status: ('A' for Active; 'I' for Inactive)
REMARK    1  A    between atoms: C_3  and  N_28
REMARK    2  A    between atoms: C_4  and  N_11
REMARK    3  A    between atoms: C_6  and  C_7
REMARK    4  A    between atoms: N_11  and  S_12
REMARK    5  A    between atoms: S_12  and  C_15
REMARK                            x       y       z     vdW  Elec       q    Type
REMARK                         _______ _______ _______ _____ _____    ______ ____
ROOT
ATOM      1  N   UNL     1       0.080   2.797   4.721  0.00  0.00    -0.214 N 
ATOM      2  H   UNL     1      -0.303   2.549   5.576  0.00  0.00    +0.174 HD
ENDROOT
BRANCH   1   6
ATOM      3  C   UNL     1      -2.257   2.670   1.268  0.00  0.00    +0.014 A 
ATOM      4  C   UNL     1      -2.830   3.041   2.470  0.00  0.00    +0.025 A 
ATOM      5  C   UNL     1      -2.058   3.087   3.621  0.00  0.00    +0.053 A 
ATOM      6  C   UNL     1      -0.705   2.753   3.562  0.00  0.00    +0.070 A 
ATOM      7  C   UNL     1      -0.140   2.377   2.353  0.00  0.00    +0.038 A 
ATOM      8  C   UNL     1      -0.917   2.334   1.210  0.00  0.00    +0.057 A 
BRANCH   5   9
ATOM      9  N   UNL     1      -2.635   3.467   4.839  0.00  0.00    -0.324 N 
ATOM     10  C   UNL     1      -3.670   2.508   5.254  0.00  0.00    +0.133 C 
ATOM     11  C   UNL     1      -4.231   2.929   6.615  0.00  0.00    +0.178 C 
ATOM     12  O   UNL     1      -4.735   4.264   6.525  0.00  0.00    -0.377 OA
ATOM     13  C   UNL     1      -3.754   5.224   6.124  0.00  0.00    +0.178 C 
ATOM     14  C   UNL     1      -3.188   4.827   4.758  0.00  0.00    +0.133 C 
ENDBRANCH   5   9
BRANCH   8  15
ATOM     15  C   UNL     1      -0.301   1.925  -0.102  0.00  0.00    +0.417 C 
ATOM     16  F   UNL     1      -0.410   0.539  -0.257  0.00  0.00    -0.166 F 
ATOM     17  F   UNL     1       1.049   2.291  -0.118  0.00  0.00    -0.166 F 
ATOM     18  F   UNL     1      -0.970   2.565  -1.151  0.00  0.00    -0.166 F 
ENDBRANCH   8  15
ENDBRANCH   1   6
BRANCH   1  19
ATOM     19  S   UNL     1       1.663   3.275   4.630  0.00  0.00    +0.072 S 
ATOM     20  O   UNL     1       2.144   3.343   5.966  0.00  0.00    -0.150 OA
ATOM     21  O   UNL     1       2.277   2.460   3.640  0.00  0.00    -0.150 OA
BRANCH  19  22
ATOM     22  C   UNL     1       1.676   4.922   4.006  0.00  0.00    +0.110 A 
ATOM     23  C   UNL     1       1.751   5.146   2.643  0.00  0.00    +0.031 A 
ATOM     24  C   UNL     1       1.756   6.436   2.158  0.00  0.00    +0.027 A 
ATOM     25  C   UNL     1       1.695   7.526   3.030  0.00  0.00    +0.055 A 
ATOM     26  C   UNL     1       1.626   7.302   4.395  0.00  0.00    +0.057 A 
ATOM     27  C   UNL     1       1.617   5.990   4.875  0.00  0.00    +0.054 A 
ATOM     28  N   UNL     1       1.561   8.318   5.343  0.00  0.00    -0.284 N 
ATOM     29  C   UNL     1       2.260   9.450   5.316  0.00  0.00    +0.226 C 
ATOM     30  O   UNL     1       2.144  10.243   6.226  0.00  0.00    -0.275 OA
ATOM     31  C   UNL     1       3.195   9.763   4.177  0.00  0.00    +0.192 C 
ATOM     32  C   UNL     1       2.384   9.845   2.909  0.00  0.00    +0.226 C 
ATOM     33  O   UNL     1       2.346  10.889   2.294  0.00  0.00    -0.275 OA
ATOM     34  N   UNL     1       1.708   8.793   2.453  0.00  0.00    -0.284 N 
ATOM     35  H   UNL     1       0.954   8.191   6.089  0.00  0.00    +0.155 HD
ATOM     36  H   UNL     1       1.179   8.920   1.651  0.00  0.00    +0.155 HD
ENDBRANCH  19  22
ENDBRANCH   1  19
TORSDOF 5
