REMARK  Name = ZINC41317889
REMARK  10 active torsions:
REMARK  status: ('A' for Active; 'I' for Inactive)
REMARK    1  A    between atoms: C_1  and  C_2
REMARK    2  A    between atoms: C_2  and  C_3
REMARK    3  A    between atoms: C_3  and  C_5
REMARK    4  A    between atoms: C_3  and  C_6
REMARK    5  A    between atoms: C_6  and  C_8
REMARK    6  A    between atoms: C_6  and  N_28
REMARK    7  A    between atoms: N_10  and  C_11
REMARK    8  A    between atoms: C_11  and  C_12
REMARK    9  A    between atoms: C_15  and  C_18
REMARK   10  A    between atoms: C_18  and  N_19
REMARK                            x       y       z     vdW  Elec       q    Type
REMARK                         _______ _______ _______ _____ _____    ______ ____
ROOT
ATOM      1  C   UNL     1       1.650  -3.162   4.745  0.00  0.00    +0.139 C 
ENDROOT
BRANCH   1   2
ATOM      2  C   UNL     1       0.693  -3.232   5.908  0.00  0.00    -0.030 A 
ATOM      3  C   UNL     1       0.527  -2.136   6.733  0.00  0.00    +0.005 A 
ATOM      4  C   UNL     1      -0.350  -2.200   7.799  0.00  0.00    +0.005 A 
ATOM      5  C   UNL     1      -1.062  -3.361   8.040  0.00  0.00    -0.030 A 
ATOM      6  C   UNL     1      -0.896  -4.457   7.214  0.00  0.00    +0.005 A 
ATOM      7  C   UNL     1      -0.022  -4.391   6.145  0.00  0.00    +0.005 A 
BRANCH   5   8
ATOM      8  C   UNL     1      -2.017  -3.431   9.203  0.00  0.00    +0.140 C 
BRANCH   8   9
ATOM      9  N   UNL     1      -3.348  -2.997   8.769  0.00  0.00    -0.325 N 
ATOM     10  C   UNL     1      -3.834  -1.615   8.809  0.00  0.00    +0.110 C 
ATOM     11  C   UNL     1      -5.267  -1.676   8.255  0.00  0.00    +0.056 C 
ATOM     12  C   UNL     1      -5.488  -3.137   7.934  0.00  0.00    -0.025 A 
ATOM     13  C   UNL     1      -4.334  -3.837   8.252  0.00  0.00    +0.033 A 
ATOM     14  C   UNL     1      -4.298  -5.216   8.035  0.00  0.00    +0.023 A 
ATOM     15  C   UNL     1      -5.393  -5.867   7.508  0.00  0.00    +0.002 A 
ATOM     16  C   UNL     1      -6.537  -5.158   7.191  0.00  0.00    +0.000 A 
ATOM     17  C   UNL     1      -6.585  -3.794   7.412  0.00  0.00    +0.005 A 
ENDBRANCH   8   9
ENDBRANCH   5   8
ENDBRANCH   1   2
BRANCH   1  20
ATOM     18  C   UNL     1       1.601  -2.533   2.392  0.00  0.00    +0.234 C 
ATOM     19  O   UNL     1       2.781  -2.805   2.325  0.00  0.00    -0.274 OA
ATOM     20  N   UNL     1       0.941  -2.677   3.558  0.00  0.00    -0.310 N 
ATOM     21  H   UNL     1      -0.002  -2.459   3.612  0.00  0.00    +0.149 HD
BRANCH  18  22
ATOM     22  C   UNL     1       0.872  -2.034   1.171  0.00  0.00    +0.163 C 
BRANCH  22  23
ATOM     23  N   UNL     1       1.622  -2.405  -0.032  0.00  0.00    -0.288 N 
ATOM     24  C   UNL     1       2.884  -1.962  -0.202  0.00  0.00    +0.298 C 
ATOM     25  O   UNL     1       3.399  -1.255   0.642  0.00  0.00    -0.253 OA
ATOM     26  N   UNL     1       3.574  -2.303  -1.308  0.00  0.00    -0.313 N 
ATOM     27  H   UNL     1       1.211  -2.969  -0.705  0.00  0.00    +0.151 HD
ATOM     28  H   UNL     1       3.163  -2.867  -1.982  0.00  0.00    +0.146 HD
ATOM     29  H   UNL     1       4.482  -1.984  -1.431  0.00  0.00    +0.146 HD
ENDBRANCH  22  23
BRANCH  22  30
ATOM     30  C   UNL     1       0.742  -0.511   1.242  0.00  0.00    +0.015 C 
ATOM     31  C   UNL     1      -0.042  -0.124   2.497  0.00  0.00    +0.010 C 
BRANCH  30  33
ATOM     32  C   UNL     1      -0.019   1.526   0.010  0.00  0.00    +0.004 C 
ATOM     33  C   UNL     1       0.002  -0.004   0.002  0.00  0.00    +0.002 C 
ENDBRANCH  30  33
ENDBRANCH  22  30
ENDBRANCH  18  22
ENDBRANCH   1  20
TORSDOF 8
