REMARK  Name = ZINC59016981
REMARK  9 active torsions:
REMARK  status: ('A' for Active; 'I' for Inactive)
REMARK    1  A    between atoms: C_1  and  C_2
REMARK    2  A    between atoms: C_2  and  C_4
REMARK    3  A    between atoms: C_7  and  N_10
REMARK    4  A    between atoms: C_11  and  C_13
REMARK    5  A    between atoms: C_13  and  S_14
REMARK    6  A    between atoms: S_14  and  C_15
REMARK    7  A    between atoms: N_20  and  N_21
REMARK    8  A    between atoms: C_22  and  C_23
REMARK    9  A    between atoms: C_28  and  O_29
REMARK                            x       y       z     vdW  Elec       q    Type
REMARK                         _______ _______ _______ _____ _____    ______ ____
ROOT
ATOM      1  C   UNL     1       0.482  -7.364  -7.498  0.00  0.00    +0.211 A 
ATOM      2  N   UNL     1       0.598  -8.669  -7.763  0.00  0.00    -0.186 NA
ATOM      3  C   UNL     1       0.663  -8.853  -9.065  0.00  0.00    +0.232 A 
ATOM      4  N   UNL     1       0.589  -7.643  -9.661  0.00  0.00    -0.245 N 
ATOM      5  N   UNL     1       0.467  -6.699  -8.629  0.00  0.00    -0.144 NA
ATOM      6  N   UNL     1       0.787 -10.070  -9.709  0.00  0.00    -0.205 N 
ATOM      7  H   UNL     1       0.828 -10.104 -10.678  0.00  0.00    +0.177 HD
ATOM      8  H   UNL     1       0.612  -7.463 -10.613  0.00  0.00    +0.192 HD
ENDROOT
BRANCH   6   9
ATOM      9  N   UNL     1       0.854 -11.254  -8.963  0.00  0.00    -0.187 NA
ATOM     10  C   UNL     1       0.970 -12.397  -9.568  0.00  0.00    +0.142 C 
BRANCH  10  11
ATOM     11  C   UNL     1       1.040 -13.642  -8.783  0.00  0.00    +0.037 A 
ATOM     12  C   UNL     1       1.171 -14.873  -9.430  0.00  0.00    +0.028 A 
ATOM     13  C   UNL     1       1.236 -16.035  -8.688  0.00  0.00    +0.019 A 
ATOM     14  C   UNL     1       1.172 -15.986  -7.306  0.00  0.00    +0.019 A 
ATOM     15  C   UNL     1       1.042 -14.773  -6.655  0.00  0.00    +0.047 A 
ATOM     16  C   UNL     1       0.981 -13.597  -7.383  0.00  0.00    +0.126 A 
ATOM     17 BR   UNL     1       1.413 -17.702  -9.564  0.00  0.00    -0.050 Br
BRANCH  16  18
ATOM     18  O   UNL     1       0.859 -12.405  -6.744  0.00  0.00    -0.506 OA
ATOM     19  H   UNL     1      -0.056 -12.131  -6.594  0.00  0.00    +0.292 HD
ENDBRANCH  16  18
ENDBRANCH  10  11
ENDBRANCH   6   9
BRANCH   1  20
ATOM     20  S   UNL     1       0.361  -6.652  -5.890  0.00  0.00    -0.075 S 
BRANCH  20  21
ATOM     21  C   UNL     1       0.222  -4.872  -6.208  0.00  0.00    +0.173 C 
BRANCH  21  23
ATOM     22  N   UNL     1      -0.005  -2.792  -4.888  0.00  0.00    -0.285 N 
ATOM     23  C   UNL     1       0.110  -4.135  -4.898  0.00  0.00    +0.227 C 
ATOM     24  O   UNL     1       0.123  -4.750  -3.853  0.00  0.00    -0.275 OA
ATOM     25  H   UNL     1      -0.093  -2.306  -5.723  0.00  0.00    +0.155 HD
BRANCH  22  29
ATOM     26  C   UNL     1       0.017  -0.730  -1.275  0.00  0.00    +0.017 A 
ATOM     27  C   UNL     1       0.783  -1.893  -1.424  0.00  0.00    +0.013 A 
ATOM     28  C   UNL     1       0.772  -2.569  -2.617  0.00  0.00    +0.024 A 
ATOM     29  C   UNL     1       0.003  -2.101  -3.678  0.00  0.00    +0.033 A 
ATOM     30  C   UNL     1      -0.760  -0.945  -3.534  0.00  0.00    +0.024 A 
ATOM     31  C   UNL     1      -0.760  -0.266  -2.343  0.00  0.00    +0.013 A 
BRANCH  26  33
ATOM     32  C   UNL     1       0.862  -0.504   1.149  0.00  0.00    +0.091 C 
ATOM     33  C   UNL     1       0.025  -0.002   0.001  0.00  0.00    +0.160 C 
ATOM     34  O   UNL     1      -0.643   1.002   0.130  0.00  0.00    -0.292 OA
ENDBRANCH  26  33
ENDBRANCH  22  29
ENDBRANCH  21  23
ENDBRANCH  20  21
ENDBRANCH   1  20
TORSDOF 8
