REMARK  Name = ZINC06085043
REMARK  5 active torsions:
REMARK  status: ('A' for Active; 'I' for Inactive)
REMARK    1  A    between atoms: C_4  and  S_21
REMARK    2  A    between atoms: C_6  and  C_7
REMARK    3  A    between atoms: N_9  and  N_10
REMARK    4  A    between atoms: N_10  and  C_11
REMARK    5  A    between atoms: S_21  and  N_24
REMARK                            x       y       z     vdW  Elec       q    Type
REMARK                         _______ _______ _______ _____ _____    ______ ____
ROOT
ATOM      1  C   UNL     1       3.684  -0.692  -0.145  0.00  0.00    +0.260 C 
ATOM      2  O   UNL     1       4.719  -0.061  -0.049  0.00  0.00    -0.269 OA
ATOM      3  N   UNL     1       3.715  -2.039  -0.159  0.00  0.00    -0.232 N 
ATOM      4  H   UNL     1       2.890  -2.543  -0.236  0.00  0.00    +0.173 HD
ENDROOT
BRANCH   1  10
ATOM      5  C   UNL     1       1.202  -0.704  -0.357  0.00  0.00    +0.014 A 
ATOM      6  C   UNL     1      -0.000  -0.036  -0.452  0.00  0.00    +0.023 A 
ATOM      7  C   UNL     1      -0.029   1.349  -0.438  0.00  0.00    +0.067 A 
ATOM      8  C   UNL     1       1.148   2.071  -0.328  0.00  0.00    +0.124 A 
ATOM      9  C   UNL     1       2.357   1.414  -0.232  0.00  0.00    +0.043 A 
ATOM     10  C   UNL     1       2.392   0.018  -0.246  0.00  0.00    +0.040 A 
ATOM     11 CL   UNL     1      -1.546   2.183  -0.565  0.00  0.00    -0.082 Cl
BRANCH   8  12
ATOM     12  S   UNL     1       1.101   3.832  -0.312  0.00  0.00    +0.057 S 
ATOM     13  O   UNL     1       0.111   4.203   0.637  0.00  0.00    -0.153 OA
ATOM     14  O   UNL     1       2.449   4.273  -0.218  0.00  0.00    -0.153 OA
BRANCH  12  15
ATOM     15  N   UNL     1       0.545   4.321  -1.793  0.00  0.00    -0.203 NA
ATOM     16  H   UNL     1       0.043   5.147  -1.873  0.00  0.00    +0.144 HD
ATOM     17  H   UNL     1       0.721   3.781  -2.579  0.00  0.00    +0.144 HD
ENDBRANCH  12  15
ENDBRANCH   8  12
ENDBRANCH   1  10
BRANCH   3  18
ATOM     18  N   UNL     1       4.940  -2.713  -0.063  0.00  0.00    -0.259 N 
ATOM     19  H   UNL     1       5.771  -2.211  -0.064  0.00  0.00    +0.170 HD
BRANCH  18  20
ATOM     20  C   UNL     1       4.966  -4.109   0.034  0.00  0.00    +0.121 A 
ATOM     21  C   UNL     1       3.973  -4.776   0.742  0.00  0.00    +0.184 A 
ATOM     22  C   UNL     1       3.998  -6.158   0.832  0.00  0.00    +0.163 A 
ATOM     23  C   UNL     1       5.017  -6.874   0.227  0.00  0.00    +0.082 A 
ATOM     24  C   UNL     1       6.010  -6.212  -0.474  0.00  0.00    +0.163 A 
ATOM     25  C   UNL     1       5.987  -4.831  -0.572  0.00  0.00    +0.184 A 
ATOM     26  F   UNL     1       6.956  -4.185  -1.257  0.00  0.00    -0.200 F 
ATOM     27  F   UNL     1       7.003  -6.914  -1.064  0.00  0.00    -0.202 F 
ATOM     28  F   UNL     1       3.029  -6.807   1.514  0.00  0.00    -0.202 F 
ATOM     29  F   UNL     1       2.982  -4.077   1.337  0.00  0.00    -0.200 F 
ENDBRANCH  18  20
ENDBRANCH   3  18
TORSDOF 5
