REMARK  Name = ZINC35797434
REMARK  8 active torsions:
REMARK  status: ('A' for Active; 'I' for Inactive)
REMARK    1  A    between atoms: C_1  and  C_2
REMARK    2  A    between atoms: C_5  and  N_9
REMARK    3  A    between atoms: C_6  and  N_8
REMARK    4  A    between atoms: N_9  and  C_10
REMARK    5  A    between atoms: C_10  and  C_11
REMARK    6  A    between atoms: C_11  and  N_12
REMARK    7  A    between atoms: N_12  and  S_13
REMARK    8  A    between atoms: S_13  and  C_16
REMARK                            x       y       z     vdW  Elec       q    Type
REMARK                         _______ _______ _______ _____ _____    ______ ____
ROOT
ATOM      1  C   UNL     1      -0.018   1.503   0.010  0.00  0.00    +0.044 C 
ATOM      2  C   UNL     1       0.002  -0.004   0.002  0.00  0.00    -0.049 A 
ATOM      3  C   UNL     1       0.006  -0.687  -1.200  0.00  0.00    +0.005 A 
ATOM      4  C   UNL     1       0.025  -2.069  -1.215  0.00  0.00    +0.025 A 
ATOM      5  C   UNL     1       0.040  -2.775  -0.021  0.00  0.00    +0.048 A 
ATOM      6  C   UNL     1       0.037  -2.086   1.192  0.00  0.00    +0.046 A 
ATOM      7  C   UNL     1       0.023  -0.700   1.197  0.00  0.00    +0.028 A 
ENDROOT
BRANCH   6   8
ATOM      8  N   UNL     1       0.052  -2.793   2.400  0.00  0.00    -0.357 N 
ATOM      9  H   UNL     1       0.065  -3.763   2.395  0.00  0.00    +0.142 HD
ATOM     10  H   UNL     1       0.050  -2.313   3.243  0.00  0.00    +0.142 HD
ENDBRANCH   6   8
BRANCH   5  11
ATOM     11  N   UNL     1       0.059  -4.175  -0.034  0.00  0.00    -0.341 N 
ATOM     12  H   UNL     1       0.070  -4.667   0.802  0.00  0.00    +0.146 HD
BRANCH  11  13
ATOM     13  C   UNL     1       0.061  -4.896  -1.309  0.00  0.00    +0.118 C 
BRANCH  13  14
ATOM     14  C   UNL     1       0.083  -6.403  -1.043  0.00  0.00    +0.124 C 
BRANCH  14  15
ATOM     15  N   UNL     1       0.086  -7.124  -2.318  0.00  0.00    -0.193 NA
ATOM     16  H   UNL     1      -0.142  -6.660  -3.138  0.00  0.00    +0.148 HD
BRANCH  15  17
ATOM     17  S   UNL     1       0.478  -8.732  -2.358  0.00  0.00    +0.027 S 
ATOM     18  O   UNL     1       0.403  -9.089  -3.732  0.00  0.00    -0.158 OA
ATOM     19  O   UNL     1       1.708  -8.823  -1.653  0.00  0.00    -0.158 OA
ATOM     20  C   UNL     1      -0.841  -9.558  -1.425  0.00  0.00    +0.214 C 
ENDBRANCH  15  17
ENDBRANCH  14  15
ENDBRANCH  13  14
ENDBRANCH  11  13
ENDBRANCH   5  11
TORSDOF 6
