REMARK  Name = ZINC14671748
REMARK  5 active torsions:
REMARK  status: ('A' for Active; 'I' for Inactive)
REMARK    1  A    between atoms: C_6  and  S_9
REMARK    2  A    between atoms: S_9  and  C_10
REMARK    3  A    between atoms: C_11  and  C_23
REMARK    4  A    between atoms: C_17  and  C_21
REMARK    5  A    between atoms: C_18  and  N_20
REMARK                            x       y       z     vdW  Elec       q    Type
REMARK                         _______ _______ _______ _____ _____    ______ ____
ROOT
ATOM      1  C   UNL     1      -2.347   5.899  -1.198  0.00  0.00    +0.076 C 
ATOM      2  C   UNL     1      -2.445   7.191  -1.618  0.00  0.00    +0.053 C 
ATOM      3  C   UNL     1      -3.283   7.563  -2.807  0.00  0.00    +0.041 C 
ATOM      4  C   UNL     1      -2.521   8.581  -3.678  0.00  0.00    +0.017 C 
ATOM      5  C   UNL     1      -3.620   9.553  -4.176  0.00  0.00    +0.001 C 
ATOM      6  C   UNL     1      -4.548   9.680  -2.942  0.00  0.00    +0.001 C 
ATOM      7  C   UNL     1      -4.571   8.260  -2.338  0.00  0.00    +0.017 C 
ATOM      8  C   UNL     1      -3.628   6.356  -3.629  0.00  0.00    +0.075 C 
ATOM      9  C   UNL     1      -3.487   5.099  -3.134  0.00  0.00    +0.100 C 
ATOM     10  N   UNL     1      -3.008   4.893  -1.863  0.00  0.00    -0.297 N 
ATOM     11  H   UNL     1      -3.156   3.917  -1.377  0.00  0.00    +0.154 HD
ENDROOT
BRANCH   2  12
ATOM     12  C   UNL     1      -1.748   8.193  -0.927  0.00  0.00    +0.241 C 
ATOM     13  O   UNL     1      -2.339   8.918  -0.145  0.00  0.00    -0.271 OA
ATOM     14  N   UNL     1      -0.425   8.354  -1.127  0.00  0.00    -0.326 N 
ATOM     15  H   UNL     1       0.121   9.140  -0.585  0.00  0.00    +0.145 HD
ATOM     16  H   UNL     1       0.108   7.700  -1.833  0.00  0.00    +0.145 HD
ENDBRANCH   2  12
BRANCH   9  17
ATOM     17  N   UNL     1      -3.821   4.019  -3.916  0.00  0.00    -0.346 N 
ATOM     18  H   UNL     1      -3.709   2.999  -3.521  0.00  0.00    +0.143 HD
ATOM     19  H   UNL     1      -4.201   4.176  -4.936  0.00  0.00    +0.143 HD
ENDBRANCH   9  17
BRANCH   8  20
ATOM     20  C   UNL     1      -4.116   6.533  -4.963  0.00  0.00    +0.099 C 
ATOM     21  N   UNL     1      -4.504   6.674  -6.022  0.00  0.00    -0.191 NA
ENDBRANCH   8  20
BRANCH   1  22
ATOM     22  S   UNL     1      -1.358   5.511   0.208  0.00  0.00    -0.099 S 
BRANCH  22  28
ATOM     23  C   UNL     1      -0.991   1.627   1.502  0.00  0.00    +0.002 C 
ATOM     24  C   UNL     1      -0.240   1.076   0.288  0.00  0.00    +0.008 C 
ATOM     25  C   UNL     1      -0.919   1.564  -0.995  0.00  0.00    +0.075 C 
ATOM     26  C   UNL     1      -1.008   3.074  -0.949  0.00  0.00    +0.147 C 
ATOM     27  O   UNL     1      -0.612   3.746  -1.871  0.00  0.00    -0.296 OA
ATOM     28  C   UNL     1      -1.605   3.720   0.282  0.00  0.00    +0.119 C 
ATOM     29  C   UNL     1      -0.900   3.154   1.519  0.00  0.00    +0.022 C 
ENDBRANCH  22  28
ENDBRANCH   1  22
TORSDOF 5
