REMARK  Name = ZINC02793653
REMARK  8 active torsions:
REMARK  status: ('A' for Active; 'I' for Inactive)
REMARK    1  A    between atoms: C_3  and  C_6
REMARK    2  A    between atoms: C_6  and  N_7
REMARK    3  A    between atoms: N_7  and  C_8
REMARK    4  A    between atoms: C_8  and  N_10
REMARK    5  A    between atoms: N_10  and  N_11
REMARK    6  A    between atoms: C_12  and  C_14
REMARK    7  A    between atoms: C_19  and  C_32
REMARK    8  A    between atoms: C_22  and  C_25
REMARK                            x       y       z     vdW  Elec       q    Type
REMARK                         _______ _______ _______ _____ _____    ______ ____
ROOT
ATOM      1  C   UNL     1       1.116   1.926   0.002  0.00  0.00    +0.150 A 
ATOM      2  C   UNL     1      -0.013   1.076   0.008  0.00  0.00    +0.078 A 
ATOM      3  C   UNL     1      -1.111   1.857   0.017  0.00  0.00    +0.119 A 
ATOM      4  N   UNL     1      -0.705   3.161   0.027  0.00  0.00    -0.238 N 
ATOM      5  N   UNL     1       0.690   3.177   0.013  0.00  0.00    -0.164 NA
ATOM      6  C   UNL     1      -1.627   4.300   0.046  0.00  0.00    +0.215 C 
ATOM      7  C   UNL     1      -2.997   3.820   0.538  0.00  0.00    +0.063 C 
ATOM      8  C   UNL     1      -3.426   2.574  -0.245  0.00  0.00    +0.104 C 
ATOM      9  N   UNL     1      -2.460   1.492   0.029  0.00  0.00    -0.322 N 
ATOM     10  H   UNL     1      -2.819   0.471   0.227  0.00  0.00    +0.148 HD
ENDROOT
BRANCH   8  11
ATOM     11  C   UNL     1      -4.802   2.147   0.196  0.00  0.00    -0.027 A 
ATOM     12  C   UNL     1      -4.960   1.419   1.361  0.00  0.00    +0.007 A 
ATOM     13  C   UNL     1      -6.222   1.032   1.769  0.00  0.00    +0.020 A 
ATOM     14  C   UNL     1      -7.328   1.365   1.006  0.00  0.00    +0.041 A 
ATOM     15  C   UNL     1      -7.169   2.089  -0.163  0.00  0.00    +0.020 A 
ATOM     16  C   UNL     1      -5.906   2.480  -0.567  0.00  0.00    +0.007 A 
ATOM     17 CL   UNL     1      -8.913   0.873   1.514  0.00  0.00    -0.084 Cl
ENDBRANCH   8  11
BRANCH   1  19
ATOM     18  N   UNL     1       3.515   2.410  -0.019  0.00  0.00    -0.230 N 
ATOM     19  C   UNL     1       2.528   1.492  -0.014  0.00  0.00    +0.280 C 
ATOM     20  O   UNL     1       2.800   0.307  -0.023  0.00  0.00    -0.267 OA
ATOM     21  H   UNL     1       3.269   3.482  -0.010  0.00  0.00    +0.173 HD
BRANCH  18  22
ATOM     22  N   UNL     1       4.854   1.998  -0.034  0.00  0.00    -0.246 N 
ATOM     23  H   UNL     1       5.100   0.926  -0.042  0.00  0.00    +0.172 HD
BRANCH  22  24
ATOM     24  C   UNL     1       5.841   2.916  -0.038  0.00  0.00    +0.147 C 
ATOM     25  S   UNL     1       7.478   2.413  -0.057  0.00  0.00    -0.017 S 
BRANCH  24  26
ATOM     26  N   UNL     1       5.540   4.230  -0.028  0.00  0.00    -0.318 N 
ATOM     27  H   UNL     1       4.489   4.553  -0.016  0.00  0.00    +0.148 HD
BRANCH  26  28
ATOM     28  C   UNL     1       6.613   5.227  -0.033  0.00  0.00    +0.177 C 
BRANCH  28  31
ATOM     29  C   UNL     1       5.175   8.555   0.631  0.00  0.00    +0.041 A 
ATOM     30  C   UNL     1       5.711   7.326   1.078  0.00  0.00    +0.046 A 
ATOM     31  C   UNL     1       6.014   6.610  -0.020  0.00  0.00    +0.122 A 
ATOM     32  O   UNL     1       5.696   7.339  -1.102  0.00  0.00    -0.466 OA
ATOM     33  C   UNL     1       5.181   8.517  -0.714  0.00  0.00    +0.195 A 
ENDBRANCH  28  31
ENDBRANCH  26  28
ENDBRANCH  24  26
ENDBRANCH  22  24
ENDBRANCH  18  22
ENDBRANCH   1  19
BRANCH   6  34
ATOM     34  C   UNL     1      -1.092   5.378   0.991  0.00  0.00    +0.412 C 
ATOM     35  F   UNL     1       0.164   5.804   0.548  0.00  0.00    -0.168 F 
ATOM     36  F   UNL     1      -1.974   6.463   1.007  0.00  0.00    -0.168 F 
ATOM     37  F   UNL     1      -0.977   4.851   2.282  0.00  0.00    -0.168 F 
ENDBRANCH   6  34
TORSDOF 8
