REMARK  Name = ZINC39127795
REMARK  9 active torsions:
REMARK  status: ('A' for Active; 'I' for Inactive)
REMARK    1  A    between atoms: C_1  and  C_2
REMARK    2  A    between atoms: C_3  and  C_26
REMARK    3  A    between atoms: C_4  and  O_24
REMARK    4  A    between atoms: C_5  and  C_23
REMARK    5  A    between atoms: N_11  and  C_12
REMARK    6  A    between atoms: C_12  and  C_13
REMARK    7  A    between atoms: C_16  and  S_19
REMARK    8  A    between atoms: S_19  and  N_22
REMARK    9  A    between atoms: O_24  and  C_25
REMARK                            x       y       z     vdW  Elec       q    Type
REMARK                         _______ _______ _______ _____ _____    ______ ____
ROOT
ATOM      1  C   UNL     1       0.438   1.473  -0.054  0.00  0.00    +0.046 C 
ATOM      2  C   UNL     1       0.222  -0.018  -0.029  0.00  0.00    -0.018 A 
ATOM      3  C   UNL     1      -0.098  -0.676  -1.189  0.00  0.00    -0.004 A 
ATOM      4  C   UNL     1      -0.306  -2.051  -1.209  0.00  0.00    +0.127 A 
ATOM      5  C   UNL     1      -0.187  -2.772  -0.029  0.00  0.00    +0.007 A 
ATOM      6  C   UNL     1       0.134  -2.117   1.133  0.00  0.00    +0.047 A 
ATOM      7  C   UNL     1       0.357  -0.723   1.189  0.00  0.00    +0.084 A 
ATOM      8  N   UNL     1       0.669  -0.228   2.408  0.00  0.00    -0.225 NA
ATOM      9  C   UNL     1       0.766  -0.989   3.474  0.00  0.00    +0.159 A 
ATOM     10  S   UNL     1       0.386  -2.609   2.822  0.00  0.00    -0.052 S 
ATOM     11  N   UNL     1       1.075  -0.627   4.770  0.00  0.00    -0.319 N 
ATOM     12  C   UNL     1      -0.408  -4.262  -0.025  0.00  0.00    +0.049 C 
ATOM     13  C   UNL     1      -0.228   0.108  -2.469  0.00  0.00    +0.048 C 
ATOM     14  H   UNL     1       1.255   0.301   4.985  0.00  0.00    +0.148 HD
ENDROOT
BRANCH   4  15
ATOM     15  O   UNL     1      -0.624  -2.682  -2.371  0.00  0.00    -0.495 OA
ATOM     16  C   UNL     1       0.462  -3.166  -3.164  0.00  0.00    +0.277 C 
ENDBRANCH   4  15
BRANCH  11  17
ATOM     17  C   UNL     1       1.130  -1.647   5.821  0.00  0.00    +0.138 C 
BRANCH  17  18
ATOM     18  C   UNL     1       1.484  -0.996   7.134  0.00  0.00    -0.030 A 
ATOM     19  C   UNL     1       2.810  -0.866   7.504  0.00  0.00    +0.007 A 
ATOM     20  C   UNL     1       3.135  -0.269   8.708  0.00  0.00    +0.029 A 
ATOM     21  C   UNL     1       2.135   0.197   9.541  0.00  0.00    +0.105 A 
ATOM     22  C   UNL     1       0.810   0.068   9.170  0.00  0.00    +0.029 A 
ATOM     23  C   UNL     1       0.485  -0.525   7.964  0.00  0.00    +0.007 A 
BRANCH  21  24
ATOM     24  S   UNL     1       2.550   0.957  11.076  0.00  0.00    +0.056 S 
ATOM     25  O   UNL     1       1.415   0.816  11.918  0.00  0.00    -0.153 OA
ATOM     26  O   UNL     1       3.833   0.465  11.438  0.00  0.00    -0.153 OA
BRANCH  24  27
ATOM     27  N   UNL     1       2.728   2.578  10.788  0.00  0.00    -0.204 NA
ATOM     28  H   UNL     1       2.602   2.928   9.892  0.00  0.00    +0.144 HD
ATOM     29  H   UNL     1       2.960   3.177  11.515  0.00  0.00    +0.144 HD
ENDBRANCH  24  27
ENDBRANCH  21  24
ENDBRANCH  17  18
ENDBRANCH  11  17
TORSDOF 5
