REMARK  Name = ZINC59474641
REMARK  6 active torsions:
REMARK  status: ('A' for Active; 'I' for Inactive)
REMARK    1  A    between atoms: C_7  and  C_11
REMARK    2  A    between atoms: C_7  and  O_32
REMARK    3  A    between atoms: C_11  and  C_12
REMARK    4  A    between atoms: C_12  and  C_14
REMARK    5  A    between atoms: C_17  and  N_20
REMARK    6  A    between atoms: N_23  and  C_24
REMARK                            x       y       z     vdW  Elec       q    Type
REMARK                         _______ _______ _______ _____ _____    ______ ____
ROOT
ATOM      1  C   UNL     1       1.435  -4.750   2.805  0.00  0.00    +0.018 A 
ATOM      2  C   UNL     1       0.800  -4.317   3.976  0.00  0.00    +0.013 A 
ATOM      3  C   UNL     1       0.374  -5.231   4.898  0.00  0.00    +0.024 A 
ATOM      4  C   UNL     1       0.570  -6.591   4.675  0.00  0.00    +0.035 A 
ATOM      5  C   UNL     1       1.201  -7.026   3.513  0.00  0.00    +0.024 A 
ATOM      6  C   UNL     1       1.625  -6.120   2.583  0.00  0.00    +0.013 A 
ENDROOT
BRANCH   4   7
ATOM      7  N   UNL     1       0.135  -7.519   5.618  0.00  0.00    -0.269 N 
ATOM      8  C   UNL     1      -0.980  -7.279   6.335  0.00  0.00    +0.308 C 
ATOM      9  O   UNL     1      -1.658  -6.298   6.094  0.00  0.00    -0.252 OA
ATOM     10  N   UNL     1      -1.344  -8.124   7.319  0.00  0.00    -0.269 N 
ATOM     11  H   UNL     1       0.635  -8.338   5.759  0.00  0.00    +0.156 HD
ATOM     12  H   UNL     1      -0.765  -8.864   7.562  0.00  0.00    +0.156 HD
BRANCH  10  13
ATOM     13  C   UNL     1      -2.558  -7.936   7.991  0.00  0.00    +0.036 A 
ATOM     14  C   UNL     1      -2.667  -8.268   9.335  0.00  0.00    +0.025 A 
ATOM     15  C   UNL     1      -3.865  -8.082   9.997  0.00  0.00    +0.023 A 
ATOM     16  C   UNL     1      -4.956  -7.563   9.322  0.00  0.00    +0.059 A 
ATOM     17  C   UNL     1      -4.850  -7.230   7.982  0.00  0.00    +0.061 A 
ATOM     18  C   UNL     1      -3.651  -7.410   7.317  0.00  0.00    +0.044 A 
ATOM     19 CL   UNL     1      -6.221  -6.581   7.138  0.00  0.00    -0.082 Cl
ATOM     20 CL   UNL     1      -6.461  -7.330  10.156  0.00  0.00    -0.082 Cl
ENDBRANCH  10  13
ENDBRANCH   4   7
BRANCH   1  21
ATOM     21  C   UNL     1       1.893  -3.772   1.811  0.00  0.00    +0.167 C 
ATOM     22  O   UNL     1       2.438  -4.149   0.795  0.00  0.00    -0.292 OA
BRANCH  21  23
ATOM     23  C   UNL     1       1.687  -2.299   2.053  0.00  0.00    +0.129 C 
BRANCH  23  30
ATOM     24  C   UNL     1       1.345   2.177   1.600  0.00  0.00    +0.000 A 
ATOM     25  C   UNL     1       2.640   2.660   1.593  0.00  0.00    +0.002 A 
ATOM     26  C   UNL     1       3.701   1.809   1.363  0.00  0.00    +0.024 A 
ATOM     27  C   UNL     1       3.474   0.453   1.136  0.00  0.00    +0.040 A 
ATOM     28  C   UNL     1       2.168  -0.020   1.146  0.00  0.00    +0.014 A 
ATOM     29  C   UNL     1       1.111   0.832   1.375  0.00  0.00    +0.009 A 
ATOM     30  C   UNL     1       2.252  -1.504   0.873  0.00  0.00    +0.175 C 
ATOM     31  C   UNL     1       3.735  -1.767   0.718  0.00  0.00    +0.254 C 
ATOM     32  O   UNL     1       4.257  -2.837   0.489  0.00  0.00    -0.272 OA
ATOM     33  N   UNL     1       4.364  -0.591   0.884  0.00  0.00    -0.282 N 
ATOM     34  H   UNL     1       5.326  -0.481   0.833  0.00  0.00    +0.155 HD
BRANCH  30  35
ATOM     35  O   UNL     1       1.557  -1.832  -0.331  0.00  0.00    -0.374 OA
ATOM     36  H   UNL     1       1.578  -2.773  -0.554  0.00  0.00    +0.211 HD
ENDBRANCH  30  35
ENDBRANCH  23  30
ENDBRANCH  21  23
ENDBRANCH   1  21
TORSDOF 6
