REMARK  Name = ZINC28667824
REMARK  10 active torsions:
REMARK  status: ('A' for Active; 'I' for Inactive)
REMARK    1  A    between atoms: C_1  and  C_2
REMARK    2  A    between atoms: C_2  and  C_3
REMARK    3  A    between atoms: C_2  and  C_4
REMARK    4  A    between atoms: C_2  and  N_5
REMARK    5  A    between atoms: N_5  and  S_6
REMARK    6  A    between atoms: S_6  and  C_9
REMARK    7  A    between atoms: C_11  and  C_16
REMARK    8  A    between atoms: N_18  and  N_19
REMARK    9  A    between atoms: C_20  and  C_22
REMARK   10  A    between atoms: C_27  and  O_28
REMARK                            x       y       z     vdW  Elec       q    Type
REMARK                         _______ _______ _______ _____ _____    ______ ____
ROOT
ATOM      1  C   UNL     1       3.038  -0.324  -0.138  0.00  0.00    +0.124 A 
ATOM      2  C   UNL     1       4.160  -1.086  -0.393  0.00  0.00    +0.043 A 
ATOM      3  C   UNL     1       4.976  -1.495   0.663  0.00  0.00    +0.040 A 
ATOM      4  C   UNL     1       4.652  -1.131   1.971  0.00  0.00    +0.014 A 
ATOM      5  C   UNL     1       3.529  -0.369   2.213  0.00  0.00    +0.023 A 
ATOM      6  C   UNL     1       2.725   0.039   1.162  0.00  0.00    +0.067 A 
ATOM      7 CL   UNL     1       1.316   1.004   1.474  0.00  0.00    -0.082 Cl
ENDROOT
BRANCH   3   8
ATOM      8  C   UNL     1       6.179  -2.312   0.396  0.00  0.00    +0.260 C 
ATOM      9  O   UNL     1       6.458  -2.628  -0.744  0.00  0.00    -0.269 OA
ATOM     10  N   UNL     1       6.966  -2.706   1.417  0.00  0.00    -0.230 N 
ATOM     11  H   UNL     1       6.743  -2.453   2.327  0.00  0.00    +0.173 HD
BRANCH  10  12
ATOM     12  N   UNL     1       8.106  -3.480   1.165  0.00  0.00    -0.230 N 
ATOM     13  C   UNL     1       8.892  -3.874   2.186  0.00  0.00    +0.264 C 
ATOM     14  O   UNL     1       8.613  -3.558   3.326  0.00  0.00    -0.269 OA
ATOM     15  H   UNL     1       8.329  -3.733   0.255  0.00  0.00    +0.173 HD
BRANCH  13  16
ATOM     16  C   UNL     1      10.093  -4.689   1.920  0.00  0.00    +0.079 A 
ATOM     17  C   UNL     1      10.421  -5.051   0.611  0.00  0.00    +0.017 A 
ATOM     18  C   UNL     1      11.544  -5.812   0.369  0.00  0.00    +0.001 A 
ATOM     19  C   UNL     1      12.350  -6.222   1.419  0.00  0.00    +0.004 A 
ATOM     20  C   UNL     1      12.037  -5.872   2.717  0.00  0.00    +0.046 A 
ATOM     21  C   UNL     1      10.914  -5.101   2.978  0.00  0.00    +0.129 A 
BRANCH  21  22
ATOM     22  O   UNL     1      10.608  -4.752   4.253  0.00  0.00    -0.506 OA
ATOM     23  H   UNL     1      10.039  -5.387   4.709  0.00  0.00    +0.292 HD
ENDBRANCH  21  22
ENDBRANCH  13  16
ENDBRANCH  10  12
ENDBRANCH   3   8
BRANCH   1  24
ATOM     24  S   UNL     1       2.006   0.194  -1.468  0.00  0.00    +0.060 S 
ATOM     25  O   UNL     1       2.556  -0.368  -2.652  0.00  0.00    -0.153 OA
ATOM     26  O   UNL     1       1.811   1.593  -1.310  0.00  0.00    -0.153 OA
BRANCH  24  27
ATOM     27  N   UNL     1       0.528  -0.518  -1.248  0.00  0.00    -0.185 NA
ATOM     28  H   UNL     1      -0.251   0.029  -1.060  0.00  0.00    +0.149 HD
BRANCH  27  30
ATOM     29  C   UNL     1       1.212  -2.630  -0.221  0.00  0.00    +0.029 C 
ATOM     30  C   UNL     1       0.396  -1.975  -1.337  0.00  0.00    +0.032 C 
ATOM     31  C   UNL     1       0.915  -2.451  -2.695  0.00  0.00    +0.029 C 
ATOM     32  C   UNL     1      -1.076  -2.364  -1.188  0.00  0.00    +0.029 C 
ENDBRANCH  27  30
ENDBRANCH  24  27
ENDBRANCH   1  24
TORSDOF 7
