REMARK  Name = ZINC37638042
REMARK  2 active torsions:
REMARK  status: ('A' for Active; 'I' for Inactive)
REMARK    1  A    between atoms: C_1  and  S_10
REMARK    2  A    between atoms: S_10  and  C_11
REMARK                            x       y       z     vdW  Elec       q    Type
REMARK                         _______ _______ _______ _____ _____    ______ ____
ROOT
ATOM      1  C   UNL     1      -0.441   2.047   0.082  0.00  0.00    +0.144 A 
ATOM      2  C   UNL     1      -0.834   0.725   0.269  0.00  0.00    +0.272 A 
ATOM      3  N   UNL     1      -2.159   0.418   0.293  0.00  0.00    -0.274 N 
ATOM      4  C   UNL     1      -3.086   1.381   0.137  0.00  0.00    +0.329 A 
ATOM      5  N   UNL     1      -2.732   2.666  -0.045  0.00  0.00    -0.274 N 
ATOM      6  C   UNL     1      -1.420   3.024  -0.071  0.00  0.00    +0.272 A 
ATOM      7  O   UNL     1      -1.074   4.303  -0.251  0.00  0.00    -0.266 OA
ATOM      8  O   UNL     1      -4.265   1.083   0.161  0.00  0.00    -0.247 OA
ATOM      9  O   UNL     1       0.083  -0.236   0.424  0.00  0.00    -0.266 OA
ATOM     10  H   UNL     1      -3.418   3.342  -0.155  0.00  0.00    +0.173 HD
ATOM     11  H   UNL     1      -2.438  -0.502   0.422  0.00  0.00    +0.173 HD
ENDROOT
BRANCH   1  12
ATOM     12  S   UNL     1       1.267   2.477   0.048  0.00  0.00    -0.046 S 
BRANCH  12  13
ATOM     13  C   UNL     1       1.533   3.034  -1.603  0.00  0.00    +0.128 C 
ATOM     14  N   UNL     1       2.395   4.022  -1.843  0.00  0.00    -0.382 N 
ATOM     15  N   UNL     1       0.872   2.466  -2.613  0.00  0.00    -0.339 N 
ATOM     16  H   UNL     1       2.876   4.435  -1.108  0.00  0.00    +0.158 HD
ATOM     17  H   UNL     1       0.308   1.694  -2.450  0.00  0.00    +0.144 HD
ATOM     18  H   UNL     1       0.955   2.826  -3.510  0.00  0.00    +0.144 HD
ATOM     19  H   UNL     1       2.542   4.329  -2.751  0.00  0.00    +0.158 HD
ENDBRANCH  12  13
ENDBRANCH   1  12
TORSDOF 2
