REMARK  Name = ZINC29492950
REMARK  10 active torsions:
REMARK  status: ('A' for Active; 'I' for Inactive)
REMARK    1  A    between atoms: C_1  and  C_2
REMARK    2  A    between atoms: C_5  and  C_8
REMARK    3  A    between atoms: C_11  and  S_14
REMARK    4  A    between atoms: N_12  and  N_13
REMARK    5  A    between atoms: S_14  and  C_15
REMARK    6  A    between atoms: C_15  and  C_17
REMARK    7  A    between atoms: C_15  and  C_18
REMARK    8  A    between atoms: N_23  and  C_24
REMARK    9  A    between atoms: C_27  and  C_31
REMARK   10  A    between atoms: C_29  and  C_30
REMARK                            x       y       z     vdW  Elec       q    Type
REMARK                         _______ _______ _______ _____ _____    ______ ____
ROOT
ATOM      1  C   UNL     1      -6.028   2.108  -0.377  0.00  0.00    +0.137 C 
ATOM      2  C   UNL     1      -6.465   2.568   1.016  0.00  0.00    +0.029 C 
ENDROOT
BRANCH   1   3
ATOM      3  C   UNL     1      -4.721   1.365  -0.273  0.00  0.00    +0.234 C 
ATOM      4  O   UNL     1      -4.710   0.153  -0.280  0.00  0.00    -0.274 OA
ATOM      5  N   UNL     1      -3.563   2.049  -0.173  0.00  0.00    -0.239 N 
ATOM      6  C   UNL     1      -2.394   1.385  -0.081  0.00  0.00    +0.310 C 
ATOM      7  O   UNL     1      -2.383   0.170  -0.088  0.00  0.00    -0.252 OA
ATOM      8  N   UNL     1      -1.237   2.069   0.019  0.00  0.00    -0.269 N 
ATOM      9  H   UNL     1      -3.573   3.149  -0.167  0.00  0.00    +0.159 HD
ATOM     10  H   UNL     1      -1.252   3.166   0.100  0.00  0.00    +0.156 HD
BRANCH   8  11
ATOM     11  C   UNL     1      -0.017   1.384   0.020  0.00  0.00    +0.038 A 
ATOM     12  C   UNL     1       0.078   0.134   0.619  0.00  0.00    +0.024 A 
ATOM     13  C   UNL     1       1.282  -0.542   0.613  0.00  0.00    +0.005 A 
ATOM     14  C   UNL     1       2.392   0.023   0.013  0.00  0.00    -0.050 A 
ATOM     15  C   UNL     1       2.300   1.267  -0.584  0.00  0.00    +0.008 A 
ATOM     16  C   UNL     1       1.099   1.949  -0.581  0.00  0.00    -0.029 A 
ATOM     17  C   UNL     1       1.000   3.305  -1.232  0.00  0.00    +0.045 C 
ATOM     18  C   UNL     1       3.704  -0.718   0.008  0.00  0.00    +0.044 C 
ENDBRANCH   8  11
ENDBRANCH   1   3
BRANCH   1  19
ATOM     19  S   UNL     1      -7.290   1.013  -1.073  0.00  0.00    -0.072 S 
BRANCH  19  23
ATOM     20  C   UNL     1     -10.578   3.050  -1.627  0.00  0.00    +0.182 A 
ATOM     21  N   UNL     1      -9.762   3.949  -1.127  0.00  0.00    -0.127 NA
ATOM     22  N   UNL     1      -8.617   3.418  -0.888  0.00  0.00    -0.121 NA
ATOM     23  C   UNL     1      -8.631   2.147  -1.221  0.00  0.00    +0.209 A 
ATOM     24  N   UNL     1      -9.876   1.869  -1.707  0.00  0.00    -0.224 N 
BRANCH  20  29
ATOM     25  C   UNL     1     -16.047   3.893  -3.205  0.00  0.00    +0.044 C 
ATOM     26  C   UNL     1     -14.615   3.672  -2.791  0.00  0.00    -0.050 A 
ATOM     27  C   UNL     1     -13.786   4.758  -2.574  0.00  0.00    +0.004 A 
ATOM     28  C   UNL     1     -12.473   4.563  -2.196  0.00  0.00    +0.012 A 
ATOM     29  C   UNL     1     -11.983   3.267  -2.031  0.00  0.00    +0.021 A 
ATOM     30  C   UNL     1     -12.824   2.175  -2.257  0.00  0.00    +0.012 A 
ATOM     31  C   UNL     1     -14.135   2.385  -2.630  0.00  0.00    +0.004 A 
ENDBRANCH  20  29
BRANCH  24  32
ATOM     32  N   UNL     1     -10.331   0.669  -2.175  0.00  0.00    -0.295 N 
ATOM     33  H   UNL     1      -9.664  -0.205  -2.186  0.00  0.00    +0.163 HD
ATOM     34  H   UNL     1     -11.365   0.577  -2.540  0.00  0.00    +0.163 HD
ENDBRANCH  24  32
ENDBRANCH  19  23
ENDBRANCH   1  19
TORSDOF 6
