REMARK  Name = ZINC04008803
REMARK  3 active torsions:
REMARK  status: ('A' for Active; 'I' for Inactive)
REMARK    1  A    between atoms: C_1  and  C_2
REMARK    2  A    between atoms: C_2  and  C_4
REMARK    3  A    between atoms: C_2  and  N_6
REMARK                            x       y       z     vdW  Elec       q    Type
REMARK                         _______ _______ _______ _____ _____    ______ ____
ROOT
ATOM      1  N   UNL     1       2.634   3.529  -0.004  0.00  0.00    -0.250 N 
ATOM      2  C   UNL     1       3.258   4.359  -1.044  0.00  0.00    +0.205 C 
ATOM      3  C   UNL     1       4.723   4.511  -0.562  0.00  0.00    +0.202 C 
ATOM      4  N   UNL     1       4.846   5.947  -0.273  0.00  0.00    -0.278 N 
ATOM      5  C   UNL     1       3.680   6.553  -0.529  0.00  0.00    +0.303 C 
ATOM      6  O   UNL     1       3.506   7.746  -0.376  0.00  0.00    -0.253 OA
ATOM      7  N   UNL     1       2.724   5.726  -0.971  0.00  0.00    -0.278 N 
ATOM      8  N   UNL     1       4.756   3.749   0.695  0.00  0.00    -0.278 N 
ATOM      9  C   UNL     1       3.543   3.236   0.934  0.00  0.00    +0.306 C 
ATOM     10  O   UNL     1       3.290   2.563   1.915  0.00  0.00    -0.253 OA
ATOM     11  H   UNL     1       5.647   6.386   0.054  0.00  0.00    +0.152 HD
ATOM     12  H   UNL     1       1.821   5.989  -1.206  0.00  0.00    +0.152 HD
ATOM     13  H   UNL     1       5.535   3.638   1.263  0.00  0.00    +0.152 HD
ENDROOT
BRANCH   1  15
ATOM     14  C   UNL     1       0.546   3.625   1.266  0.00  0.00    +0.040 C 
ATOM     15  C   UNL     1       1.235   3.094   0.007  0.00  0.00    +0.189 C 
BRANCH  15  16
ATOM     16  C   UNL     1       1.177   1.588  -0.001  0.00  0.00    +0.376 C 
ATOM     17  O   UNL     1       2.199   0.944  -0.014  0.00  0.00    -0.244 OA
ATOM     18  O   UNL     1      -0.011   0.963   0.007  0.00  0.00    -0.244 OA
ENDBRANCH  15  16
ENDBRANCH   1  15
TORSDOF 2
