REMARK  Name = ZINC06886072
REMARK  6 active torsions:
REMARK  status: ('A' for Active; 'I' for Inactive)
REMARK    1  A    between atoms: C_10  and  C_11
REMARK    2  A    between atoms: C_11  and  C_12
REMARK    3  A    between atoms: N_14  and  N_15
REMARK    4  A    between atoms: N_15  and  C_16
REMARK    5  A    between atoms: C_16  and  N_18
REMARK    6  A    between atoms: C_19  and  C_21
REMARK                            x       y       z     vdW  Elec       q    Type
REMARK                         _______ _______ _______ _____ _____    ______ ____
ROOT
ATOM      1  C   UNL     1      -0.014   1.209   0.009  0.00  0.00    +0.233 C 
ATOM      2  O   UNL     1       0.002  -0.004   0.002  0.00  0.00    -0.274 OA
ATOM      3  N   UNL     1       1.143   1.898   0.001  0.00  0.00    -0.235 N 
ATOM      4  H   UNL     1       1.130   2.868   0.007  0.00  0.00    +0.173 HD
ENDROOT
BRANCH   3   5
ATOM      5  N   UNL     1       2.366   1.214  -0.014  0.00  0.00    -0.246 N 
ATOM      6  H   UNL     1       2.379   0.244  -0.019  0.00  0.00    +0.172 HD
BRANCH   5   7
ATOM      7  C   UNL     1       3.524   1.904  -0.021  0.00  0.00    +0.153 C 
ATOM      8  S   UNL     1       5.018   1.068  -0.040  0.00  0.00    -0.017 S 
BRANCH   7   9
ATOM      9  N   UNL     1       3.506   3.252  -0.014  0.00  0.00    -0.266 N 
ATOM     10  C   UNL     1       4.664   3.941  -0.021  0.00  0.00    +0.222 C 
ATOM     11  O   UNL     1       5.722   3.350  -0.035  0.00  0.00    -0.275 OA
ATOM     12  H   UNL     1       2.659   3.725  -0.003  0.00  0.00    +0.157 HD
BRANCH  10  13
ATOM     13  C   UNL     1       4.643   5.448  -0.013  0.00  0.00    +0.075 C 
ATOM     14  C   UNL     1       3.903   5.955  -1.252  0.00  0.00    +0.013 C 
ATOM     15  C   UNL     1       3.882   7.485  -1.244  0.00  0.00    +0.001 C 
ATOM     16  C   UNL     1       5.318   8.014  -1.255  0.00  0.00    +0.000 C 
ATOM     17  C   UNL     1       6.058   7.508  -0.015  0.00  0.00    +0.001 C 
ATOM     18  C   UNL     1       6.079   5.978  -0.024  0.00  0.00    +0.013 C 
ENDBRANCH  10  13
ENDBRANCH   7   9
ENDBRANCH   5   7
ENDBRANCH   3   5
BRANCH   1  19
ATOM     19  C   UNL     1      -1.330   1.944   0.019  0.00  0.00    +0.133 C 
BRANCH  19  29
ATOM     20  C   UNL     1      -3.849  -0.722   3.589  0.00  0.00    +0.001 A 
ATOM     21  C   UNL     1      -2.801   0.196   3.608  0.00  0.00    +0.001 A 
ATOM     22  C   UNL     1      -2.334   0.751   2.457  0.00  0.00    +0.009 A 
ATOM     23  C   UNL     1      -2.913   0.393   1.228  0.00  0.00    -0.014 A 
ATOM     24  C   UNL     1      -3.982  -0.537   1.208  0.00  0.00    -0.018 A 
ATOM     25  C   UNL     1      -4.437  -1.090   2.418  0.00  0.00    +0.008 A 
ATOM     26  C   UNL     1      -4.563  -0.893  -0.021  0.00  0.00    +0.008 A 
ATOM     27  C   UNL     1      -4.097  -0.337  -1.173  0.00  0.00    +0.001 A 
ATOM     28  C   UNL     1      -3.049   0.581  -1.153  0.00  0.00    +0.005 A 
ATOM     29  C   UNL     1      -2.462   0.950   0.019  0.00  0.00    -0.031 A 
ENDBRANCH  19  29
ENDBRANCH   1  19
TORSDOF 6
