REMARK  Name = ZINC56712470
REMARK  8 active torsions:
REMARK  status: ('A' for Active; 'I' for Inactive)
REMARK    1  A    between atoms: C_1  and  C_2
REMARK    2  A    between atoms: C_2  and  C_4
REMARK    3  A    between atoms: C_2  and  N_12
REMARK    4  A    between atoms: C_4  and  C_5
REMARK    5  A    between atoms: C_8  and  O_11
REMARK    6  A    between atoms: N_15  and  C_16
REMARK    7  A    between atoms: C_19  and  C_22
REMARK    8  A    between atoms: N_24  and  C_25
REMARK                            x       y       z     vdW  Elec       q    Type
REMARK                         _______ _______ _______ _____ _____    ______ ____
ROOT
ATOM      1  N   UNL     1      -1.693  -0.024   0.145  0.00  0.00    -0.296 N 
ATOM      2  C   UNL     1      -2.377  -0.150  -1.009  0.00  0.00    +0.304 C 
ATOM      3  O   UNL     1      -2.148   0.602  -1.937  0.00  0.00    -0.253 OA
ATOM      4  N   UNL     1      -3.315  -1.109  -1.135  0.00  0.00    -0.269 N 
ATOM      5  H   UNL     1      -1.876  -0.623   0.885  0.00  0.00    +0.151 HD
ATOM      6  H   UNL     1      -3.452  -1.751  -0.420  0.00  0.00    +0.156 HD
ENDROOT
BRANCH   4   7
ATOM      7  C   UNL     1      -4.089  -1.180  -2.293  0.00  0.00    +0.035 A 
ATOM      8  C   UNL     1      -3.527  -0.860  -3.524  0.00  0.00    +0.024 A 
ATOM      9  C   UNL     1      -4.289  -0.928  -4.669  0.00  0.00    +0.015 A 
ATOM     10  C   UNL     1      -5.628  -1.320  -4.593  0.00  0.00    +0.037 A 
ATOM     11  C   UNL     1      -6.189  -1.641  -3.354  0.00  0.00    +0.015 A 
ATOM     12  C   UNL     1      -5.421  -1.575  -2.214  0.00  0.00    +0.024 A 
BRANCH  10  13
ATOM     13  C   UNL     1      -6.447  -1.394  -5.818  0.00  0.00    +0.244 C 
ATOM     14  O   UNL     1      -5.958  -1.114  -6.895  0.00  0.00    -0.270 OA
ATOM     15  N   UNL     1      -7.739  -1.772  -5.743  0.00  0.00    -0.308 N 
ATOM     16  H   UNL     1      -8.130  -1.996  -4.884  0.00  0.00    +0.149 HD
BRANCH  15  17
ATOM     17  C   UNL     1      -8.553  -1.846  -6.959  0.00  0.00    +0.073 C 
ATOM     18  C   UNL     1      -9.197  -0.474  -7.247  0.00  0.00    +0.022 C 
ATOM     19  C   UNL     1     -10.602  -0.823  -7.799  0.00  0.00    +0.002 C 
ATOM     20  C   UNL     1     -11.015  -2.041  -6.935  0.00  0.00    +0.002 C 
ATOM     21  C   UNL     1      -9.708  -2.842  -6.761  0.00  0.00    +0.022 C 
ENDBRANCH  15  17
ENDBRANCH  10  13
ENDBRANCH   4   7
BRANCH   1  23
ATOM     22  C   UNL     1      -1.339   2.331   0.704  0.00  0.00    +0.028 C 
ATOM     23  C   UNL     1      -0.673   1.020   0.282  0.00  0.00    +0.076 C 
BRANCH  23  24
ATOM     24  C   UNL     1       0.345   0.600   1.344  0.00  0.00    +0.057 C 
BRANCH  24  25
ATOM     25  C   UNL     1       1.088  -0.623   0.872  0.00  0.00    -0.045 A 
ATOM     26  C   UNL     1       0.600  -1.883   1.167  0.00  0.00    +0.007 A 
ATOM     27  C   UNL     1       1.278  -3.006   0.736  0.00  0.00    +0.045 A 
ATOM     28  C   UNL     1       2.451  -2.870   0.007  0.00  0.00    +0.117 A 
ATOM     29  C   UNL     1       2.938  -1.605  -0.288  0.00  0.00    +0.045 A 
ATOM     30  C   UNL     1       2.253  -0.485   0.141  0.00  0.00    +0.007 A 
BRANCH  28  31
ATOM     31  O   UNL     1       3.120  -3.974  -0.418  0.00  0.00    -0.507 OA
ATOM     32  H   UNL     1       2.847  -4.288  -1.290  0.00  0.00    +0.292 HD
ENDBRANCH  28  31
ENDBRANCH  24  25
ENDBRANCH  23  24
ENDBRANCH   1  23
TORSDOF 7
