REMARK  Name = ZINC04222437
REMARK  9 active torsions:
REMARK  status: ('A' for Active; 'I' for Inactive)
REMARK    1  A    between atoms: C_1  and  C_2
REMARK    2  A    between atoms: C_5  and  O_39
REMARK    3  A    between atoms: C_7  and  C_36
REMARK    4  A    between atoms: C_7  and  C_37
REMARK    5  A    between atoms: C_17  and  C_19
REMARK    6  A    between atoms: C_24  and  C_26
REMARK    7  A    between atoms: C_26  and  C_27
REMARK    8  A    between atoms: N_29  and  C_30
REMARK    9  A    between atoms: C_37  and  O_38
REMARK                            x       y       z     vdW  Elec       q    Type
REMARK                         _______ _______ _______ _____ _____    ______ ____
ROOT
ATOM      1  C   UNL     1      -5.370   2.738   1.729  0.00  0.00    +0.012 C 
ATOM      2  C   UNL     1      -5.459   2.470   0.225  0.00  0.00    -0.019 C 
ATOM      3  C   UNL     1      -6.816   1.840  -0.105  0.00  0.00    +0.010 C 
ATOM      4  C   UNL     1      -7.949   2.804   0.240  0.00  0.00    +0.032 C 
ATOM      5  C   UNL     1      -7.783   4.078  -0.593  0.00  0.00    +0.123 C 
ATOM      6  C   UNL     1      -6.450   4.739  -0.242  0.00  0.00    +0.021 C 
ATOM      7  C   UNL     1      -5.289   3.785  -0.540  0.00  0.00    +0.011 C 
ATOM      8  C   UNL     1      -3.997   4.478  -0.065  0.00  0.00    +0.049 C 
ATOM      9  C   UNL     1      -2.901   3.473  -0.010  0.00  0.00    +0.015 A 
ATOM     10  C   UNL     1      -3.012   2.120  -0.048  0.00  0.00    +0.058 A 
ATOM     11  N   UNL     1      -1.871   1.439   0.022  0.00  0.00    -0.229 NA
ATOM     12  C   UNL     1      -0.701   2.037   0.118  0.00  0.00    +0.165 A 
ATOM     13  S   UNL     1      -1.150   3.716   0.128  0.00  0.00    -0.057 S 
ATOM     14  N   UNL     1       0.564   1.471   0.198  0.00  0.00    -0.258 N 
ATOM     15  C   UNL     1       1.652   2.262   0.286  0.00  0.00    +0.285 C 
ATOM     16  O   UNL     1       1.524   3.472   0.301  0.00  0.00    -0.266 OA
ATOM     17  C   UNL     1      -4.382   1.470  -0.168  0.00  0.00    +0.054 C 
ATOM     18  C   UNL     1      -6.274   6.021  -1.059  0.00  0.00    +0.016 C 
ATOM     19  H   UNL     1       0.666   0.506   0.185  0.00  0.00    +0.157 HD
ENDROOT
BRANCH  15  20
ATOM     20  C   UNL     1       2.989   1.665   0.364  0.00  0.00    +0.189 A 
ATOM     21  C   UNL     1       4.168   2.347   0.451  0.00  0.00    +0.054 A 
ATOM     22  C   UNL     1       5.188   1.384   0.506  0.00  0.00    +0.042 A 
ATOM     23  C   UNL     1       4.594   0.172   0.442  0.00  0.00    +0.196 A 
ATOM     24  O   UNL     1       3.269   0.345   0.356  0.00  0.00    -0.458 OA
ENDBRANCH  15  20
BRANCH   5  25
ATOM     25  O   UNL     1      -8.856   4.978  -0.310  0.00  0.00    -0.391 OA
ATOM     26  H   UNL     1      -9.732   4.621  -0.509  0.00  0.00    +0.210 HD
ENDBRANCH   5  25
BRANCH  17  27
ATOM     27  C   UNL     1      -4.451   0.251   0.754  0.00  0.00    +0.106 C 
BRANCH  27  28
ATOM     28  C   UNL     1      -3.528  -0.822   0.237  0.00  0.00    +0.214 C 
ATOM     29  O   UNL     1      -2.879  -0.631  -0.769  0.00  0.00    -0.276 OA
ATOM     30  N   UNL     1      -3.423  -1.994   0.894  0.00  0.00    -0.312 N 
ATOM     31  H   UNL     1      -3.942  -2.147   1.699  0.00  0.00    +0.149 HD
BRANCH  30  32
ATOM     32  C   UNL     1      -2.526  -3.038   0.392  0.00  0.00    +0.073 C 
ATOM     33  C   UNL     1      -3.251  -3.866  -0.671  0.00  0.00    +0.022 C 
ATOM     34  C   UNL     1      -2.314  -4.955  -1.196  0.00  0.00    +0.002 C 
ATOM     35  C   UNL     1      -1.893  -5.865  -0.041  0.00  0.00    +0.000 C 
ATOM     36  C   UNL     1      -1.168  -5.038   1.022  0.00  0.00    +0.002 C 
ATOM     37  C   UNL     1      -2.105  -3.948   1.547  0.00  0.00    +0.022 C 
ENDBRANCH  30  32
ENDBRANCH  27  28
ENDBRANCH  17  27
BRANCH   6  38
ATOM     38  C   UNL     1      -6.449   5.089   1.247  0.00  0.00    +0.165 C 
BRANCH  38  39
ATOM     39  O   UNL     1      -7.423   6.103   1.499  0.00  0.00    -0.394 OA
ATOM     40  H   UNL     1      -7.478   6.375   2.426  0.00  0.00    +0.209 HD
ENDBRANCH  38  39
ENDBRANCH   6  38
TORSDOF 7
