REMARK  Name = ZINC40756221
REMARK  7 active torsions:
REMARK  status: ('A' for Active; 'I' for Inactive)
REMARK    1  A    between atoms: C_9  and  S_11
REMARK    2  A    between atoms: S_11  and  C_12
REMARK    3  A    between atoms: C_13  and  N_27
REMARK    4  A    between atoms: C_14  and  N_18
REMARK    5  A    between atoms: N_18  and  C_19
REMARK    6  A    between atoms: C_19  and  C_20
REMARK    7  A    between atoms: C_20  and  C_21
REMARK                            x       y       z     vdW  Elec       q    Type
REMARK                         _______ _______ _______ _____ _____    ______ ____
ROOT
ATOM      1  C   UNL     1      -0.498  -2.890   0.139  0.00  0.00    +0.127 A 
ATOM      2  C   UNL     1      -0.878  -4.226   0.280  0.00  0.00    +0.097 A 
ATOM      3  C   UNL     1      -2.239  -4.514   0.405  0.00  0.00    +0.144 A 
ATOM      4  N   UNL     1      -3.115  -3.512   0.385  0.00  0.00    -0.219 NA
ATOM      5  C   UNL     1      -2.713  -2.264   0.250  0.00  0.00    +0.224 A 
ATOM      6  N   UNL     1      -1.439  -1.948   0.135  0.00  0.00    -0.227 NA
ENDROOT
BRANCH   2   7
ATOM      7  N   UNL     1       0.080  -5.252   0.295  0.00  0.00    -0.353 N 
ATOM      8  H   UNL     1       1.022  -5.037   0.207  0.00  0.00    +0.142 HD
ATOM      9  H   UNL     1      -0.199  -6.175   0.394  0.00  0.00    +0.142 HD
ENDBRANCH   2   7
BRANCH   3  10
ATOM     10  N   UNL     1      -2.672  -5.827   0.547  0.00  0.00    -0.327 N 
ATOM     11  H   UNL     1      -2.027  -6.552   0.561  0.00  0.00    +0.148 HD
BRANCH  10  12
ATOM     12  C   UNL     1      -4.102  -6.117   0.678  0.00  0.00    +0.107 C 
BRANCH  12  13
ATOM     13  C   UNL     1      -4.306  -7.626   0.820  0.00  0.00    +0.049 C 
BRANCH  13  14
ATOM     14  C   UNL     1      -5.777  -7.924   0.954  0.00  0.00    -0.072 C 
ATOM     15  C   UNL     1      -6.432  -8.241  -0.117  0.00  0.00    -0.028 C 
ATOM     16  C   UNL     1      -7.900  -8.553  -0.143  0.00  0.00    +0.027 C 
ATOM     17  C   UNL     1      -8.399  -8.859   1.271  0.00  0.00    +0.004 C 
ATOM     18  C   UNL     1      -7.915  -7.745   2.208  0.00  0.00    +0.005 C 
ATOM     19  C   UNL     1      -6.391  -7.840   2.321  0.00  0.00    +0.030 C 
ENDBRANCH  13  14
ENDBRANCH  12  13
ENDBRANCH  10  12
ENDBRANCH   3  10
BRANCH   1  20
ATOM     20  S   UNL     1       1.202  -2.456  -0.023  0.00  0.00    -0.066 S 
BRANCH  20  29
ATOM     21  C   UNL     1       1.478   1.536   0.466  0.00  0.00    +0.002 A 
ATOM     22  C   UNL     1       1.138   2.045  -0.752  0.00  0.00    +0.010 A 
ATOM     23  C   UNL     1       0.801   1.179  -1.804  0.00  0.00    +0.001 A 
ATOM     24  C   UNL     1       0.446   1.674  -3.074  0.00  0.00    +0.011 A 
ATOM     25  C   UNL     1       0.130   0.773  -4.051  0.00  0.00    +0.020 A 
ATOM     26  C   UNL     1       0.166  -0.592  -3.776  0.00  0.00    +0.111 A 
ATOM     27  N   UNL     1       0.497  -1.048  -2.592  0.00  0.00    -0.254 NA
ATOM     28  C   UNL     1       0.817  -0.222  -1.594  0.00  0.00    +0.085 A 
ATOM     29  C   UNL     1       1.173  -0.720  -0.321  0.00  0.00    +0.040 A 
ATOM     30  C   UNL     1       1.498   0.163   0.687  0.00  0.00    +0.017 A 
ENDBRANCH  20  29
ENDBRANCH   1  20
TORSDOF 7
