REMARK  Name = ZINC23379404
REMARK  9 active torsions:
REMARK  status: ('A' for Active; 'I' for Inactive)
REMARK    1  A    between atoms: C_1  and  O_2
REMARK    2  A    between atoms: O_2  and  C_3
REMARK    3  A    between atoms: C_5  and  O_29
REMARK    4  A    between atoms: C_8  and  C_9
REMARK    5  A    between atoms: C_18  and  C_26
REMARK    6  A    between atoms: C_19  and  N_25
REMARK    7  A    between atoms: C_20  and  C_21
REMARK    8  A    between atoms: C_20  and  C_23
REMARK    9  A    between atoms: O_29  and  C_30
REMARK                            x       y       z     vdW  Elec       q    Type
REMARK                         _______ _______ _______ _____ _____    ______ ____
ROOT
ATOM      1  C   UNL     1      -0.736   1.964  -1.245  0.00  0.00    +0.070 C 
ATOM      2  C   UNL     1      -2.121   1.566  -1.759  0.00  0.00    +0.030 C 
ATOM      3  C   UNL     1      -2.227   1.708  -3.260  0.00  0.00    +0.009 C 
ATOM      4  C   UNL     1      -2.915   3.011  -3.662  0.00  0.00    +0.005 C 
ATOM      5  C   UNL     1      -4.318   3.029  -3.041  0.00  0.00    +0.027 C 
ATOM      6  C   UNL     1      -4.159   2.979  -1.543  0.00  0.00    -0.022 C 
ATOM      7  C   UNL     1      -3.150   2.337  -0.987  0.00  0.00    -0.029 C 
ATOM      8  C   UNL     1      -2.972   2.407   0.487  0.00  0.00    +0.074 C 
ATOM      9  C   UNL     1      -1.782   2.049   1.029  0.00  0.00    +0.054 C 
ATOM     10  C   UNL     1      -0.618   1.557   0.224  0.00  0.00    +0.188 C 
ENDROOT
BRANCH   1  16
ATOM     11  C   UNL     1       0.149   3.981  -2.441  0.00  0.00    +0.127 A 
ATOM     12  C   UNL     1       0.311   5.354  -2.557  0.00  0.00    +0.092 A 
ATOM     13  C   UNL     1      -0.237   6.197  -1.603  0.00  0.00    +0.137 A 
ATOM     14  C   UNL     1      -0.947   5.666  -0.534  0.00  0.00    +0.060 A 
ATOM     15  C   UNL     1      -1.111   4.298  -0.424  0.00  0.00    +0.026 A 
ATOM     16  C   UNL     1      -0.560   3.455  -1.371  0.00  0.00    +0.002 A 
ATOM     17 BR   UNL     1      -1.695   6.815   0.768  0.00  0.00    -0.047 Br
BRANCH  11  19
ATOM     18  C   UNL     1       1.403   3.763  -4.449  0.00  0.00    +0.277 C 
ATOM     19  O   UNL     1       0.685   3.152  -3.375  0.00  0.00    -0.495 OA
ENDBRANCH  11  19
BRANCH  13  20
ATOM     20  O   UNL     1      -0.081   7.542  -1.715  0.00  0.00    -0.494 OA
ATOM     21  C   UNL     1       0.660   8.018  -2.840  0.00  0.00    +0.277 C 
ENDBRANCH  13  20
ENDBRANCH   1  16
BRANCH   9  22
ATOM     22  N   UNL     1      -1.637   2.144   2.385  0.00  0.00    -0.358 N 
ATOM     23  H   UNL     1      -0.684   1.862   2.857  0.00  0.00    +0.142 HD
ATOM     24  H   UNL     1      -2.473   2.502   3.004  0.00  0.00    +0.142 HD
ENDBRANCH   9  22
BRANCH  10  25
ATOM     25  C   UNL     1      -0.559   0.088   0.312  0.00  0.00    +0.091 C 
ATOM     26  N   UNL     1      -0.515  -1.045   0.380  0.00  0.00    -0.194 NA
ENDBRANCH  10  25
BRANCH  10  27
ATOM     27  C   UNL     1       0.624   2.120   0.780  0.00  0.00    +0.091 C 
ATOM     28  N   UNL     1       1.581   2.555   1.209  0.00  0.00    -0.194 NA
ENDBRANCH  10  27
BRANCH   8  29
ATOM     29  C   UNL     1      -4.046   2.846   1.326  0.00  0.00    +0.101 C 
ATOM     30  N   UNL     1      -4.899   3.195   1.991  0.00  0.00    -0.191 NA
ENDBRANCH   8  29
TORSDOF 7
