REMARK  Name = ZINC00898830
REMARK  6 active torsions:
REMARK  status: ('A' for Active; 'I' for Inactive)
REMARK    1  A    between atoms: C_1  and  C_2
REMARK    2  A    between atoms: C_4  and  O_19
REMARK    3  A    between atoms: C_6  and  C_17
REMARK    4  A    between atoms: C_6  and  C_18
REMARK    5  A    between atoms: C_11  and  C_15
REMARK    6  A    between atoms: C_11  and  O_16
REMARK                            x       y       z     vdW  Elec       q    Type
REMARK                         _______ _______ _______ _____ _____    ______ ____
ROOT
ATOM      1  C   UNL     1       0.275   1.886  -0.331  0.00  0.00    +0.040 C 
ATOM      2  C   UNL     1       0.271   0.398  -0.094  0.00  0.00    -0.057 C 
ATOM      3  C   UNL     1       0.035  -0.446  -1.088  0.00  0.00    -0.008 C 
ATOM      4  C   UNL     1      -0.199  -0.178  -2.547  0.00  0.00    +0.155 C 
ATOM      5  C   UNL     1      -0.346  -1.577  -3.175  0.00  0.00    +0.014 C 
ATOM      6  C   UNL     1      -0.204  -2.562  -2.039  0.00  0.00    -0.006 C 
ATOM      7  C   UNL     1      -0.004  -1.921  -0.891  0.00  0.00    +0.023 C 
ATOM      8  C   UNL     1       0.168  -2.486   0.473  0.00  0.00    +0.195 C 
ATOM      9  O   UNL     1       0.519  -3.630   0.669  0.00  0.00    -0.289 OA
ATOM     10  C   UNL     1      -0.135  -1.513   1.603  0.00  0.00    +0.135 C 
ATOM     11  C   UNL     1       0.528  -0.168   1.285  0.00  0.00    +0.028 C 
ATOM     12  C   UNL     1       0.673   0.832   2.434  0.00  0.00    +0.015 C 
ATOM     13  C   UNL     1       1.904   0.098   1.900  0.00  0.00    +0.015 C 
ATOM     14  C   UNL     1      -1.648  -1.323   1.726  0.00  0.00    +0.051 C 
ATOM     15  C   UNL     1       0.754  -1.808  -4.213  0.00  0.00    +0.018 C 
ATOM     16  C   UNL     1      -1.724  -1.720  -3.826  0.00  0.00    +0.018 C 
ENDROOT
BRANCH  10  17
ATOM     17  O   UNL     1       0.388  -2.027   2.830  0.00  0.00    -0.380 OA
ATOM     18  H   UNL     1       0.011  -2.878   3.092  0.00  0.00    +0.211 HD
ENDBRANCH  10  17
BRANCH   4  19
ATOM     19  O   UNL     1      -1.397   0.579  -2.728  0.00  0.00    -0.386 OA
ATOM     20  H   UNL     1      -1.590   0.796  -3.651  0.00  0.00    +0.210 HD
ENDBRANCH   4  19
TORSDOF 2
