REMARK  Name = ZINC15276102
REMARK  12 active torsions:
REMARK  status: ('A' for Active; 'I' for Inactive)
REMARK    1  A    between atoms: C_1  and  C_2
REMARK    2  A    between atoms: C_2  and  C_3
REMARK    3  A    between atoms: C_2  and  C_4
REMARK    4  A    between atoms: C_4  and  C_5
REMARK    5  A    between atoms: C_5  and  C_35
REMARK    6  A    between atoms: C_10  and  C_13
REMARK    7  A    between atoms: C_17  and  O_20
REMARK    8  A    between atoms: C_18  and  O_19
REMARK    9  A    between atoms: O_20  and  C_21
REMARK   10  A    between atoms: N_24  and  C_27
REMARK   11  A    between atoms: C_32  and  O_33
REMARK   12  A    between atoms: O_33  and  C_34
REMARK                            x       y       z     vdW  Elec       q    Type
REMARK                         _______ _______ _______ _____ _____    ______ ____
ROOT
ATOM      1  C   UNL     1      -2.006  -1.792   0.497  0.00  0.00    +0.048 C 
ATOM      2  C   UNL     1      -3.502  -2.026   0.318  0.00  0.00    +0.086 C 
ATOM      3  C   UNL     1      -3.538  -1.874  -1.250  0.00  0.00    +0.077 C 
ATOM      4  C   UNL     1      -2.431  -2.727  -1.702  0.00  0.00    -0.023 C 
ATOM      5  N   UNL     1      -1.400  -2.605  -0.607  0.00  0.00    +0.396 N 
ATOM      6  C   UNL     1      -4.943  -1.661  -1.499  0.00  0.00    +0.229 C 
ATOM      7  O   UNL     1      -5.585  -2.022  -2.462  0.00  0.00    -0.275 OA
ATOM      8  N   UNL     1      -5.394  -0.961  -0.408  0.00  0.00    -0.206 N 
ATOM      9  C   UNL     1      -4.496  -0.955   0.640  0.00  0.00    +0.229 C 
ATOM     10  O   UNL     1      -4.501  -0.235   1.615  0.00  0.00    -0.275 OA
ATOM     11  H   UNL     1      -0.572  -2.146  -0.956  0.00  0.00    -0.083 HD
ATOM     12  H   UNL     1      -1.164  -3.525  -0.265  0.00  0.00    -0.083 HD
ENDROOT
BRANCH   4  13
ATOM     13  C   UNL     1      -2.897  -4.152  -1.862  0.00  0.00    -0.015 A 
ATOM     14  C   UNL     1      -2.774  -5.042  -0.811  0.00  0.00    +0.006 A 
ATOM     15  C   UNL     1      -3.200  -6.349  -0.955  0.00  0.00    +0.004 A 
ATOM     16  C   UNL     1      -3.751  -6.772  -2.151  0.00  0.00    +0.049 A 
ATOM     17  C   UNL     1      -3.877  -5.885  -3.207  0.00  0.00    +0.161 A 
ATOM     18  C   UNL     1      -3.454  -4.567  -3.060  0.00  0.00    +0.160 A 
BRANCH  18  19
ATOM     19  O   UNL     1      -3.580  -3.692  -4.093  0.00  0.00    -0.503 OA
ATOM     20  H   UNL     1      -2.816  -3.667  -4.684  0.00  0.00    +0.292 HD
ENDBRANCH  18  19
BRANCH  17  21
ATOM     21  O   UNL     1      -4.419  -6.300  -4.384  0.00  0.00    -0.491 OA
ATOM     22  C   UNL     1      -4.837  -7.664  -4.460  0.00  0.00    +0.277 C 
ENDBRANCH  17  21
ENDBRANCH   4  13
BRANCH   8  23
ATOM     23  C   UNL     1      -6.644  -0.325  -0.355  0.00  0.00    +0.085 A 
ATOM     24  C   UNL     1      -7.753  -1.010   0.117  0.00  0.00    +0.027 A 
ATOM     25  C   UNL     1      -8.983  -0.382   0.169  0.00  0.00    +0.002 A 
ATOM     26  C   UNL     1      -9.111   0.930  -0.250  0.00  0.00    +0.004 A 
ATOM     27  C   UNL     1      -8.010   1.619  -0.722  0.00  0.00    +0.047 A 
ATOM     28  C   UNL     1      -6.772   0.998  -0.772  0.00  0.00    +0.142 A 
BRANCH  28  29
ATOM     29  O   UNL     1      -5.687   1.677  -1.230  0.00  0.00    -0.493 OA
ATOM     30  C   UNL     1      -5.894   3.030  -1.640  0.00  0.00    +0.277 C 
ENDBRANCH  28  29
ENDBRANCH   8  23
BRANCH   1  31
ATOM     31  C   UNL     1      -1.543  -2.291   1.842  0.00  0.00    +0.346 C 
ATOM     32  O   UNL     1      -1.885  -1.711   2.858  0.00  0.00    -0.248 OA
ATOM     33  O   UNL     1      -0.826  -3.275   1.913  0.00  0.00    -0.248 OA
ENDBRANCH   1  31
BRANCH   1  34
ATOM     34  C   UNL     1      -1.666  -0.310   0.327  0.00  0.00    +0.002 C 
BRANCH  34  36
ATOM     35  C   UNL     1       0.189   1.313  -0.082  0.00  0.00    +0.007 C 
ATOM     36  C   UNL     1      -0.147  -0.138   0.269  0.00  0.00    -0.018 C 
ATOM     37  C   UNL     1       0.458  -0.488   1.630  0.00  0.00    +0.007 C 
ENDBRANCH  34  36
ENDBRANCH   1  34
TORSDOF 8
