REMARK  Name = ZINC44168159
REMARK  4 active torsions:
REMARK  status: ('A' for Active; 'I' for Inactive)
REMARK    1  A    between atoms: C_10  and  O_24
REMARK    2  A    between atoms: C_12  and  O_23
REMARK    3  A    between atoms: C_14  and  O_22
REMARK    4  A    between atoms: C_16  and  O_21
REMARK                            x       y       z     vdW  Elec       q    Type
REMARK                         _______ _______ _______ _____ _____    ______ ____
ROOT
ATOM      1  C   UNL     1      -0.019   1.526   0.010  0.00  0.00    +0.000 C 
ATOM      2  C   UNL     1       1.417   2.056  -0.000  0.00  0.00    +0.005 C 
ATOM      3  C   UNL     1       2.129   1.569  -1.264  0.00  0.00    +0.065 C 
ATOM      4  C   UNL     1       2.140   0.042  -1.288  0.00  0.00    +0.171 C 
ATOM      5  C   UNL     1       0.712  -0.497  -1.261  0.00  0.00    +0.065 C 
ATOM      6  C   UNL     1       0.002  -0.004   0.002  0.00  0.00    +0.005 C 
ATOM      7  O   UNL     1       2.861  -0.450  -0.134  0.00  0.00    -0.340 OA
ATOM      8  C   UNL     1       3.539  -1.603  -0.640  0.00  0.00    +0.184 C 
ATOM      9  C   UNL     1       4.786  -2.039   0.106  0.00  0.00    +0.177 C 
ATOM     10  C   UNL     1       5.396  -3.218  -0.668  0.00  0.00    +0.176 C 
ATOM     11  C   UNL     1       5.719  -2.832  -2.109  0.00  0.00    +0.176 C 
ATOM     12  C   UNL     1       4.484  -2.263  -2.827  0.00  0.00    +0.177 C 
ATOM     13  C   UNL     1       3.981  -1.080  -2.035  0.00  0.00    +0.184 C 
ATOM     14  O   UNL     1       2.807  -0.415  -2.484  0.00  0.00    -0.340 OA
ENDROOT
BRANCH  12  15
ATOM     15  O   UNL     1       3.458  -3.256  -2.887  0.00  0.00    -0.386 OA
ATOM     16  H   UNL     1       3.714  -4.058  -3.361  0.00  0.00    +0.210 HD
ENDBRANCH  12  15
BRANCH  11  17
ATOM     17  O   UNL     1       6.753  -1.845  -2.107  0.00  0.00    -0.386 OA
ATOM     18  H   UNL     1       7.577  -2.139  -1.696  0.00  0.00    +0.210 HD
ENDBRANCH  11  17
BRANCH  10  19
ATOM     19  O   UNL     1       6.599  -3.633  -0.017  0.00  0.00    -0.386 OA
ATOM     20  H   UNL     1       7.044  -4.376  -0.448  0.00  0.00    +0.210 HD
ENDBRANCH  10  19
BRANCH   9  21
ATOM     21  O   UNL     1       4.440  -2.453   1.430  0.00  0.00    -0.386 OA
ATOM     22  H   UNL     1       5.194  -2.745   1.960  0.00  0.00    +0.210 HD
ENDBRANCH   9  21
TORSDOF 4
