REMARK  Name = ZINC58169309
REMARK  7 active torsions:
REMARK  status: ('A' for Active; 'I' for Inactive)
REMARK    1  A    between atoms: C_1  and  C_2
REMARK    2  A    between atoms: C_2  and  C_4
REMARK    3  A    between atoms: C_2  and  N_14
REMARK    4  A    between atoms: N_14  and  C_15
REMARK    5  A    between atoms: C_15  and  C_16
REMARK    6  A    between atoms: N_18  and  C_19
REMARK    7  A    between atoms: C_20  and  C_28
REMARK                            x       y       z     vdW  Elec       q    Type
REMARK                         _______ _______ _______ _____ _____    ______ ____
ROOT
ATOM      1  C   UNL     1       0.572  -1.074   3.547  0.00  0.00    +0.231 C 
ATOM      2  O   UNL     1       1.752  -1.338   3.448  0.00  0.00    -0.274 OA
ATOM      3  N   UNL     1      -0.057  -1.229   4.729  0.00  0.00    -0.278 N 
ATOM      4  H   UNL     1      -1.000  -1.018   4.808  0.00  0.00    +0.155 HD
ENDROOT
BRANCH   3   5
ATOM      5  C   UNL     1       0.645  -1.691   5.832  0.00  0.00    +0.084 A 
ATOM      6  C   UNL     1       0.166  -1.916   7.113  0.00  0.00    +0.068 A 
ATOM      7  C   UNL     1       1.113  -2.405   8.100  0.00  0.00    -0.023 A 
ATOM      8  C   UNL     1       2.365  -2.580   7.624  0.00  0.00    -0.004 A 
ATOM      9  S   UNL     1       2.268  -2.114   5.921  0.00  0.00    -0.077 S 
ATOM     10  C   UNL     1       3.558  -3.068   8.388  0.00  0.00    +0.043 C 
ATOM     11  C   UNL     1       3.237  -2.983   9.887  0.00  0.00    +0.005 C 
ATOM     12  C   UNL     1       1.861  -3.606  10.136  0.00  0.00    +0.005 C 
ATOM     13  C   UNL     1       0.769  -2.709   9.550  0.00  0.00    +0.037 C 
BRANCH   6  14
ATOM     14  C   UNL     1      -1.237  -1.669   7.459  0.00  0.00    +0.244 C 
ATOM     15  O   UNL     1      -2.059  -2.559   7.339  0.00  0.00    -0.270 OA
ATOM     16  N   UNL     1      -1.617  -0.457   7.909  0.00  0.00    -0.325 N 
ATOM     17  H   UNL     1      -0.963   0.253   8.004  0.00  0.00    +0.145 HD
ATOM     18  H   UNL     1      -2.546  -0.293   8.137  0.00  0.00    +0.145 HD
ENDBRANCH   6  14
ENDBRANCH   3   5
BRANCH   1  19
ATOM     19  C   UNL     1      -0.191  -0.572   2.348  0.00  0.00    +0.178 C 
BRANCH  19  20
ATOM     20  N   UNL     1       0.713  -0.491   1.192  0.00  0.00    -0.302 NA
ATOM     21  H   UNL     1       1.151  -1.381   1.012  0.00  0.00    +0.123 HD
BRANCH  20  23
ATOM     22  C   UNL     1      -0.019   1.526   0.010  0.00  0.00    +0.029 C 
ATOM     23  C   UNL     1       0.002  -0.004   0.002  0.00  0.00    +0.082 C 
BRANCH  23  24
ATOM     24  C   UNL     1       0.707  -0.490  -1.238  0.00  0.00    -0.023 A 
ATOM     25  C   UNL     1       2.004  -0.899  -1.171  0.00  0.00    +0.006 A 
ATOM     26  C   UNL     1       2.673  -1.351  -2.307  0.00  0.00    +0.001 A 
ATOM     27  C   UNL     1       2.049  -1.397  -3.516  0.00  0.00    +0.008 A 
ATOM     28  C   UNL     1       0.710  -0.984  -3.624  0.00  0.00    -0.018 A 
ATOM     29  C   UNL     1       0.028  -0.529  -2.467  0.00  0.00    -0.013 A 
ATOM     30  C   UNL     1      -1.312  -0.121  -2.574  0.00  0.00    +0.009 A 
ATOM     31  C   UNL     1      -1.938  -0.172  -3.781  0.00  0.00    +0.001 A 
ATOM     32  C   UNL     1      -1.269  -0.625  -4.917  0.00  0.00    +0.001 A 
ATOM     33  C   UNL     1       0.033  -1.016  -4.855  0.00  0.00    +0.008 A 
ENDBRANCH  23  24
ENDBRANCH  20  23
ENDBRANCH  19  20
ENDBRANCH   1  19
TORSDOF 6
