REMARK  Name = ZINC02858033
REMARK  11 active torsions:
REMARK  status: ('A' for Active; 'I' for Inactive)
REMARK    1  A    between atoms: C_1  and  C_2
REMARK    2  A    between atoms: C_2  and  O_3
REMARK    3  A    between atoms: O_3  and  C_4
REMARK    4  A    between atoms: C_4  and  C_6
REMARK    5  A    between atoms: C_10  and  N_11
REMARK    6  A    between atoms: N_11  and  C_12
REMARK    7  A    between atoms: C_12  and  N_14
REMARK    8  A    between atoms: N_14  and  C_15
REMARK    9  A    between atoms: C_15  and  C_16
REMARK   10  A    between atoms: C_19  and  S_22
REMARK   11  A    between atoms: S_22  and  N_25
REMARK                            x       y       z     vdW  Elec       q    Type
REMARK                         _______ _______ _______ _____ _____    ______ ____
ROOT
ATOM      1  N   UNL     1       0.002  -0.004   0.002  0.00  0.00    -0.291 N 
ATOM      2  H   UNL     1      -0.831  -0.500   0.007  0.00  0.00    +0.154 HD
ENDROOT
BRANCH   1   7
ATOM      3  C   UNL     1       1.435  -2.045  -0.017  0.00  0.00    +0.091 A 
ATOM      4  C   UNL     1       2.823  -2.522  -0.057  0.00  0.00    -0.021 A 
ATOM      5  C   UNL     1       3.738  -1.539  -0.038  0.00  0.00    -0.004 A 
ATOM      6  S   UNL     1       2.812  -0.025  -0.024  0.00  0.00    -0.077 S 
ATOM      7  C   UNL     1       1.211  -0.680  -0.013  0.00  0.00    +0.086 A 
ATOM      8  C   UNL     1       5.236  -1.651   0.026  0.00  0.00    +0.043 C 
ATOM      9  C   UNL     1       5.599  -1.905   1.500  0.00  0.00    +0.005 C 
ATOM     10  C   UNL     1       4.796  -3.118   1.990  0.00  0.00    +0.000 C 
ATOM     11  C   UNL     1       5.255  -4.276   1.131  0.00  0.00    +0.000 C 
ATOM     12  C   UNL     1       4.561  -4.361  -0.218  0.00  0.00    +0.005 C 
ATOM     13  C   UNL     1       3.077  -4.028  -0.135  0.00  0.00    +0.037 C 
BRANCH   3  14
ATOM     14  C   UNL     1       0.317  -2.990   0.014  0.00  0.00    +0.342 C 
ATOM     15  O   UNL     1      -0.175  -3.384  -1.026  0.00  0.00    -0.245 OA
BRANCH  14  16
ATOM     16  O   UNL     1      -0.168  -3.423   1.196  0.00  0.00    -0.461 OA
BRANCH  16  18
ATOM     17  C   UNL     1      -1.687  -4.733   2.576  0.00  0.00    +0.048 C 
ATOM     18  C   UNL     1      -1.277  -4.358   1.150  0.00  0.00    +0.229 C 
ENDBRANCH  16  18
ENDBRANCH  14  16
ENDBRANCH   3  14
ENDBRANCH   1   7
BRANCH   1  19
ATOM     19  C   UNL     1      -0.016   1.344   0.009  0.00  0.00    +0.135 C 
ATOM     20  S   UNL     1       1.455   2.220   0.000  0.00  0.00    -0.019 S 
BRANCH  19  21
ATOM     21  N   UNL     1      -1.192   2.002   0.019  0.00  0.00    -0.322 N 
ATOM     22  H   UNL     1      -2.026   1.505   0.020  0.00  0.00    +0.148 HD
BRANCH  21  23
ATOM     23  C   UNL     1      -1.212   3.466   0.027  0.00  0.00    +0.138 C 
BRANCH  23  24
ATOM     24  C   UNL     1      -2.640   3.949   0.036  0.00  0.00    -0.030 A 
ATOM     25  C   UNL     1      -3.298   4.183  -1.157  0.00  0.00    +0.007 A 
ATOM     26  C   UNL     1      -4.609   4.622  -1.148  0.00  0.00    +0.029 A 
ATOM     27  C   UNL     1      -5.258   4.836   0.053  0.00  0.00    +0.105 A 
ATOM     28  C   UNL     1      -4.598   4.607   1.246  0.00  0.00    +0.029 A 
ATOM     29  C   UNL     1      -3.289   4.164   1.238  0.00  0.00    +0.007 A 
BRANCH  27  30
ATOM     30  S   UNL     1      -6.928   5.399   0.064  0.00  0.00    +0.056 S 
ATOM     31  O   UNL     1      -7.495   5.015  -1.181  0.00  0.00    -0.153 OA
ATOM     32  O   UNL     1      -7.483   5.000   1.310  0.00  0.00    -0.153 OA
BRANCH  30  33
ATOM     33  N   UNL     1      -6.886   7.055   0.074  0.00  0.00    -0.204 NA
ATOM     34  H   UNL     1      -6.034   7.518   0.073  0.00  0.00    +0.144 HD
ATOM     35  H   UNL     1      -7.713   7.561   0.081  0.00  0.00    +0.144 HD
ENDBRANCH  30  33
ENDBRANCH  27  30
ENDBRANCH  23  24
ENDBRANCH  21  23
ENDBRANCH  19  21
ENDBRANCH   1  19
TORSDOF 10
