REMARK  Name = ZINC13321336
REMARK  11 active torsions:
REMARK  status: ('A' for Active; 'I' for Inactive)
REMARK    1  A    between atoms: C_1  and  C_2
REMARK    2  A    between atoms: C_2  and  C_3
REMARK    3  A    between atoms: C_4  and  C_31
REMARK    4  A    between atoms: C_7  and  C_8
REMARK    5  A    between atoms: N_10  and  C_11
REMARK    6  A    between atoms: C_15  and  C_17
REMARK    7  A    between atoms: C_17  and  C_30
REMARK    8  A    between atoms: N_18  and  N_19
REMARK    9  A    between atoms: C_20  and  C_22
REMARK   10  A    between atoms: C_24  and  O_29
REMARK   11  A    between atoms: C_27  and  O_28
REMARK                            x       y       z     vdW  Elec       q    Type
REMARK                         _______ _______ _______ _____ _____    ______ ____
ROOT
ATOM      1  C   UNL     1       3.515  -3.368   0.199  0.00  0.00    +0.034 A 
ATOM      2  C   UNL     1       2.304  -3.737   0.775  0.00  0.00    +0.023 A 
ATOM      3  C   UNL     1       2.124  -5.022   1.252  0.00  0.00    +0.002 A 
ATOM      4  C   UNL     1       3.148  -5.944   1.170  0.00  0.00    +0.010 A 
ATOM      5  C   UNL     1       4.370  -5.581   0.598  0.00  0.00    -0.001 A 
ATOM      6  C   UNL     1       4.550  -4.285   0.112  0.00  0.00    +0.033 A 
ENDROOT
BRANCH   1   9
ATOM      7  C   UNL     1       4.874  -1.444  -0.132  0.00  0.00    +0.249 C 
ATOM      8  O   UNL     1       5.818  -2.042   0.348  0.00  0.00    -0.270 OA
ATOM      9  N   UNL     1       3.690  -2.068  -0.287  0.00  0.00    -0.281 N 
ATOM     10  H   UNL     1       2.958  -1.615  -0.735  0.00  0.00    +0.155 HD
BRANCH   7  15
ATOM     11  C   UNL     1       6.277   0.660  -0.390  0.00  0.00    -0.026 A 
ATOM     12  C   UNL     1       6.316   1.943  -0.798  0.00  0.00    -0.009 A 
ATOM     13  S   UNL     1       4.664   2.227  -1.399  0.00  0.00    -0.101 S 
ATOM     14  C   UNL     1       3.978   0.666  -1.099  0.00  0.00    +0.058 A 
ATOM     15  C   UNL     1       5.026  -0.040  -0.545  0.00  0.00    +0.047 A 
ATOM     16  C   UNL     1       7.475   2.906  -0.751  0.00  0.00    +0.052 C 
BRANCH  11  18
ATOM     17  C   UNL     1       7.491   0.189   1.721  0.00  0.00    +0.009 C 
ATOM     18  C   UNL     1       7.487  -0.015   0.204  0.00  0.00    +0.033 C 
ENDBRANCH  11  18
ENDBRANCH   7  15
ENDBRANCH   1   9
BRANCH   5  19
ATOM     19  C   UNL     1       5.466  -6.564   0.509  0.00  0.00    +0.063 C 
ATOM     20  N   UNL     1       6.220  -6.601  -0.547  0.00  0.00    -0.184 NA
ATOM     21  C   UNL     1       5.711  -7.525   1.644  0.00  0.00    +0.068 C 
BRANCH  20  22
ATOM     22  N   UNL     1       5.895  -5.825  -1.667  0.00  0.00    -0.203 N 
ATOM     23  C   UNL     1       6.656  -5.892  -2.777  0.00  0.00    +0.267 C 
ATOM     24  O   UNL     1       7.557  -6.707  -2.849  0.00  0.00    -0.268 OA
ATOM     25  H   UNL     1       5.123  -5.238  -1.643  0.00  0.00    +0.178 HD
BRANCH  23  26
ATOM     26  C   UNL     1       6.397  -4.978  -3.905  0.00  0.00    +0.083 A 
ATOM     27  C   UNL     1       5.373  -4.031  -3.821  0.00  0.00    +0.062 A 
ATOM     28  C   UNL     1       5.137  -3.178  -4.882  0.00  0.00    +0.118 A 
ATOM     29  C   UNL     1       5.914  -3.259  -6.031  0.00  0.00    +0.049 A 
ATOM     30  C   UNL     1       6.927  -4.192  -6.123  0.00  0.00    +0.050 A 
ATOM     31  C   UNL     1       7.180  -5.051  -5.065  0.00  0.00    +0.129 A 
BRANCH  31  32
ATOM     32  O   UNL     1       8.181  -5.965  -5.154  0.00  0.00    -0.506 OA
ATOM     33  H   UNL     1       7.906  -6.814  -5.524  0.00  0.00    +0.292 HD
ENDBRANCH  31  32
BRANCH  28  34
ATOM     34  O   UNL     1       4.141  -2.255  -4.802  0.00  0.00    -0.507 OA
ATOM     35  H   UNL     1       4.435  -1.383  -4.507  0.00  0.00    +0.292 HD
ENDBRANCH  28  34
ENDBRANCH  23  26
ENDBRANCH  20  22
ENDBRANCH   5  19
TORSDOF 8
