REMARK  Name = ZINC15013316
REMARK  7 active torsions:
REMARK  status: ('A' for Active; 'I' for Inactive)
REMARK    1  A    between atoms: C_1  and  C_2
REMARK    2  A    between atoms: C_2  and  N_3
REMARK    3  A    between atoms: N_5  and  C_24
REMARK    4  A    between atoms: C_9  and  C_10
REMARK    5  A    between atoms: C_13  and  N_17
REMARK    6  A    between atoms: C_15  and  C_16
REMARK    7  A    between atoms: C_24  and  C_25
REMARK                            x       y       z     vdW  Elec       q    Type
REMARK                         _______ _______ _______ _____ _____    ______ ____
ROOT
ATOM      1  C   UNL     1      -0.069   6.316   0.135  0.00  0.00    -0.021 A 
ATOM      2  C   UNL     1       1.307   6.051   0.113  0.00  0.00    +0.010 A 
ATOM      3  C   UNL     1       2.206   7.089   0.201  0.00  0.00    +0.024 A 
ATOM      4  C   UNL     1       1.751   8.400   0.313  0.00  0.00    +0.030 A 
ATOM      5  C   UNL     1       0.385   8.667   0.335  0.00  0.00    +0.027 A 
ATOM      6  C   UNL     1      -0.522   7.636   0.242  0.00  0.00    -0.042 A 
ATOM      7  C   UNL     1      -2.000   7.928   0.260  0.00  0.00    +0.044 C 
ENDROOT
BRANCH   1  14
ATOM      8  N   UNL     1      -0.898   0.835  -2.977  0.00  0.00    -0.263 NA
ATOM      9  C   UNL     1      -0.744   1.977  -2.365  0.00  0.00    +0.163 C 
ATOM     10  N   UNL     1       0.203   2.954  -2.597  0.00  0.00    -0.247 N 
ATOM     11  C   UNL     1       0.217   4.063  -1.877  0.00  0.00    +0.259 C 
ATOM     12  O   UNL     1       1.044   4.935  -2.067  0.00  0.00    -0.269 OA
ATOM     13  C   UNL     1      -0.816   4.195  -0.832  0.00  0.00    +0.078 C 
ATOM     14  C   UNL     1      -1.032   5.212   0.041  0.00  0.00    +0.028 C 
ATOM     15  S   UNL     1      -1.711   2.661  -1.029  0.00  0.00    -0.049 S 
BRANCH   8  17
ATOM     16  C   UNL     1      -2.976  -0.214  -3.725  0.00  0.00    +0.029 C 
ATOM     17  C   UNL     1      -1.977  -0.070  -2.575  0.00  0.00    +0.141 C 
ENDBRANCH   8  17
BRANCH  10  18
ATOM     18  C   UNL     1       1.203   2.761  -3.651  0.00  0.00    +0.112 C 
ATOM     19  C   UNL     1       0.668   3.323  -4.970  0.00  0.00    +0.025 C 
ENDBRANCH  10  18
ENDBRANCH   1  14
BRANCH   4  20
ATOM     20  N   UNL     1       2.664   9.447   0.402  0.00  0.00    -0.326 N 
ATOM     21  C   UNL     1       2.437  10.437  -0.660  0.00  0.00    +0.133 C 
ATOM     22  C   UNL     1       3.421  11.597  -0.490  0.00  0.00    +0.178 C 
ATOM     23  O   UNL     1       4.757  11.087  -0.503  0.00  0.00    -0.377 OA
ATOM     24  C   UNL     1       5.014  10.120   0.520  0.00  0.00    +0.178 C 
ATOM     25  C   UNL     1       4.046   8.946   0.359  0.00  0.00    +0.133 C 
ENDBRANCH   4  20
TORSDOF 4
