REMARK  Name = ZINC13510434
REMARK  6 active torsions:
REMARK  status: ('A' for Active; 'I' for Inactive)
REMARK    1  A    between atoms: C_4  and  N_7
REMARK    2  A    between atoms: C_8  and  C_10
REMARK    3  A    between atoms: C_12  and  C_29
REMARK    4  A    between atoms: C_14  and  C_20
REMARK    5  A    between atoms: N_22  and  C_23
REMARK    6  A    between atoms: N_31  and  C_32
REMARK                            x       y       z     vdW  Elec       q    Type
REMARK                         _______ _______ _______ _____ _____    ______ ____
ROOT
ATOM      1  C   UNL     1       5.171  -3.069   0.535  0.00  0.00    +0.091 C 
ATOM      2  C   UNL     1       4.900  -4.561   0.328  0.00  0.00    +0.102 C 
ATOM      3  C   UNL     1       5.444  -4.994  -1.035  0.00  0.00    +0.059 C 
ATOM      4  C   UNL     1       4.751  -4.191  -2.139  0.00  0.00    +0.017 C 
ATOM      5  C   UNL     1       5.023  -2.700  -1.932  0.00  0.00    +0.005 C 
ATOM      6  C   UNL     1       5.896  -2.508  -0.690  0.00  0.00    +0.002 C 
ATOM      7  C   UNL     1       7.222  -3.246  -0.880  0.00  0.00    +0.005 C 
ATOM      8  C   UNL     1       6.951  -4.737  -1.087  0.00  0.00    +0.017 C 
ENDROOT
BRANCH   1  10
ATOM      9  N   UNL     1       3.857  -1.010   0.922  0.00  0.00    -0.285 N 
ATOM     10  C   UNL     1       3.864  -2.342   0.722  0.00  0.00    +0.221 C 
ATOM     11  O   UNL     1       2.819  -2.957   0.693  0.00  0.00    -0.275 OA
ATOM     12  H   UNL     1       4.685  -0.507   0.872  0.00  0.00    +0.155 HD
BRANCH   9  16
ATOM     13  C   UNL     1       0.279   0.953   1.758  0.00  0.00    +0.000 A 
ATOM     14  C   UNL     1       0.477  -0.340   2.206  0.00  0.00    +0.002 A 
ATOM     15  C   UNL     1       1.663  -0.994   1.931  0.00  0.00    +0.023 A 
ATOM     16  C   UNL     1       2.655  -0.351   1.203  0.00  0.00    +0.033 A 
ATOM     17  C   UNL     1       2.452   0.948   0.754  0.00  0.00    +0.023 A 
ATOM     18  C   UNL     1       1.265   1.596   1.033  0.00  0.00    +0.002 A 
ENDBRANCH   9  16
ENDBRANCH   1  10
BRANCH   3  19
ATOM     19  C   UNL     1       5.176  -6.463  -1.239  0.00  0.00    +0.224 C 
ATOM     20  O   UNL     1       4.607  -7.101  -0.379  0.00  0.00    -0.275 OA
ATOM     21  N   UNL     1       5.570  -7.068  -2.377  0.00  0.00    -0.285 N 
ATOM     22  H   UNL     1       6.090  -6.577  -3.033  0.00  0.00    +0.155 HD
BRANCH  21  23
ATOM     23  C   UNL     1       5.229  -8.404  -2.614  0.00  0.00    +0.033 A 
ATOM     24  C   UNL     1       6.099  -9.231  -3.313  0.00  0.00    +0.023 A 
ATOM     25  C   UNL     1       5.759 -10.550  -3.544  0.00  0.00    +0.002 A 
ATOM     26  C   UNL     1       4.555 -11.046  -3.081  0.00  0.00    +0.000 A 
ATOM     27  C   UNL     1       3.686 -10.226  -2.385  0.00  0.00    +0.002 A 
ATOM     28  C   UNL     1       4.023  -8.908  -2.144  0.00  0.00    +0.023 A 
ENDBRANCH  21  23
ENDBRANCH   3  19
BRANCH   2  29
ATOM     29  C   UNL     1       5.582  -5.351   1.415  0.00  0.00    +0.222 C 
ATOM     30  O   UNL     1       6.420  -6.179   1.128  0.00  0.00    -0.275 OA
ATOM     31  N   UNL     1       5.260  -5.138   2.706  0.00  0.00    -0.285 N 
ATOM     32  H   UNL     1       4.536  -4.532   2.932  0.00  0.00    +0.155 HD
BRANCH  31  33
ATOM     33  C   UNL     1       5.969  -5.790   3.721  0.00  0.00    +0.033 A 
ATOM     34  C   UNL     1       5.323  -6.161   4.893  0.00  0.00    +0.023 A 
ATOM     35  C   UNL     1       6.026  -6.804   5.893  0.00  0.00    +0.002 A 
ATOM     36  C   UNL     1       7.372  -7.079   5.728  0.00  0.00    +0.000 A 
ATOM     37  C   UNL     1       8.017  -6.710   4.562  0.00  0.00    +0.002 A 
ATOM     38  C   UNL     1       7.319  -6.072   3.556  0.00  0.00    +0.023 A 
ENDBRANCH  31  33
ENDBRANCH   2  29
TORSDOF 6
