REMARK  Name = ZINC23399369
REMARK  5 active torsions:
REMARK  status: ('A' for Active; 'I' for Inactive)
REMARK    1  A    between atoms: C_4  and  N_7
REMARK    2  A    between atoms: N_10  and  C_11
REMARK    3  A    between atoms: C_14  and  N_17
REMARK    4  A    between atoms: N_17  and  S_18
REMARK    5  A    between atoms: S_18  and  C_21
REMARK                            x       y       z     vdW  Elec       q    Type
REMARK                         _______ _______ _______ _____ _____    ______ ____
ROOT
ATOM      1  C   UNL     1      -1.921   5.944  -1.939  0.00  0.00    +0.035 A 
ATOM      2  C   UNL     1      -1.851   5.246  -3.137  0.00  0.00    +0.025 A 
ATOM      3  C   UNL     1      -1.805   3.866  -3.131  0.00  0.00    +0.026 A 
ATOM      4  C   UNL     1      -1.828   3.176  -1.926  0.00  0.00    +0.048 A 
ATOM      5  C   UNL     1      -1.903   3.874  -0.728  0.00  0.00    +0.026 A 
ATOM      6  C   UNL     1      -1.943   5.254  -0.734  0.00  0.00    +0.025 A 
ENDROOT
BRANCH   1  10
ATOM      7  N   UNL     1      -1.242   9.384  -2.819  0.00  0.00    -0.269 N 
ATOM      8  C   UNL     1      -1.275   8.038  -2.870  0.00  0.00    +0.308 C 
ATOM      9  O   UNL     1      -0.680   7.449  -3.752  0.00  0.00    -0.252 OA
ATOM     10  N   UNL     1      -1.967   7.345  -1.945  0.00  0.00    -0.269 N 
ATOM     11  H   UNL     1      -1.717   9.914  -1.980  0.00  0.00    +0.156 HD
ATOM     12  H   UNL     1      -2.569   7.878  -1.195  0.00  0.00    +0.156 HD
BRANCH   7  16
ATOM     13  C   UNL     1       0.655  11.539  -5.838  0.00  0.00    +0.000 A 
ATOM     14  C   UNL     1      -0.484  12.046  -5.240  0.00  0.00    +0.002 A 
ATOM     15  C   UNL     1      -1.115  11.334  -4.239  0.00  0.00    +0.023 A 
ATOM     16  C   UNL     1      -0.605  10.108  -3.833  0.00  0.00    +0.035 A 
ATOM     17  C   UNL     1       0.543   9.604  -4.431  0.00  0.00    +0.023 A 
ATOM     18  C   UNL     1       1.166  10.318  -5.436  0.00  0.00    +0.002 A 
ENDBRANCH   7  16
ENDBRANCH   1  10
BRANCH   4  19
ATOM     19  N   UNL     1      -1.782   1.778  -1.920  0.00  0.00    -0.216 N 
ATOM     20  H   UNL     1      -2.689   1.198  -1.692  0.00  0.00    +0.174 HD
BRANCH  19  21
ATOM     21  S   UNL     1      -0.362   0.994  -2.256  0.00  0.00    +0.079 S 
ATOM     22  O   UNL     1      -0.625  -0.396  -2.127  0.00  0.00    -0.149 OA
ATOM     23  O   UNL     1       0.143   1.566  -3.456  0.00  0.00    -0.149 OA
BRANCH  21  24
ATOM     24  C   UNL     1       0.779   1.413  -0.980  0.00  0.00    +0.146 A 
ATOM     25  C   UNL     1       1.065   0.742   0.162  0.00  0.00    +0.036 A 
ATOM     26  C   UNL     1       2.007   1.265   1.028  0.00  0.00    +0.010 A 
ATOM     27  C   UNL     1       2.618   2.432   0.709  0.00  0.00    +0.047 A 
ATOM     28  S   UNL     1       1.863   2.826  -0.861  0.00  0.00    -0.077 S 
ENDBRANCH  21  24
ENDBRANCH  19  21
ENDBRANCH   4  19
TORSDOF 5
