REMARK  Name = ZINC27564093
REMARK  4 active torsions:
REMARK  status: ('A' for Active; 'I' for Inactive)
REMARK    1  A    between atoms: C_6  and  C_11
REMARK    2  A    between atoms: C_12  and  C_21
REMARK    3  A    between atoms: N_31  and  C_32
REMARK    4  A    between atoms: C_32  and  C_33
REMARK                            x       y       z     vdW  Elec       q    Type
REMARK                         _______ _______ _______ _____ _____    ______ ____
ROOT
ATOM      1  C   UNL     1      -1.962   5.341   0.460  0.00  0.00    +0.053 A 
ATOM      2  C   UNL     1      -1.675   4.043   0.730  0.00  0.00    +0.010 A 
ATOM      3  C   UNL     1      -1.776   3.877   2.179  0.00  0.00    +0.006 A 
ATOM      4  C   UNL     1      -1.593   2.794   3.045  0.00  0.00    +0.010 A 
ATOM      5  C   UNL     1      -1.766   2.964   4.389  0.00  0.00    +0.001 A 
ATOM      6  C   UNL     1      -2.121   4.203   4.904  0.00  0.00    +0.002 A 
ATOM      7  C   UNL     1      -2.307   5.284   4.069  0.00  0.00    +0.026 A 
ATOM      8  C   UNL     1      -2.136   5.136   2.697  0.00  0.00    +0.047 A 
ATOM      9  N   UNL     1      -2.246   6.003   1.633  0.00  0.00    -0.354 N 
ATOM     10  H   UNL     1      -2.511   7.071   1.611  0.00  0.00    +0.166 HD
ENDROOT
BRANCH   1  16
ATOM     11  C   UNL     1      -3.035   8.389  -5.113  0.00  0.00    +0.001 A 
ATOM     12  C   UNL     1      -4.130   8.580  -4.273  0.00  0.00    +0.001 A 
ATOM     13  C   UNL     1      -4.158   8.036  -3.026  0.00  0.00    +0.008 A 
ATOM     14  C   UNL     1      -3.068   7.271  -2.575  0.00  0.00    -0.017 A 
ATOM     15  C   UNL     1      -3.064   6.696  -1.295  0.00  0.00    +0.018 A 
ATOM     16  C   UNL     1      -1.973   5.949  -0.887  0.00  0.00    -0.001 A 
ATOM     17  C   UNL     1      -0.871   5.769  -1.742  0.00  0.00    +0.010 A 
ATOM     18  C   UNL     1      -0.859   6.313  -2.986  0.00  0.00    +0.009 A 
ATOM     19  C   UNL     1      -1.953   7.078  -3.430  0.00  0.00    -0.018 A 
ATOM     20  C   UNL     1      -1.962   7.655  -4.711  0.00  0.00    +0.008 A 
ENDBRANCH   1  16
BRANCH   2  21
ATOM     21  C   UNL     1      -1.315   2.977  -0.272  0.00  0.00    +0.141 C 
ATOM     22  C   UNL     1       0.064   2.438   0.018  0.00  0.00    -0.010 A 
ATOM     23  C   UNL     1       1.312   3.015   0.056  0.00  0.00    +0.006 A 
ATOM     24  C   UNL     1       2.421   2.243   0.360  0.00  0.00    +0.000 A 
ATOM     25  C   UNL     1       2.278   0.893   0.625  0.00  0.00    +0.001 A 
ATOM     26  C   UNL     1       1.031   0.305   0.590  0.00  0.00    +0.013 A 
ATOM     27  C   UNL     1      -0.092   1.076   0.284  0.00  0.00    +0.042 A 
ATOM     28  C   UNL     1      -1.525   0.743   0.171  0.00  0.00    +0.248 C 
ATOM     29  O   UNL     1      -1.997  -0.364   0.343  0.00  0.00    -0.270 OA
ATOM     30  N   UNL     1      -2.233   1.838  -0.156  0.00  0.00    -0.278 N 
BRANCH  30  31
ATOM     31  C   UNL     1      -3.683   1.887  -0.359  0.00  0.00    +0.204 C 
BRANCH  31  32
ATOM     32  C   UNL     1      -4.373   2.024   0.973  0.00  0.00    +0.228 C 
ATOM     33  O   UNL     1      -3.731   1.949   1.999  0.00  0.00    -0.274 OA
ATOM     34  N   UNL     1      -5.704   2.231   1.025  0.00  0.00    -0.328 N 
ATOM     35  H   UNL     1      -6.207   2.331   1.998  0.00  0.00    +0.145 HD
ATOM     36  H   UNL     1      -6.287   2.299   0.095  0.00  0.00    +0.145 HD
ENDBRANCH  31  32
ENDBRANCH  30  31
ENDBRANCH   2  21
TORSDOF 4
