REMARK  Name = ZINC02955123
REMARK  8 active torsions:
REMARK  status: ('A' for Active; 'I' for Inactive)
REMARK    1  A    between atoms: C_1  and  C_2
REMARK    2  A    between atoms: C_5  and  O_9
REMARK    3  A    between atoms: C_6  and  C_8
REMARK    4  A    between atoms: O_9  and  C_10
REMARK    5  A    between atoms: C_10  and  C_11
REMARK    6  A    between atoms: N_13  and  C_14
REMARK    7  A    between atoms: C_15  and  C_25
REMARK    8  A    between atoms: C_20  and  C_24
REMARK                            x       y       z     vdW  Elec       q    Type
REMARK                         _______ _______ _______ _____ _____    ______ ____
ROOT
ATOM      1  C   UNL     1      -4.026   5.881   0.053  0.00  0.00    +0.084 A 
ATOM      2  C   UNL     1      -4.424   7.211   0.062  0.00  0.00    +0.068 A 
ATOM      3  C   UNL     1      -5.851   7.484   0.070  0.00  0.00    -0.023 A 
ATOM      4  C   UNL     1      -6.646   6.393   0.068  0.00  0.00    -0.004 A 
ATOM      5  S   UNL     1      -5.529   5.019   0.048  0.00  0.00    -0.077 S 
ATOM      6  C   UNL     1      -8.144   6.366   0.074  0.00  0.00    +0.046 C 
ATOM      7  C   UNL     1      -8.654   7.766  -0.295  0.00  0.00    -0.009 C 
ATOM      8  C   UNL     1      -7.901   8.803   0.544  0.00  0.00    +0.008 C 
ATOM      9  C   UNL     1      -6.445   8.888   0.082  0.00  0.00    +0.037 C 
ATOM     10  C   UNL     1     -10.153   7.859  -0.004  0.00  0.00    +0.008 C 
ENDROOT
BRANCH   2  11
ATOM     11  C   UNL     1      -3.441   8.299   0.063  0.00  0.00    +0.244 C 
ATOM     12  O   UNL     1      -3.038   8.755  -0.991  0.00  0.00    -0.270 OA
ATOM     13  N   UNL     1      -2.984   8.793   1.231  0.00  0.00    -0.325 N 
ATOM     14  H   UNL     1      -3.305   8.429   2.070  0.00  0.00    +0.145 HD
ATOM     15  H   UNL     1      -2.334   9.512   1.231  0.00  0.00    +0.145 HD
ENDBRANCH   2  11
BRANCH   1  18
ATOM     16  C   UNL     1      -2.545   4.034   0.036  0.00  0.00    +0.255 C 
ATOM     17  O   UNL     1      -3.497   3.283   0.036  0.00  0.00    -0.272 OA
ATOM     18  N   UNL     1      -2.738   5.367   0.044  0.00  0.00    -0.277 N 
ATOM     19  H   UNL     1      -1.977   5.968   0.044  0.00  0.00    +0.155 HD
BRANCH  16  20
ATOM     20  C   UNL     1      -1.145   3.475   0.026  0.00  0.00    +0.324 C 
BRANCH  20  21
ATOM     21  O   UNL     1      -1.202   2.047   0.019  0.00  0.00    -0.483 OA
BRANCH  21  26
ATOM     22  C   UNL     1       3.711  -0.707  -0.037  0.00  0.00    +0.044 C 
ATOM     23  C   UNL     1       2.396   0.030  -0.021  0.00  0.00    -0.050 A 
ATOM     24  C   UNL     1       2.380   1.413  -0.013  0.00  0.00    +0.007 A 
ATOM     25  C   UNL     1       1.177   2.091   0.002  0.00  0.00    +0.046 A 
ATOM     26  C   UNL     1      -0.017   1.383   0.010  0.00  0.00    +0.124 A 
ATOM     27  C   UNL     1       0.002  -0.004   0.002  0.00  0.00    -0.009 A 
ATOM     28  C   UNL     1       1.208  -0.677  -0.013  0.00  0.00    +0.010 A 
ATOM     29  C   UNL     1      -1.292  -0.776   0.011  0.00  0.00    +0.047 C 
ENDBRANCH  21  26
ENDBRANCH  20  21
ENDBRANCH  16  20
ENDBRANCH   1  18
TORSDOF 5
