REMARK  Name = ZINC00845575
REMARK  7 active torsions:
REMARK  status: ('A' for Active; 'I' for Inactive)
REMARK    1  A    between atoms: C_1  and  C_2
REMARK    2  A    between atoms: C_2  and  O_3
REMARK    3  A    between atoms: O_3  and  C_4
REMARK    4  A    between atoms: C_7  and  N_10
REMARK    5  A    between atoms: C_11  and  C_13
REMARK    6  A    between atoms: C_14  and  C_28
REMARK    7  A    between atoms: C_19  and  C_21
REMARK                            x       y       z     vdW  Elec       q    Type
REMARK                         _______ _______ _______ _____ _____    ______ ____
ROOT
ATOM      1  C   UNL     1      -1.166  -1.010   1.123  0.00  0.00    +0.056 C 
ATOM      2  C   UNL     1      -1.373  -2.344   1.158  0.00  0.00    +0.017 C 
ATOM      3  N   UNL     1      -1.264  -3.104   0.028  0.00  0.00    -0.300 N 
ATOM      4  C   UNL     1      -0.951  -2.605  -1.175  0.00  0.00    +0.135 C 
ATOM      5  S   UNL     1      -0.848  -3.670  -2.511  0.00  0.00    -0.019 S 
ATOM      6  N   UNL     1      -0.716  -1.292  -1.367  0.00  0.00    -0.315 N 
ATOM      7  C   UNL     1      -0.808  -0.386  -0.210  0.00  0.00    +0.139 C 
ATOM      8  C   UNL     1      -1.731  -3.005   2.464  0.00  0.00    +0.061 C 
ATOM      9  H   UNL     1      -1.422  -4.058   0.102  0.00  0.00    +0.154 HD
ATOM     10  H   UNL     1      -0.491  -0.952  -2.248  0.00  0.00    +0.149 HD
ENDROOT
BRANCH   7  11
ATOM     11  C   UNL     1       0.520   0.308  -0.057  0.00  0.00    -0.022 A 
ATOM     12  C   UNL     1       0.570   1.612   0.401  0.00  0.00    +0.006 A 
ATOM     13  C   UNL     1       1.788   2.250   0.541  0.00  0.00    +0.001 A 
ATOM     14  C   UNL     1       2.957   1.584   0.225  0.00  0.00    +0.015 A 
ATOM     15  C   UNL     1       2.908   0.280  -0.232  0.00  0.00    +0.018 A 
ATOM     16  C   UNL     1       1.689  -0.358  -0.373  0.00  0.00    +0.021 A 
ATOM     17 BR   UNL     1       4.508  -0.632  -0.663  0.00  0.00    -0.050 Br
ENDBRANCH   7  11
BRANCH   1  19
ATOM     18  N   UNL     1      -0.405  -0.390   3.307  0.00  0.00    -0.282 N 
ATOM     19  C   UNL     1      -1.278  -0.222   2.294  0.00  0.00    +0.248 C 
ATOM     20  O   UNL     1      -2.164   0.609   2.386  0.00  0.00    -0.270 OA
ATOM     21  H   UNL     1       0.235  -1.119   3.279  0.00  0.00    +0.155 HD
BRANCH  18  25
ATOM     22  C   UNL     1      -0.455   2.218   6.559  0.00  0.00    +0.121 A 
ATOM     23  C   UNL     1       0.738   1.637   6.155  0.00  0.00    +0.047 A 
ATOM     24  C   UNL     1       0.755   0.773   5.078  0.00  0.00    +0.027 A 
ATOM     25  C   UNL     1      -0.422   0.486   4.400  0.00  0.00    +0.034 A 
ATOM     26  C   UNL     1      -1.615   1.072   4.802  0.00  0.00    +0.027 A 
ATOM     27  C   UNL     1      -1.632   1.931   5.882  0.00  0.00    +0.047 A 
BRANCH  22  28
ATOM     28  O   UNL     1      -0.471   3.069   7.619  0.00  0.00    -0.492 OA
BRANCH  28  30
ATOM     29  C   UNL     1      -1.555   4.556   9.186  0.00  0.00    +0.048 C 
ATOM     30  C   UNL     1      -1.734   3.631   7.981  0.00  0.00    +0.225 C 
ENDBRANCH  28  30
ENDBRANCH  22  28
ENDBRANCH  18  25
ENDBRANCH   1  19
TORSDOF 5
