REMARK  Name = ZINC21819225
REMARK  3 active torsions:
REMARK  status: ('A' for Active; 'I' for Inactive)
REMARK    1  A    between atoms: C_6  and  C_7
REMARK    2  A    between atoms: N_12  and  C_13
REMARK    3  A    between atoms: C_13  and  C_14
REMARK                            x       y       z     vdW  Elec       q    Type
REMARK                         _______ _______ _______ _____ _____    ______ ____
ROOT
ATOM      1  C   UNL     1      -0.369  -3.765   3.330  0.00  0.00    +0.017 A 
ATOM      2  C   UNL     1      -0.658  -2.750   2.465  0.00  0.00    +0.029 A 
ATOM      3  C   UNL     1      -0.735  -2.998   1.099  0.00  0.00    +0.069 A 
ATOM      4  C   UNL     1      -0.528  -4.298   0.603  0.00  0.00    +0.090 A 
ATOM      5  C   UNL     1      -0.234  -5.333   1.490  0.00  0.00    +0.045 A 
ATOM      6  C   UNL     1      -0.154  -5.065   2.853  0.00  0.00    +0.065 A 
ATOM      7  N   UNL     1      -0.672  -4.235  -0.746  0.00  0.00    -0.236 NA
ATOM      8  C   UNL     1      -0.951  -3.015  -1.098  0.00  0.00    +0.200 A 
ATOM      9  N   UNL     1      -1.005  -2.212  -0.000  0.00  0.00    -0.321 N 
ENDROOT
BRANCH   6  10
ATOM     10  C   UNL     1       0.157  -6.154   3.800  0.00  0.00    +0.387 C 
ATOM     11  O   UNL     1       0.344  -7.281   3.389  0.00  0.00    -0.241 OA
ATOM     12  O   UNL     1       0.234  -5.897   5.120  0.00  0.00    -0.241 OA
ENDBRANCH   6  10
BRANCH   9  13
ATOM     13  C   UNL     1      -1.293  -0.775   0.010  0.00  0.00    +0.219 C 
BRANCH  13  14
ATOM     14  C   UNL     1       0.002  -0.004   0.002  0.00  0.00    +0.240 C 
ATOM     15  O   UNL     1       1.060  -0.596  -0.011  0.00  0.00    -0.273 OA
ATOM     16  N   UNL     1      -0.016   1.344   0.009  0.00  0.00    -0.239 N 
ATOM     17  C   UNL     1       1.142   2.033   0.002  0.00  0.00    +0.303 C 
ATOM     18  O   UNL     1       2.202   1.440  -0.011  0.00  0.00    -0.253 OA
ATOM     19  N   UNL     1       1.123   3.381   0.009  0.00  0.00    -0.313 N 
ATOM     20  H   UNL     1      -0.976   1.881   0.021  0.00  0.00    +0.159 HD
ATOM     21  H   UNL     1       2.068   3.944   0.004  0.00  0.00    +0.146 HD
ATOM     22  H   UNL     1       0.163   3.918   0.021  0.00  0.00    +0.146 HD
ENDBRANCH  13  14
ENDBRANCH   9  13
TORSDOF 3
