REMARK  Name = ZINC09647690
REMARK  7 active torsions:
REMARK  status: ('A' for Active; 'I' for Inactive)
REMARK    1  A    between atoms: C_1  and  C_2
REMARK    2  A    between atoms: C_2  and  C_3
REMARK    3  A    between atoms: C_2  and  C_4
REMARK    4  A    between atoms: C_9  and  N_10
REMARK    5  A    between atoms: C_11  and  C_13
REMARK    6  A    between atoms: C_13  and  S_14
REMARK    7  A    between atoms: S_14  and  C_15
REMARK                            x       y       z     vdW  Elec       q    Type
REMARK                         _______ _______ _______ _____ _____    ______ ____
ROOT
ATOM      1  C   UNL     1       0.003  -0.004  -0.010  0.00  0.00    +0.173 C 
ENDROOT
BRANCH   1   3
ATOM      2  N   UNL     1      -1.194   2.161   0.020  0.00  0.00    -0.285 N 
ATOM      3  C   UNL     1      -0.018   1.503   0.008  0.00  0.00    +0.227 C 
ATOM      4  O   UNL     1       1.024   2.124   0.007  0.00  0.00    -0.275 OA
ATOM      5  H   UNL     1      -2.027   1.667  -0.050  0.00  0.00    +0.155 HD
BRANCH   2  11
ATOM      6  C   UNL     1      -2.232   4.181   0.842  0.00  0.00    -0.024 A 
ATOM      7  C   UNL     1      -2.250   5.557   0.952  0.00  0.00    +0.006 A 
ATOM      8  C   UNL     1      -1.256   6.313   0.357  0.00  0.00    +0.000 A 
ATOM      9  C   UNL     1      -0.242   5.693  -0.350  0.00  0.00    +0.002 A 
ATOM     10  C   UNL     1      -0.216   4.316  -0.459  0.00  0.00    +0.023 A 
ATOM     11  C   UNL     1      -1.215   3.555   0.133  0.00  0.00    +0.037 A 
BRANCH   6  13
ATOM     12  C   UNL     1      -3.392   3.701   2.981  0.00  0.00    +0.012 C 
ATOM     13  C   UNL     1      -3.315   3.358   1.492  0.00  0.00    +0.015 C 
ATOM     14  C   UNL     1      -4.658   3.667   0.827  0.00  0.00    +0.012 C 
ENDBRANCH   6  13
ENDBRANCH   2  11
ENDBRANCH   1   3
BRANCH   1  15
ATOM     15  S   UNL     1       1.717  -0.583  -0.030  0.00  0.00    -0.077 S 
BRANCH  15  16
ATOM     16  C   UNL     1       1.451  -2.325  -0.048  0.00  0.00    +0.191 A 
ATOM     17  N   UNL     1       2.497  -3.144  -0.067  0.00  0.00    -0.207 NA
ATOM     18  C   UNL     1       2.359  -4.458  -0.080  0.00  0.00    +0.129 A 
ATOM     19  C   UNL     1       1.053  -5.022  -0.076  0.00  0.00    +0.047 A 
ATOM     20  C   UNL     1       0.645  -6.417  -0.088  0.00  0.00    +0.021 A 
ATOM     21  C   UNL     1      -0.661  -6.718  -0.081  0.00  0.00    +0.048 A 
ATOM     22  S   UNL     1      -1.455  -5.121  -0.056  0.00  0.00    -0.077 S 
ATOM     23  C   UNL     1      -0.010  -4.094  -0.056  0.00  0.00    +0.114 A 
ATOM     24  N   UNL     1       0.211  -2.794  -0.038  0.00  0.00    -0.215 NA
ATOM     25  N   UNL     1       3.474  -5.277  -0.098  0.00  0.00    -0.343 N 
ATOM     26  H   UNL     1       4.362  -4.887  -0.101  0.00  0.00    +0.144 HD
ATOM     27  H   UNL     1       3.367  -6.241  -0.108  0.00  0.00    +0.144 HD
ENDBRANCH  15  16
ENDBRANCH   1  15
TORSDOF 5
