REMARK  Name = ZINC35665035
REMARK  10 active torsions:
REMARK  status: ('A' for Active; 'I' for Inactive)
REMARK    1  A    between atoms: C_1  and  C_2
REMARK    2  A    between atoms: C_2  and  O_3
REMARK    3  A    between atoms: O_3  and  C_4
REMARK    4  A    between atoms: C_4  and  C_6
REMARK    5  A    between atoms: C_7  and  C_24
REMARK    6  A    between atoms: N_8  and  C_21
REMARK    7  A    between atoms: C_12  and  C_14
REMARK    8  A    between atoms: C_21  and  C_22
REMARK    9  A    between atoms: C_24  and  N_25
REMARK   10  A    between atoms: C_31  and  C_33
REMARK                            x       y       z     vdW  Elec       q    Type
REMARK                         _______ _______ _______ _____ _____    ______ ____
ROOT
ATOM      1  C   UNL     1       1.681  -2.140  -2.904  0.00  0.00    +0.080 C 
ATOM      2  C   UNL     1       1.871  -3.424  -3.277  0.00  0.00    +0.041 C 
ATOM      3  N   UNL     1       2.468  -3.731  -4.466  0.00  0.00    -0.254 N 
ATOM      4  C   UNL     1       2.905  -2.813  -5.337  0.00  0.00    +0.307 C 
ATOM      5  O   UNL     1       3.425  -3.183  -6.372  0.00  0.00    -0.252 OA
ATOM      6  N   UNL     1       2.786  -1.490  -5.104  0.00  0.00    -0.288 N 
ATOM      7  C   UNL     1       2.149  -1.054  -3.851  0.00  0.00    +0.145 C 
ATOM      8  H   UNL     1       3.110  -0.842  -5.749  0.00  0.00    +0.151 HD
ENDROOT
BRANCH   7   9
ATOM      9  C   UNL     1       3.134  -0.186  -3.112  0.00  0.00    -0.004 A 
ATOM     10  C   UNL     1       4.486  -0.468  -3.175  0.00  0.00    +0.007 A 
ATOM     11  C   UNL     1       5.391   0.328  -2.497  0.00  0.00    +0.000 A 
ATOM     12  C   UNL     1       4.944   1.407  -1.756  0.00  0.00    +0.001 A 
ATOM     13  C   UNL     1       3.592   1.689  -1.692  0.00  0.00    +0.020 A 
ATOM     14  C   UNL     1       2.687   0.896  -2.375  0.00  0.00    +0.046 A 
ATOM     15 CL   UNL     1       0.990   1.254  -2.301  0.00  0.00    -0.083 Cl
ENDBRANCH   7   9
BRANCH   1  16
ATOM     16  C   UNL     1       1.062  -1.821  -1.673  0.00  0.00    +0.339 C 
ATOM     17  O   UNL     1      -0.106  -1.482  -1.649  0.00  0.00    -0.245 OA
BRANCH  16  18
ATOM     18  O   UNL     1       1.767  -1.892  -0.524  0.00  0.00    -0.462 OA
BRANCH  18  20
ATOM     19  C   UNL     1       2.031  -1.663   1.867  0.00  0.00    +0.048 C 
ATOM     20  C   UNL     1       1.052  -1.664   0.691  0.00  0.00    +0.229 C 
ENDBRANCH  18  20
ENDBRANCH  16  18
ENDBRANCH   1  16
BRANCH   3  21
ATOM     21  C   UNL     1       2.642  -5.145  -4.808  0.00  0.00    +0.141 C 
BRANCH  21  22
ATOM     22  C   UNL     1       1.484  -5.603  -5.657  0.00  0.00    -0.015 C 
ATOM     23  C   UNL     1       1.706  -6.160  -6.822  0.00  0.00    +0.005 C 
ENDBRANCH  21  22
ENDBRANCH   3  21
BRANCH   2  24
ATOM     24  C   UNL     1       1.416  -4.536  -2.368  0.00  0.00    +0.136 C 
BRANCH  24  25
ATOM     25  N   UNL     1       2.586  -5.280  -1.881  0.00  0.00    -0.294 NA
ATOM     26  C   UNL     1       3.354  -4.480  -0.917  0.00  0.00    +0.104 C 
ATOM     27  C   UNL     1       4.655  -5.213  -0.572  0.00  0.00    +0.123 C 
ATOM     28  N   UNL     1       4.320  -6.574  -0.125  0.00  0.00    -0.299 N 
ATOM     29  C   UNL     1       3.439  -7.389  -0.975  0.00  0.00    +0.123 C 
ATOM     30  C   UNL     1       2.186  -6.570  -1.304  0.00  0.00    +0.104 C 
ATOM     31  C   UNL     1       4.808  -7.061   1.033  0.00  0.00    +0.219 C 
ATOM     32  O   UNL     1       5.534  -6.375   1.722  0.00  0.00    -0.275 OA
BRANCH  31  33
ATOM     33  C   UNL     1       4.452  -8.457   1.473  0.00  0.00    +0.075 C 
ATOM     34  C   UNL     1       5.039  -9.501   0.490  0.00  0.00    +0.013 C 
ATOM     35  C   UNL     1       5.125 -10.780   1.359  0.00  0.00    +0.001 C 
ATOM     36  C   UNL     1       5.554 -10.264   2.749  0.00  0.00    +0.001 C 
ATOM     37  C   UNL     1       5.126  -8.787   2.821  0.00  0.00    +0.013 C 
ENDBRANCH  31  33
ENDBRANCH  24  25
ENDBRANCH   2  24
TORSDOF 9
