REMARK  Name = ZINC40376894
REMARK  8 active torsions:
REMARK  status: ('A' for Active; 'I' for Inactive)
REMARK    1  A    between atoms: C_1  and  C_2
REMARK    2  A    between atoms: C_2  and  C_3
REMARK    3  A    between atoms: C_3  and  C_4
REMARK    4  A    between atoms: C_4  and  C_6
REMARK    5  A    between atoms: C_4  and  N_10
REMARK    6  A    between atoms: N_7  and  O_8
REMARK    7  A    between atoms: N_10  and  S_11
REMARK    8  A    between atoms: S_11  and  C_14
REMARK                            x       y       z     vdW  Elec       q    Type
REMARK                         _______ _______ _______ _____ _____    ______ ____
ROOT
ATOM      1  N   UNL     1      -0.834  -2.537  -1.256  0.00  0.00    -0.180 NA
ATOM      2  H   UNL     1      -0.995  -2.048  -2.077  0.00  0.00    +0.149 HD
ENDROOT
BRANCH   1   3
ATOM      3  S   UNL     1       0.094  -3.908  -1.277  0.00  0.00    +0.062 S 
ATOM      4  O   UNL     1       0.480  -4.117  -2.628  0.00  0.00    -0.153 OA
ATOM      5  O   UNL     1       1.042  -3.773  -0.226  0.00  0.00    -0.153 OA
BRANCH   3   6
ATOM      6  C   UNL     1      -0.955  -5.255  -0.839  0.00  0.00    +0.142 A 
ATOM      7  C   UNL     1      -1.100  -5.614   0.489  0.00  0.00    +0.070 A 
ATOM      8  C   UNL     1      -1.924  -6.671   0.833  0.00  0.00    +0.037 A 
ATOM      9  C   UNL     1      -2.602  -7.368  -0.150  0.00  0.00    +0.021 A 
ATOM     10  C   UNL     1      -2.457  -7.008  -1.478  0.00  0.00    +0.037 A 
ATOM     11  C   UNL     1      -1.637  -5.948  -1.822  0.00  0.00    +0.070 A 
ATOM     12 CL   UNL     1      -1.460  -5.493  -3.488  0.00  0.00    -0.081 Cl
ATOM     13 BR   UNL     1      -3.728  -8.813   0.320  0.00  0.00    -0.050 Br
ATOM     14 CL   UNL     1      -0.249  -4.740   1.724  0.00  0.00    -0.081 Cl
ENDBRANCH   3   6
ENDBRANCH   1   3
BRANCH   1  15
ATOM     15  C   UNL     1      -1.413  -2.063   0.004  0.00  0.00    +0.143 C 
BRANCH  15  16
ATOM     16  C   UNL     1      -2.820  -2.586   0.139  0.00  0.00    +0.150 C 
ATOM     17  N   UNL     1      -3.290  -3.408  -0.740  0.00  0.00    -0.075 NA
ATOM     18  N   UNL     1      -3.604  -2.187   1.198  0.00  0.00    -0.343 N 
ATOM     19  H   UNL     1      -3.251  -1.569   1.858  0.00  0.00    +0.144 HD
ATOM     20  H   UNL     1      -4.510  -2.523   1.285  0.00  0.00    +0.144 HD
BRANCH  17  21
ATOM     21  O   UNL     1      -4.613  -3.898  -0.613  0.00  0.00    -0.408 OA
ATOM     22  H   UNL     1      -4.875  -4.507  -1.317  0.00  0.00    +0.328 HD
ENDBRANCH  17  21
ENDBRANCH  15  16
BRANCH  15  23
ATOM     23  C   UNL     1      -1.433  -0.534   0.013  0.00  0.00    +0.028 C 
BRANCH  23  25
ATOM     24  C   UNL     1      -0.019   1.526   0.010  0.00  0.00    +0.004 C 
ATOM     25  C   UNL     1       0.002  -0.004   0.002  0.00  0.00    -0.001 C 
ENDBRANCH  23  25
ENDBRANCH  15  23
ENDBRANCH   1  15
TORSDOF 7
