REMARK  Name = ZINC60017835
REMARK  8 active torsions:
REMARK  status: ('A' for Active; 'I' for Inactive)
REMARK    1  A    between atoms: C_1  and  O_2
REMARK    2  A    between atoms: O_2  and  C_3
REMARK    3  A    between atoms: C_6  and  S_26
REMARK    4  A    between atoms: C_8  and  C_9
REMARK    5  A    between atoms: N_11  and  C_12
REMARK    6  A    between atoms: C_12  and  C_13
REMARK    7  A    between atoms: C_13  and  C_19
REMARK    8  A    between atoms: S_26  and  N_29
REMARK                            x       y       z     vdW  Elec       q    Type
REMARK                         _______ _______ _______ _____ _____    ______ ____
ROOT
ATOM      1  C   UNL     1       2.413  -3.401  -1.429  0.00  0.00    +0.248 C 
ATOM      2  O   UNL     1       2.128  -2.520  -0.640  0.00  0.00    -0.270 OA
ATOM      3  N   UNL     1       1.980  -4.660  -1.218  0.00  0.00    -0.310 N 
ATOM      4  H   UNL     1       2.207  -5.362  -1.847  0.00  0.00    +0.149 HD
ENDROOT
BRANCH   1  10
ATOM      5  C   UNL     1       3.684  -1.784  -2.840  0.00  0.00    +0.132 A 
ATOM      6  C   UNL     1       4.458  -1.506  -3.957  0.00  0.00    +0.048 A 
ATOM      7  C   UNL     1       4.775  -2.513  -4.847  0.00  0.00    +0.032 A 
ATOM      8  C   UNL     1       4.325  -3.805  -4.633  0.00  0.00    +0.106 A 
ATOM      9  C   UNL     1       3.555  -4.100  -3.528  0.00  0.00    +0.045 A 
ATOM     10  C   UNL     1       3.232  -3.092  -2.617  0.00  0.00    +0.080 A 
BRANCH   8  11
ATOM     11  S   UNL     1       4.737  -5.079  -5.779  0.00  0.00    +0.056 S 
ATOM     12  O   UNL     1       3.742  -6.084  -5.644  0.00  0.00    -0.153 OA
ATOM     13  O   UNL     1       5.011  -4.438  -7.017  0.00  0.00    -0.153 OA
BRANCH  11  14
ATOM     14  N   UNL     1       6.162  -5.752  -5.270  0.00  0.00    -0.204 NA
ATOM     15  H   UNL     1       6.597  -5.420  -4.469  0.00  0.00    +0.144 HD
ATOM     16  H   UNL     1       6.562  -6.479  -5.773  0.00  0.00    +0.144 HD
ENDBRANCH  11  14
ENDBRANCH   8  11
BRANCH   5  18
ATOM     17  C   UNL     1       3.867   0.511  -2.258  0.00  0.00    +0.277 C 
ATOM     18  O   UNL     1       3.371  -0.796  -1.965  0.00  0.00    -0.494 OA
ENDBRANCH   5  18
ENDBRANCH   1  10
BRANCH   3  19
ATOM     19  C   UNL     1       1.167  -4.967  -0.039  0.00  0.00    +0.116 C 
BRANCH  19  20
ATOM     20  C   UNL     1       0.709  -6.425  -0.101  0.00  0.00    +0.011 C 
ATOM     21  C   UNL     1      -0.202  -6.725   1.092  0.00  0.00    +0.013 C 
ATOM     22  C   UNL     1       0.566  -6.487   2.393  0.00  0.00    +0.001 C 
ATOM     23  C   UNL     1       1.787  -7.407   2.440  0.00  0.00    +0.000 C 
ATOM     24  C   UNL     1       2.698  -7.107   1.248  0.00  0.00    +0.001 C 
ATOM     25  C   UNL     1       1.930  -7.346  -0.053  0.00  0.00    +0.013 C 
BRANCH  20  26
ATOM     26  C   UNL     1      -0.048  -6.660  -1.383  0.00  0.00    -0.040 A 
ATOM     27  C   UNL     1       0.346  -7.669  -2.242  0.00  0.00    +0.007 A 
ATOM     28  C   UNL     1      -0.348  -7.885  -3.418  0.00  0.00    +0.038 A 
ATOM     29  C   UNL     1      -1.437  -7.092  -3.735  0.00  0.00    +0.123 A 
ATOM     30  C   UNL     1      -1.831  -6.082  -2.873  0.00  0.00    +0.038 A 
ATOM     31  C   UNL     1      -1.139  -5.870  -1.695  0.00  0.00    +0.007 A 
ATOM     32  F   UNL     1      -2.115  -7.302  -4.884  0.00  0.00    -0.205 F 
ENDBRANCH  20  26
ENDBRANCH  19  20
ENDBRANCH   3  19
TORSDOF 7
