REMARK  Name = ZINC63721852
REMARK  8 active torsions:
REMARK  status: ('A' for Active; 'I' for Inactive)
REMARK    1  A    between atoms: C_1  and  C_2
REMARK    2  A    between atoms: C_3  and  C_27
REMARK    3  A    between atoms: C_5  and  N_21
REMARK    4  A    between atoms: C_6  and  C_7
REMARK    5  A    between atoms: N_9  and  C_10
REMARK    6  A    between atoms: C_14  and  N_16
REMARK    7  A    between atoms: C_17  and  C_19
REMARK    8  A    between atoms: C_22  and  C_24
REMARK                            x       y       z     vdW  Elec       q    Type
REMARK                         _______ _______ _______ _____ _____    ______ ____
ROOT
ATOM      1  C   UNL     1       0.055  -0.156   2.535  0.00  0.00    +0.251 C 
ATOM      2  O   UNL     1      -1.000   0.097   3.087  0.00  0.00    -0.270 OA
ATOM      3  N   UNL     1       1.221   0.161   3.132  0.00  0.00    -0.281 N 
ATOM      4  H   UNL     1       2.062  -0.099   2.724  0.00  0.00    +0.155 HD
ENDROOT
BRANCH   1  10
ATOM      5  C   UNL     1       0.015   1.469  -0.006  0.00  0.00    +0.045 C 
ATOM      6  C   UNL     1       0.039  -0.037  -0.005  0.00  0.00    -0.027 A 
ATOM      7  C   UNL     1       0.049  -0.753  -1.145  0.00  0.00    -0.008 A 
ATOM      8  S   UNL     1       0.076  -2.437  -0.571  0.00  0.00    -0.078 S 
ATOM      9  C   UNL     1       0.074  -2.185   1.087  0.00  0.00    +0.084 A 
ATOM     10  C   UNL     1       0.058  -0.804   1.220  0.00  0.00    +0.069 A 
ATOM     11  C   UNL     1       0.039  -0.249  -2.565  0.00  0.00    +0.052 C 
BRANCH   9  12
ATOM     12  N   UNL     1       0.090  -3.138   2.095  0.00  0.00    -0.279 N 
ATOM     13  C   UNL     1       0.111  -4.448   1.782  0.00  0.00    +0.221 C 
ATOM     14  O   UNL     1       0.116  -4.795   0.620  0.00  0.00    -0.275 OA
ATOM     15  H   UNL     1       0.087  -2.861   3.024  0.00  0.00    +0.155 HD
BRANCH  13  16
ATOM     16  C   UNL     1       0.129  -5.484   2.877  0.00  0.00    +0.075 C 
ATOM     17  C   UNL     1       1.406  -6.308   3.049  0.00  0.00    +0.013 C 
ATOM     18  C   UNL     1       0.152  -6.955   2.457  0.00  0.00    +0.013 C 
ENDBRANCH  13  16
ENDBRANCH   9  12
ENDBRANCH   1  10
BRANCH   3  19
ATOM     19  C   UNL     1       1.219   0.865   4.342  0.00  0.00    +0.036 A 
ATOM     20  C   UNL     1       0.221   0.631   5.280  0.00  0.00    +0.026 A 
ATOM     21  C   UNL     1       0.218   1.325   6.475  0.00  0.00    +0.042 A 
ATOM     22  C   UNL     1       1.207   2.254   6.741  0.00  0.00    +0.145 A 
ATOM     23  C   UNL     1       2.208   2.492   5.805  0.00  0.00    +0.071 A 
ATOM     24  C   UNL     1       2.217   1.792   4.608  0.00  0.00    +0.049 A 
ATOM     25  F   UNL     1       1.200   2.932   7.910  0.00  0.00    -0.204 F 
BRANCH  23  26
ATOM     26  N   UNL     1       3.210   3.433   6.074  0.00  0.00    -0.283 N 
ATOM     27  C   UNL     1       3.724   4.174   5.073  0.00  0.00    +0.214 C 
ATOM     28  O   UNL     1       3.380   3.969   3.928  0.00  0.00    -0.276 OA
ATOM     29  C   UNL     1       4.727   5.258   5.376  0.00  0.00    +0.109 C 
ATOM     30  H   UNL     1       3.533   3.552   6.981  0.00  0.00    +0.155 HD
ENDBRANCH  23  26
ENDBRANCH   3  19
TORSDOF 5
