REMARK  Name = ZINC12358818
REMARK  8 active torsions:
REMARK  status: ('A' for Active; 'I' for Inactive)
REMARK    1  A    between atoms: C_1  and  C_2
REMARK    2  A    between atoms: C_4  and  C_15
REMARK    3  A    between atoms: C_4  and  O_16
REMARK    4  A    between atoms: C_5  and  C_13
REMARK    5  A    between atoms: C_5  and  O_14
REMARK    6  A    between atoms: C_6  and  C_11
REMARK    7  A    between atoms: C_6  and  O_12
REMARK    8  A    between atoms: C_7  and  O_10
REMARK                            x       y       z     vdW  Elec       q    Type
REMARK                         _______ _______ _______ _____ _____    ______ ____
ROOT
ATOM      1  C   UNL     1      -1.010  -0.107   3.814  0.00  0.00    +0.041 C 
ATOM      2  C   UNL     1      -0.697  -0.590   2.397  0.00  0.00    +0.153 C 
ATOM      3  C   UNL     1      -1.786  -0.100   1.439  0.00  0.00    +0.120 C 
ATOM      4  C   UNL     1      -1.435  -0.535   0.013  0.00  0.00    +0.127 C 
ATOM      5  C   UNL     1      -0.051   0.013  -0.350  0.00  0.00    +0.144 C 
ATOM      6  C   UNL     1       0.971  -0.480   0.676  0.00  0.00    +0.282 C 
ATOM      7  O   UNL     1       0.568  -0.068   1.984  0.00  0.00    -0.343 OA
ATOM      8  C   UNL     1       0.344  -0.478  -1.744  0.00  0.00    +0.050 C 
ATOM      9  C   UNL     1      -1.416  -2.063  -0.066  0.00  0.00    +0.047 C 
ATOM     10  C   UNL     1      -3.131  -0.707   1.842  0.00  0.00    +0.047 C 
ENDROOT
BRANCH   6  11
ATOM     11  O   UNL     1       1.044  -1.907   0.628  0.00  0.00    -0.365 OA
ATOM     12  H   UNL     1       1.674  -2.290   1.254  0.00  0.00    +0.213 HD
ENDBRANCH   6  11
BRANCH   5  13
ATOM     13  O   UNL     1      -0.087   1.442  -0.340  0.00  0.00    -0.381 OA
ATOM     14  H   UNL     1       0.757   1.858  -0.562  0.00  0.00    +0.210 HD
ENDBRANCH   5  13
BRANCH   4  15
ATOM     15  O   UNL     1      -2.408  -0.020  -0.898  0.00  0.00    -0.383 OA
ATOM     16  H   UNL     1      -2.243  -0.252  -1.822  0.00  0.00    +0.210 HD
ENDBRANCH   4  15
BRANCH   3  17
ATOM     17  O   UNL     1      -1.869   1.325   1.496  0.00  0.00    -0.383 OA
ATOM     18  H   UNL     1      -2.089   1.672   2.372  0.00  0.00    +0.210 HD
ENDBRANCH   3  17
TORSDOF 4
