REMARK  Name = ZINC22149785
REMARK  6 active torsions:
REMARK  status: ('A' for Active; 'I' for Inactive)
REMARK    1  A    between atoms: C_1  and  C_2
REMARK    2  A    between atoms: C_5  and  N_20
REMARK    3  A    between atoms: C_7  and  S_8
REMARK    4  A    between atoms: S_8  and  N_11
REMARK    5  A    between atoms: N_11  and  C_12
REMARK    6  A    between atoms: C_15  and  C_18
REMARK                            x       y       z     vdW  Elec       q    Type
REMARK                         _______ _______ _______ _____ _____    ______ ____
ROOT
ATOM      1  S   UNL     1      -0.290   0.198  -2.797  0.00  0.00    +0.073 S 
ATOM      2  O   UNL     1       0.800   1.106  -2.863  0.00  0.00    -0.150 OA
ATOM      3  O   UNL     1      -0.576  -0.727  -3.837  0.00  0.00    -0.150 OA
ENDROOT
BRANCH   1  10
ATOM      4  C   UNL     1       0.293   1.390  -0.081  0.00  0.00    +0.046 C 
ATOM      5  C   UNL     1       0.196  -0.113  -0.129  0.00  0.00    -0.024 A 
ATOM      6  C   UNL     1       0.366  -0.852   1.028  0.00  0.00    +0.007 A 
ATOM      7  C   UNL     1       0.278  -2.230   0.987  0.00  0.00    +0.023 A 
ATOM      8  C   UNL     1       0.018  -2.873  -0.217  0.00  0.00    +0.026 A 
ATOM      9  C   UNL     1      -0.151  -2.127  -1.376  0.00  0.00    +0.051 A 
ATOM     10  C   UNL     1      -0.068  -0.749  -1.328  0.00  0.00    +0.113 A 
BRANCH   8  11
ATOM     11  N   UNL     1      -0.072  -4.266  -0.261  0.00  0.00    -0.358 N 
ATOM     12  H   UNL     1      -0.277  -4.774  -1.215  0.00  0.00    +0.142 HD
ATOM     13  H   UNL     1       0.062  -4.855   0.658  0.00  0.00    +0.142 HD
ENDBRANCH   8  11
ENDBRANCH   1  10
BRANCH   1  14
ATOM     14  N   UNL     1      -1.656   1.111  -2.588  0.00  0.00    -0.216 N 
ATOM     15  H   UNL     1      -1.591   2.209  -2.608  0.00  0.00    +0.174 HD
BRANCH  14  16
ATOM     16  C   UNL     1      -2.885   0.490  -2.386  0.00  0.00    +0.048 A 
ATOM     17  C   UNL     1      -3.269  -0.569  -3.203  0.00  0.00    +0.026 A 
ATOM     18  C   UNL     1      -4.482  -1.189  -3.003  0.00  0.00    +0.021 A 
ATOM     19  C   UNL     1      -5.332  -0.747  -1.986  0.00  0.00    +0.052 A 
ATOM     20  C   UNL     1      -4.945   0.322  -1.171  0.00  0.00    +0.021 A 
ATOM     21  C   UNL     1      -3.729   0.934  -1.373  0.00  0.00    +0.026 A 
BRANCH  19  22
ATOM     22  C   UNL     1      -6.597  -1.386  -1.778  0.00  0.00    +0.099 C 
ATOM     23  N   UNL     1      -7.600  -1.893  -1.614  0.00  0.00    -0.191 NA
ENDBRANCH  19  22
ENDBRANCH  14  16
ENDBRANCH   1  14
TORSDOF 5
