REMARK  Name = ZINC00906619
REMARK  10 active torsions:
REMARK  status: ('A' for Active; 'I' for Inactive)
REMARK    1  A    between atoms: C_1  and  C_2
REMARK    2  A    between atoms: C_2  and  C_3
REMARK    3  A    between atoms: C_3  and  C_5
REMARK    4  A    between atoms: C_3  and  N_13
REMARK    5  A    between atoms: N_7  and  C_8
REMARK    6  A    between atoms: N_13  and  C_14
REMARK    7  A    between atoms: C_21  and  C_23
REMARK    8  A    between atoms: C_24  and  N_37
REMARK    9  A    between atoms: C_25  and  C_28
REMARK   10  A    between atoms: N_30  and  C_31
REMARK                            x       y       z     vdW  Elec       q    Type
REMARK                         _______ _______ _______ _____ _____    ______ ____
ROOT
ATOM      1  N   UNL     1      -3.567   2.536   0.108  0.00  0.00    -0.255 N 
ATOM      2  C   UNL     1      -2.722   1.500  -0.061  0.00  0.00    +0.261 C 
ATOM      3  O   UNL     1      -3.120   0.359   0.088  0.00  0.00    -0.269 OA
ENDROOT
BRANCH   1   4
ATOM      4  C   UNL     1      -3.140   3.840  -0.170  0.00  0.00    +0.038 A 
ATOM      5  C   UNL     1      -3.480   4.440  -1.376  0.00  0.00    +0.026 A 
ATOM      6  C   UNL     1      -3.063   5.729  -1.646  0.00  0.00    +0.040 A 
ATOM      7  C   UNL     1      -2.297   6.418  -0.721  0.00  0.00    +0.124 A 
ATOM      8  C   UNL     1      -1.953   5.819   0.479  0.00  0.00    +0.040 A 
ATOM      9  C   UNL     1      -2.373   4.533   0.756  0.00  0.00    +0.026 A 
ATOM     10  F   UNL     1      -1.886   7.676  -0.990  0.00  0.00    -0.205 F 
ENDBRANCH   1   4
BRANCH   2  11
ATOM     11  C   UNL     1      -1.325   1.746  -0.425  0.00  0.00    +0.116 A 
ATOM     12  C   UNL     1      -0.275   0.838  -0.570  0.00  0.00    +0.076 A 
ATOM     13  C   UNL     1       0.920   1.457  -0.935  0.00  0.00    +0.156 A 
ATOM     14  N   UNL     1       0.946   2.762  -1.094  0.00  0.00    -0.203 NA
ATOM     15  S   UNL     1      -0.511   3.285  -0.799  0.00  0.00    +0.019 S 
BRANCH  13  16
ATOM     16  C   UNL     1       2.142   0.657  -1.140  0.00  0.00    +0.265 C 
ATOM     17  O   UNL     1       2.110  -0.549  -0.991  0.00  0.00    -0.268 OA
ATOM     18  N   UNL     1       3.293   1.263  -1.492  0.00  0.00    -0.307 N 
ATOM     19  H   UNL     1       3.318   2.225  -1.611  0.00  0.00    +0.149 HD
BRANCH  18  20
ATOM     20  C   UNL     1       4.506   0.468  -1.696  0.00  0.00    +0.073 C 
ATOM     21  C   UNL     1       5.204   0.249  -0.352  0.00  0.00    +0.022 C 
ATOM     22  C   UNL     1       6.471  -0.581  -0.564  0.00  0.00    +0.002 C 
ATOM     23  C   UNL     1       7.414   0.161  -1.513  0.00  0.00    +0.000 C 
ATOM     24  C   UNL     1       6.717   0.380  -2.857  0.00  0.00    +0.002 C 
ATOM     25  C   UNL     1       5.449   1.210  -2.645  0.00  0.00    +0.022 C 
ENDBRANCH  18  20
ENDBRANCH  13  16
BRANCH  12  26
ATOM     26  N   UNL     1      -0.407  -0.531  -0.379  0.00  0.00    -0.355 N 
ATOM     27  H   UNL     1       0.359  -1.114  -0.498  0.00  0.00    +0.142 HD
ATOM     28  H   UNL     1      -1.266  -0.904  -0.125  0.00  0.00    +0.142 HD
ENDBRANCH  12  26
ENDBRANCH   2  11
BRANCH   1  29
ATOM     29  C   UNL     1      -4.932   2.298   0.584  0.00  0.00    +0.167 C 
BRANCH  29  30
ATOM     30  C   UNL     1      -5.109   2.932   1.940  0.00  0.00    +0.234 C 
ATOM     31  O   UNL     1      -4.186   3.524   2.458  0.00  0.00    -0.274 OA
ATOM     32  N   UNL     1      -6.293   2.841   2.577  0.00  0.00    -0.311 N 
ATOM     33  H   UNL     1      -7.031   2.367   2.163  0.00  0.00    +0.149 HD
BRANCH  32  34
ATOM     34  C   UNL     1      -6.465   3.457   3.895  0.00  0.00    +0.073 C 
ATOM     35  C   UNL     1      -6.041   2.468   5.000  0.00  0.00    +0.022 C 
ATOM     36  C   UNL     1      -7.053   2.721   6.145  0.00  0.00    +0.002 C 
ATOM     37  C   UNL     1      -8.377   2.970   5.382  0.00  0.00    +0.002 C 
ATOM     38  C   UNL     1      -7.951   3.776   4.138  0.00  0.00    +0.022 C 
ENDBRANCH  32  34
ENDBRANCH  29  30
BRANCH  29  40
ATOM     39  C   UNL     1      -5.874   2.149  -1.725  0.00  0.00    +0.006 C 
ATOM     40  C   UNL     1      -5.929   2.912  -0.400  0.00  0.00    +0.029 C 
ENDBRANCH  29  40
ENDBRANCH   1  29
TORSDOF 9
