REMARK  Name = ZINC35365916
REMARK  9 active torsions:
REMARK  status: ('A' for Active; 'I' for Inactive)
REMARK    1  A    between atoms: C_1  and  C_2
REMARK    2  A    between atoms: C_2  and  C_3
REMARK    3  A    between atoms: C_3  and  C_4
REMARK    4  A    between atoms: C_4  and  C_5
REMARK    5  A    between atoms: C_8  and  N_11
REMARK    6  A    between atoms: C_16  and  C_35
REMARK    7  A    between atoms: C_27  and  C_34
REMARK    8  A    between atoms: C_28  and  C_33
REMARK    9  A    between atoms: C_35  and  C_36
REMARK                            x       y       z     vdW  Elec       q    Type
REMARK                         _______ _______ _______ _____ _____    ______ ____
ROOT
ATOM      1  N   UNL     1       3.508  -3.921   5.831  0.00  0.00    -0.210 N 
ATOM      2  C   UNL     1       4.810  -4.227   5.822  0.00  0.00    +0.232 C 
ATOM      3  O   UNL     1       5.542  -4.145   4.859  0.00  0.00    -0.274 OA
ATOM      4  C   UNL     1       5.228  -4.692   7.199  0.00  0.00    +0.108 C 
ATOM      5  C   UNL     1       6.172  -3.642   7.822  0.00  0.00    +0.076 C 
ATOM      6  N   UNL     1       5.671  -3.454   9.209  0.00  0.00    -0.295 NA
ATOM      7  C   UNL     1       4.203  -3.507   9.074  0.00  0.00    +0.136 C 
ATOM      8  C   UNL     1       3.911  -4.604   8.020  0.00  0.00    +0.123 C 
ATOM      9  C   UNL     1       2.907  -4.089   7.015  0.00  0.00    +0.233 C 
ATOM     10  O   UNL     1       1.737  -3.866   7.244  0.00  0.00    -0.274 OA
ATOM     11  C   UNL     1       3.541  -3.821  10.386  0.00  0.00    +0.004 A 
ATOM     12  C   UNL     1       3.628  -4.879  11.263  0.00  0.00    +0.008 A 
ATOM     13  C   UNL     1       2.873  -4.881  12.422  0.00  0.00    +0.004 A 
ATOM     14  C   UNL     1       2.031  -3.819  12.697  0.00  0.00    -0.046 A 
ATOM     15  C   UNL     1       1.940  -2.758  11.821  0.00  0.00    -0.026 A 
ATOM     16  C   UNL     1       2.696  -2.747  10.652  0.00  0.00    +0.042 A 
ATOM     17  N   UNL     1       2.777  -1.804   9.625  0.00  0.00    -0.283 N 
ATOM     18  C   UNL     1       3.641  -2.175   8.661  0.00  0.00    +0.243 C 
ATOM     19  O   UNL     1       3.913  -1.555   7.654  0.00  0.00    -0.273 OA
ATOM     20  C   UNL     1       1.019  -1.606  12.130  0.00  0.00    +0.046 C 
ATOM     21  C   UNL     1       1.209  -3.822  13.960  0.00  0.00    +0.044 C 
ATOM     22  H   UNL     1       6.005  -4.188   9.817  0.00  0.00    +0.124 HD
ATOM     23  H   UNL     1       2.270  -0.977   9.609  0.00  0.00    +0.155 HD
ENDROOT
BRANCH   1  27
ATOM     24  C   UNL     1       1.493  -2.539   2.454  0.00  0.00    -0.047 A 
ATOM     25  C   UNL     1       2.470  -1.757   3.042  0.00  0.00    +0.005 A 
ATOM     26  C   UNL     1       3.139  -2.212   4.162  0.00  0.00    +0.024 A 
ATOM     27  C   UNL     1       2.830  -3.456   4.696  0.00  0.00    +0.044 A 
ATOM     28  C   UNL     1       1.849  -4.239   4.103  0.00  0.00    +0.024 A 
ATOM     29  C   UNL     1       1.179  -3.776   2.986  0.00  0.00    +0.005 A 
BRANCH  24  30
ATOM     30  C   UNL     1       0.764  -2.040   1.233  0.00  0.00    +0.035 C 
BRANCH  30  31
ATOM     31  C   UNL     1      -0.476  -1.255   1.664  0.00  0.00    +0.004 C 
BRANCH  31  33
ATOM     32  C   UNL     1      -2.456   0.037   0.856  0.00  0.00    +0.004 C 
ATOM     33  C   UNL     1      -1.216  -0.748   0.424  0.00  0.00    -0.003 C 
ENDBRANCH  31  33
ENDBRANCH  30  31
ENDBRANCH  24  30
ENDBRANCH   1  27
BRANCH   5  34
ATOM     34  C   UNL     1       7.610  -4.162   7.839  0.00  0.00    +0.115 C 
BRANCH  34  35
ATOM     35  C   UNL     1       8.531  -3.078   8.336  0.00  0.00    +0.212 C 
ATOM     36  O   UNL     1       8.081  -1.995   8.647  0.00  0.00    -0.276 OA
ATOM     37  N   UNL     1       9.855  -3.311   8.436  0.00  0.00    -0.329 N 
ATOM     38  H   UNL     1      10.215  -4.177   8.188  0.00  0.00    +0.145 HD
ATOM     39  H   UNL     1      10.447  -2.613   8.757  0.00  0.00    +0.145 HD
ENDBRANCH  34  35
ENDBRANCH   5  34
TORSDOF 6
