REMARK  Name = ZINC67398763
REMARK  6 active torsions:
REMARK  status: ('A' for Active; 'I' for Inactive)
REMARK    1  A    between atoms: C_1  and  C_2
REMARK    2  A    between atoms: C_2  and  C_3
REMARK    3  A    between atoms: C_3  and  C_4
REMARK    4  A    between atoms: C_7  and  N_10
REMARK    5  A    between atoms: C_11  and  C_13
REMARK    6  A    between atoms: N_15  and  C_16
REMARK                            x       y       z     vdW  Elec       q    Type
REMARK                         _______ _______ _______ _____ _____    ______ ____
ROOT
ATOM      1  C   UNL     1      -4.942  -4.330  -3.837  0.00  0.00    +0.303 C 
ATOM      2  O   UNL     1      -4.636  -3.304  -4.408  0.00  0.00    -0.265 OA
ATOM      3  N   UNL     1      -6.032  -5.021  -4.229  0.00  0.00    -0.278 N 
ATOM      4  H   UNL     1      -6.239  -5.874  -3.818  0.00  0.00    +0.155 HD
ENDROOT
BRANCH   3   5
ATOM      5  C   UNL     1      -6.863  -4.506  -5.229  0.00  0.00    +0.034 A 
ATOM      6  C   UNL     1      -8.235  -4.714  -5.166  0.00  0.00    +0.025 A 
ATOM      7  C   UNL     1      -9.056  -4.207  -6.153  0.00  0.00    +0.025 A 
ATOM      8  C   UNL     1      -8.510  -3.488  -7.209  0.00  0.00    +0.037 A 
ATOM      9  C   UNL     1      -7.138  -3.280  -7.271  0.00  0.00    -0.024 A 
ATOM     10  C   UNL     1      -6.317  -3.783  -6.282  0.00  0.00    +0.028 A 
ATOM     11  C   UNL     1      -6.549  -2.498  -8.417  0.00  0.00    +0.046 C 
ATOM     12  C   UNL     1      -7.358  -2.765  -9.686  0.00  0.00    +0.101 C 
ATOM     13  C   UNL     1      -8.827  -2.608  -9.401  0.00  0.00    +0.218 C 
ATOM     14  O   UNL     1      -9.558  -2.150 -10.253  0.00  0.00    -0.275 OA
ATOM     15  N   UNL     1      -9.339  -2.972  -8.211  0.00  0.00    -0.285 N 
ATOM     16  H   UNL     1     -10.291  -2.875  -8.046  0.00  0.00    +0.155 HD
ENDBRANCH   3   5
BRANCH   1  18
ATOM     17  N   UNL     1      -3.024  -4.137  -2.307  0.00  0.00    -0.305 N 
ATOM     18  C   UNL     1      -4.113  -4.828  -2.699  0.00  0.00    +0.300 C 
ATOM     19  O   UNL     1      -4.419  -5.854  -2.128  0.00  0.00    -0.265 OA
ATOM     20  H   UNL     1      -2.779  -3.317  -2.763  0.00  0.00    +0.149 HD
BRANCH  17  24
ATOM     21  C   UNL     1      -1.411  -2.076   0.011  0.00  0.00    -0.011 C 
ATOM     22  C   UNL     1      -0.809  -2.560  -1.310  0.00  0.00    +0.005 C 
ATOM     23  C   UNL     1      -0.783  -4.090  -1.328  0.00  0.00    +0.022 C 
ATOM     24  C   UNL     1      -2.209  -4.625  -1.191  0.00  0.00    +0.073 C 
ATOM     25  C   UNL     1      -2.811  -4.141   0.130  0.00  0.00    +0.022 C 
ATOM     26  C   UNL     1      -2.837  -2.612   0.148  0.00  0.00    +0.005 C 
BRANCH  21  27
ATOM     27  C   UNL     1      -1.436  -0.546   0.029  0.00  0.00    +0.003 C 
BRANCH  27  29
ATOM     28  C   UNL     1      -0.028   1.518   0.037  0.00  0.00    +0.004 C 
ATOM     29  C   UNL     1      -0.003  -0.012   0.018  0.00  0.00    -0.003 C 
ENDBRANCH  27  29
ENDBRANCH  21  27
ENDBRANCH  17  24
ENDBRANCH   1  18
TORSDOF 5
