REMARK  Name = ZINC20692894
REMARK  6 active torsions:
REMARK  status: ('A' for Active; 'I' for Inactive)
REMARK    1  A    between atoms: C_1  and  C_2
REMARK    2  A    between atoms: C_3  and  N_27
REMARK    3  A    between atoms: C_9  and  C_18
REMARK    4  A    between atoms: C_21  and  O_26
REMARK    5  A    between atoms: C_22  and  O_24
REMARK    6  A    between atoms: O_24  and  C_25
REMARK                            x       y       z     vdW  Elec       q    Type
REMARK                         _______ _______ _______ _____ _____    ______ ____
ROOT
ATOM      1  C   UNL     1      -1.871   4.879  -2.898  0.00  0.00    +0.048 C 
ATOM      2  C   UNL     1      -2.219   4.475  -1.488  0.00  0.00    +0.001 A 
ATOM      3  C   UNL     1      -3.540   4.418  -1.103  0.00  0.00    +0.131 A 
ATOM      4  C   UNL     1      -3.874   4.051   0.187  0.00  0.00    +0.033 A 
ATOM      5  C   UNL     1      -2.874   3.733   1.088  0.00  0.00    +0.008 A 
ATOM      6  C   UNL     1      -1.550   3.779   0.708  0.00  0.00    -0.019 A 
ATOM      7  C   UNL     1      -1.198   4.163  -0.589  0.00  0.00    +0.036 A 
ATOM      8  N   UNL     1       0.115   4.261  -1.046  0.00  0.00    -0.336 N 
ATOM      9  C   UNL     1       1.173   3.830  -0.117  0.00  0.00    +0.105 C 
ATOM     10  C   UNL     1       0.768   4.296   1.266  0.00  0.00    +0.029 C 
ATOM     11  C   UNL     1      -0.460   3.407   1.637  0.00  0.00    +0.049 C 
ATOM     12  C   UNL     1      -0.568   3.580   3.106  0.00  0.00    -0.023 C 
ATOM     13  C   UNL     1       0.641   3.842   3.591  0.00  0.00    -0.030 C 
ATOM     14  C   UNL     1       1.659   3.900   2.448  0.00  0.00    +0.033 C 
ATOM     15  H   UNL     1       0.380   4.636  -2.045  0.00  0.00    +0.147 HD
ENDROOT
BRANCH   9  16
ATOM     16  C   UNL     1       1.294   2.328  -0.138  0.00  0.00    -0.023 A 
ATOM     17  C   UNL     1       0.209   1.553  -0.506  0.00  0.00    +0.009 A 
ATOM     18  C   UNL     1       0.316   0.175  -0.527  0.00  0.00    +0.049 A 
ATOM     19  C   UNL     1       1.511  -0.433  -0.179  0.00  0.00    +0.158 A 
ATOM     20  C   UNL     1       2.603   0.346   0.192  0.00  0.00    +0.162 A 
ATOM     21  C   UNL     1       2.490   1.727   0.210  0.00  0.00    +0.054 A 
BRANCH  20  22
ATOM     22  O   UNL     1       3.778  -0.246   0.534  0.00  0.00    -0.491 OA
ATOM     23  C   UNL     1       4.856   0.617   0.903  0.00  0.00    +0.277 C 
ENDBRANCH  20  22
BRANCH  19  24
ATOM     24  O   UNL     1       1.617  -1.789  -0.198  0.00  0.00    -0.503 OA
ATOM     25  H   UNL     1       2.567  -2.270   0.079  0.00  0.00    +0.292 HD
ENDBRANCH  19  24
ENDBRANCH   9  16
BRANCH   3  26
ATOM     26  N   UNL     1      -4.606   4.750  -2.074  0.00  0.00    +0.057 N 
ATOM     27  O   UNL     1      -5.765   4.816  -1.707  0.00  0.00    -0.126 OA
ATOM     28  O   UNL     1      -4.324   4.958  -3.241  0.00  0.00    -0.126 OA
ENDBRANCH   3  26
TORSDOF 4
