REMARK  Name = ZINC40733056
REMARK  5 active torsions:
REMARK  status: ('A' for Active; 'I' for Inactive)
REMARK    1  A    between atoms: C_1  and  C_2
REMARK    2  A    between atoms: C_9  and  N_26
REMARK    3  A    between atoms: C_10  and  N_14
REMARK    4  A    between atoms: N_14  and  C_15
REMARK    5  A    between atoms: C_19  and  C_21
REMARK                            x       y       z     vdW  Elec       q    Type
REMARK                         _______ _______ _______ _____ _____    ______ ____
ROOT
ATOM      1  C   UNL     1      -1.359   0.220  -2.069  0.00  0.00    +0.007 C 
ATOM      2  C   UNL     1      -0.685  -0.553  -0.933  0.00  0.00    -0.011 C 
ATOM      3  C   UNL     1      -0.832  -2.056  -1.182  0.00  0.00    +0.022 C 
ATOM      4  C   UNL     1      -0.126  -2.826  -0.062  0.00  0.00    +0.107 C 
ATOM      5  N   UNL     1      -0.658  -2.374   1.231  0.00  0.00    -0.314 N 
ATOM      6  C   UNL     1      -0.648  -0.936   1.535  0.00  0.00    +0.107 C 
ATOM      7  C   UNL     1      -1.348  -0.187   0.397  0.00  0.00    +0.022 C 
ATOM      8  C   UNL     1      -1.161  -3.288   2.149  0.00  0.00    +0.147 A 
ATOM      9  C   UNL     1      -0.310  -3.921   3.058  0.00  0.00    +0.106 A 
ATOM     10  C   UNL     1      -0.867  -4.830   3.958  0.00  0.00    +0.149 A 
ATOM     11  N   UNL     1      -2.178  -5.057   3.917  0.00  0.00    -0.219 NA
ATOM     12  C   UNL     1      -2.946  -4.438   3.044  0.00  0.00    +0.225 A 
ATOM     13  N   UNL     1      -2.461  -3.569   2.180  0.00  0.00    -0.219 NA
ENDROOT
BRANCH   9  14
ATOM     14  N   UNL     1       1.068  -3.651   3.065  0.00  0.00    -0.353 N 
ATOM     15  H   UNL     1       1.428  -2.952   2.497  0.00  0.00    +0.143 HD
ATOM     16  H   UNL     1       1.660  -4.164   3.637  0.00  0.00    +0.143 HD
ENDBRANCH   9  14
BRANCH  10  17
ATOM     17  N   UNL     1      -0.065  -5.489   4.884  0.00  0.00    -0.298 N 
ATOM     18  H   UNL     1       0.875  -5.262   4.959  0.00  0.00    +0.154 HD
BRANCH  17  19
ATOM     19  C   UNL     1      -0.614  -6.478   5.706  0.00  0.00    +0.033 A 
ATOM     20  C   UNL     1      -1.648  -7.278   5.237  0.00  0.00    +0.025 A 
ATOM     21  C   UNL     1      -2.188  -8.254   6.051  0.00  0.00    +0.022 A 
ATOM     22  C   UNL     1      -1.700  -8.434   7.334  0.00  0.00    +0.053 A 
ATOM     23  C   UNL     1      -0.670  -7.639   7.804  0.00  0.00    +0.075 A 
ATOM     24  C   UNL     1      -0.122  -6.666   6.991  0.00  0.00    +0.037 A 
ATOM     25 CL   UNL     1      -2.382  -9.662   8.355  0.00  0.00    -0.083 Cl
BRANCH  23  26
ATOM     26  C   UNL     1      -0.142  -7.838   9.201  0.00  0.00    +0.419 C 
ATOM     27  F   UNL     1       0.888  -6.924   9.445  0.00  0.00    -0.166 F 
ATOM     28  F   UNL     1      -1.174  -7.636  10.123  0.00  0.00    -0.166 F 
ATOM     29  F   UNL     1       0.350  -9.141   9.331  0.00  0.00    -0.166 F 
ENDBRANCH  23  26
ENDBRANCH  17  19
ENDBRANCH  10  17
TORSDOF 4
