REMARK  Name = ZINC20298739
REMARK  4 active torsions:
REMARK  status: ('A' for Active; 'I' for Inactive)
REMARK    1  A    between atoms: C_3  and  O_12
REMARK    2  A    between atoms: C_4  and  N_9
REMARK    3  A    between atoms: C_6  and  C_7
REMARK    4  A    between atoms: O_12  and  C_13
REMARK                            x       y       z     vdW  Elec       q    Type
REMARK                         _______ _______ _______ _____ _____    ______ ____
ROOT
ATOM      1  C   UNL     1       0.949   7.227  -0.176  0.00  0.00    +0.015 A 
ATOM      2  C   UNL     1       1.018   5.856  -0.078  0.00  0.00    +0.049 A 
ATOM      3  C   UNL     1       2.255   5.220  -0.095  0.00  0.00    +0.159 A 
ATOM      4  C   UNL     1       3.425   5.965  -0.205  0.00  0.00    +0.169 A 
ATOM      5  C   UNL     1       3.366   7.326  -0.309  0.00  0.00    +0.047 A 
ATOM      6  C   UNL     1       2.126   7.976  -0.293  0.00  0.00    +0.017 A 
ENDROOT
BRANCH   4   7
ATOM      7  N   UNL     1       4.737   5.281  -0.216  0.00  0.00    +0.060 N 
ATOM      8  O   UNL     1       5.762   5.931  -0.313  0.00  0.00    -0.126 OA
ATOM      9  O   UNL     1       4.792   4.067  -0.130  0.00  0.00    -0.126 OA
ENDBRANCH   4   7
BRANCH   6  10
ATOM     10  C   UNL     1       2.060   9.440  -0.398  0.00  0.00    +0.258 C 
ATOM     11  O   UNL     1       3.081  10.087  -0.499  0.00  0.00    -0.296 OA
ENDBRANCH   6  10
BRANCH   3  12
ATOM     12  O   UNL     1       2.322   3.868   0.001  0.00  0.00    -0.453 OA
BRANCH  12  13
ATOM     13  C   UNL     1       1.156   3.170  -0.009  0.00  0.00    +0.143 A 
ATOM     14  C   UNL     1       0.591   2.744   1.185  0.00  0.00    +0.049 A 
ATOM     15  C   UNL     1      -0.593   2.033   1.173  0.00  0.00    +0.023 A 
ATOM     16  C   UNL     1      -1.220   1.751  -0.029  0.00  0.00    +0.042 A 
ATOM     17  C   UNL     1      -0.656   2.170  -1.220  0.00  0.00    +0.039 A 
ATOM     18  C   UNL     1       0.529   2.881  -1.213  0.00  0.00    +0.061 A 
ATOM     19 BR   UNL     1       1.295   3.460  -2.842  0.00  0.00    -0.046 Br
ATOM     20 CL   UNL     1      -2.713   0.865  -0.040  0.00  0.00    -0.084 Cl
ENDBRANCH  12  13
ENDBRANCH   3  12
TORSDOF 4
