REMARK  Name = ZINC42413841
REMARK  4 active torsions:
REMARK  status: ('A' for Active; 'I' for Inactive)
REMARK    1  A    between atoms: C_6  and  N_7
REMARK    2  A    between atoms: N_7  and  S_8
REMARK    3  A    between atoms: S_8  and  C_11
REMARK    4  A    between atoms: C_13  and  N_19
REMARK                            x       y       z     vdW  Elec       q    Type
REMARK                         _______ _______ _______ _____ _____    ______ ____
ROOT
ATOM      1  C   UNL     1      -5.190   1.606   0.034  0.00  0.00    +0.149 A 
ATOM      2  C   UNL     1      -6.040   1.679   1.120  0.00  0.00    +0.054 A 
ATOM      3  C   UNL     1      -7.227   0.959   1.122  0.00  0.00    +0.028 A 
ATOM      4  C   UNL     1      -7.558   0.165   0.031  0.00  0.00    +0.045 A 
ATOM      5  C   UNL     1      -6.704   0.095  -1.054  0.00  0.00    +0.080 A 
ATOM      6  C   UNL     1      -5.523   0.819  -1.055  0.00  0.00    +0.168 A 
ATOM      7  F   UNL     1      -4.692   0.753  -2.119  0.00  0.00    -0.202 F 
ATOM      8 CL   UNL     1      -7.116  -0.896  -2.419  0.00  0.00    -0.080 Cl
ENDROOT
BRANCH   1   9
ATOM      9  S   UNL     1      -3.684   2.520   0.032  0.00  0.00    +0.096 S 
ATOM     10  O   UNL     1      -3.617   3.196   1.280  0.00  0.00    -0.148 OA
ATOM     11  O   UNL     1      -3.628   3.208  -1.211  0.00  0.00    -0.148 OA
BRANCH   9  12
ATOM     12  N   UNL     1      -2.444   1.422   0.021  0.00  0.00    -0.078 NA
BRANCH  12  18
ATOM     13  C   UNL     1      -0.013   1.076   0.008  0.00  0.00    +0.068 A 
ATOM     14  C   UNL     1       1.106   1.915   0.002  0.00  0.00    +0.136 A 
ATOM     15  N   UNL     1       0.689   3.155   0.012  0.00  0.00    -0.181 NA
ATOM     16  H   UNL     1      -1.284   3.934   0.034  0.00  0.00    +0.190 HD
ATOM     17  N   UNL     1      -0.711   3.151   0.024  0.00  0.00    -0.261 N 
ATOM     18  C   UNL     1      -1.124   1.863   0.017  0.00  0.00    +0.158 A 
ENDBRANCH  12  18
ENDBRANCH   9  12
ENDBRANCH   1   9
BRANCH   3  19
ATOM     19  N   UNL     1      -8.089   1.031   2.221  0.00  0.00    -0.358 N 
ATOM     20  H   UNL     1      -7.857   1.585   2.983  0.00  0.00    +0.142 HD
ATOM     21  H   UNL     1      -8.918   0.528   2.221  0.00  0.00    +0.142 HD
ENDBRANCH   3  19
TORSDOF 4
