REMARK  Name = ZINC10212278
REMARK  9 active torsions:
REMARK  status: ('A' for Active; 'I' for Inactive)
REMARK    1  A    between atoms: C_1  and  C_2
REMARK    2  A    between atoms: C_5  and  N_9
REMARK    3  A    between atoms: C_7  and  C_8
REMARK    4  A    between atoms: C_13  and  S_15
REMARK    5  A    between atoms: S_15  and  C_16
REMARK    6  A    between atoms: C_16  and  C_18
REMARK    7  A    between atoms: C_16  and  C_21
REMARK    8  A    between atoms: C_18  and  C_19
REMARK    9  A    between atoms: C_18  and  C_20
REMARK                            x       y       z     vdW  Elec       q    Type
REMARK                         _______ _______ _______ _____ _____    ______ ____
ROOT
ATOM      1  N   UNL     1      -2.454   3.823   0.047  0.00  0.00    -0.292 N 
ATOM      2  C   UNL     1      -3.648   3.118  -0.050  0.00  0.00    +0.187 A 
ATOM      3  N   UNL     1      -3.851   1.815  -0.073  0.00  0.00    -0.125 NA
ATOM      4  N   UNL     1      -5.131   1.323  -0.176  0.00  0.00    -0.133 NA
ATOM      5  C   UNL     1      -6.151   2.157  -0.250  0.00  0.00    +0.161 A 
ATOM      6  S   UNL     1      -5.320   3.736  -0.168  0.00  0.00    -0.024 S 
ATOM      7  H   UNL     1      -2.466   4.789   0.137  0.00  0.00    +0.154 HD
ENDROOT
BRANCH   1  12
ATOM      8  C   UNL     1       2.492   1.050  -0.084  0.00  0.00    +0.044 C 
ATOM      9  C   UNL     1       1.178   1.787  -0.050  0.00  0.00    -0.047 A 
ATOM     10  C   UNL     1       0.058   1.228  -0.638  0.00  0.00    +0.005 A 
ATOM     11  C   UNL     1      -1.147   1.903  -0.614  0.00  0.00    +0.023 A 
ATOM     12  C   UNL     1      -1.235   3.140   0.014  0.00  0.00    +0.033 A 
ATOM     13  C   UNL     1      -0.108   3.698   0.604  0.00  0.00    +0.027 A 
ATOM     14  C   UNL     1       1.095   3.020   0.570  0.00  0.00    -0.046 A 
ATOM     15  C   UNL     1       2.318   3.625   1.210  0.00  0.00    +0.044 C 
ENDBRANCH   1  12
BRANCH   5  16
ATOM     16  S   UNL     1      -7.872   1.806  -0.386  0.00  0.00    -0.084 S 
BRANCH  16  17
ATOM     17  C   UNL     1      -7.951  -0.006  -0.403  0.00  0.00    +0.142 C 
BRANCH  17  18
ATOM     18  C   UNL     1      -9.392  -0.446  -0.393  0.00  0.00    +0.234 C 
ATOM     19  O   UNL     1     -10.254   0.291  -0.821  0.00  0.00    -0.274 OA
ATOM     20  N   UNL     1      -9.723  -1.660   0.091  0.00  0.00    -0.239 N 
ATOM     21  C   UNL     1     -11.012  -2.054   0.100  0.00  0.00    +0.303 C 
ATOM     22  O   UNL     1     -11.876  -1.315  -0.329  0.00  0.00    -0.253 OA
ATOM     23  N   UNL     1     -11.343  -3.267   0.584  0.00  0.00    -0.313 N 
ATOM     24  H   UNL     1      -9.033  -2.250   0.433  0.00  0.00    +0.159 HD
ATOM     25  H   UNL     1     -10.653  -3.857   0.926  0.00  0.00    +0.146 HD
ATOM     26  H   UNL     1     -12.270  -3.551   0.590  0.00  0.00    +0.146 HD
ENDBRANCH  17  18
BRANCH  17  27
ATOM     27  C   UNL     1      -7.265  -0.534  -1.665  0.00  0.00    +0.005 C 
ATOM     28  C   UNL     1      -7.331  -2.063  -1.679  0.00  0.00    +0.009 C 
ATOM     29  C   UNL     1      -7.976   0.019  -2.901  0.00  0.00    +0.009 C 
ENDBRANCH  17  27
ENDBRANCH  16  17
ENDBRANCH   5  16
TORSDOF 5
