REMARK  Name = ZINC14240692
REMARK  12 active torsions:
REMARK  status: ('A' for Active; 'I' for Inactive)
REMARK    1  A    between atoms: C_1  and  C_2
REMARK    2  A    between atoms: C_2  and  C_4
REMARK    3  A    between atoms: C_2  and  S_16
REMARK    4  A    between atoms: N_6  and  N_7
REMARK    5  A    between atoms: C_8  and  C_10
REMARK    6  A    between atoms: S_16  and  C_17
REMARK    7  A    between atoms: C_20  and  C_23
REMARK    8  A    between atoms: N_21  and  N_22
REMARK    9  A    between atoms: C_26  and  C_29
REMARK   10  A    between atoms: C_29  and  C_30
REMARK   11  A    between atoms: C_29  and  C_31
REMARK   12  A    between atoms: C_29  and  C_32
REMARK                            x       y       z     vdW  Elec       q    Type
REMARK                         _______ _______ _______ _____ _____    ______ ____
ROOT
ATOM      1  C   UNL     1      -0.616   3.823   1.333  0.00  0.00    +0.209 A 
ATOM      2  N   UNL     1       0.024   4.428   0.357  0.00  0.00    -0.121 NA
ATOM      3  N   UNL     1       0.018   5.699   0.548  0.00  0.00    -0.127 NA
ATOM      4  C   UNL     1      -0.625   5.983   1.657  0.00  0.00    +0.182 A 
ATOM      5  N   UNL     1      -1.056   4.790   2.190  0.00  0.00    -0.224 N 
ENDROOT
BRANCH   4   6
ATOM      6  C   UNL     1      -0.849   7.331   2.222  0.00  0.00    +0.021 A 
ATOM      7  C   UNL     1      -1.274   7.474   3.544  0.00  0.00    +0.012 A 
ATOM      8  C   UNL     1      -1.476   8.735   4.066  0.00  0.00    +0.005 A 
ATOM      9  C   UNL     1      -1.270   9.855   3.281  0.00  0.00    -0.042 A 
ATOM     10  C   UNL     1      -0.854   9.719   1.968  0.00  0.00    +0.005 A 
ATOM     11  C   UNL     1      -0.643   8.464   1.434  0.00  0.00    +0.012 A 
BRANCH   9  12
ATOM     12  C   UNL     1      -1.498  11.228   3.857  0.00  0.00    -0.013 C 
ATOM     13  C   UNL     1      -2.580  11.947   3.048  0.00  0.00    +0.015 C 
ATOM     14  C   UNL     1      -1.950  11.102   5.313  0.00  0.00    +0.015 C 
ATOM     15  C   UNL     1      -0.197  12.031   3.794  0.00  0.00    +0.015 C 
ENDBRANCH   9  12
ENDBRANCH   4   6
BRANCH   5  16
ATOM     16  N   UNL     1      -1.772   4.611   3.340  0.00  0.00    -0.295 N 
ATOM     17  H   UNL     1      -1.159   4.496   4.133  0.00  0.00    +0.163 HD
ATOM     18  H   UNL     1      -2.415   5.374   3.488  0.00  0.00    +0.163 HD
ENDBRANCH   5  16
BRANCH   1  19
ATOM     19  S   UNL     1      -0.866   2.087   1.500  0.00  0.00    -0.072 S 
BRANCH  19  21
ATOM     20  C   UNL     1      -0.758   2.010  -1.229  0.00  0.00    +0.029 C 
ATOM     21  C   UNL     1      -0.018   1.503   0.010  0.00  0.00    +0.138 C 
BRANCH  21  22
ATOM     22  C   UNL     1       0.002  -0.004   0.002  0.00  0.00    +0.242 C 
ATOM     23  O   UNL     1      -0.844  -0.625   0.609  0.00  0.00    -0.273 OA
ATOM     24  N   UNL     1       0.961  -0.661  -0.680  0.00  0.00    -0.233 N 
ATOM     25  H   UNL     1       1.638  -0.164  -1.166  0.00  0.00    +0.173 HD
BRANCH  24  26
ATOM     26  N   UNL     1       0.980  -2.062  -0.688  0.00  0.00    -0.230 N 
ATOM     27  C   UNL     1       1.938  -2.719  -1.370  0.00  0.00    +0.260 C 
ATOM     28  O   UNL     1       2.787  -2.097  -1.979  0.00  0.00    -0.269 OA
ATOM     29  H   UNL     1       0.303  -2.559  -0.202  0.00  0.00    +0.173 HD
BRANCH  27  30
ATOM     30  C   UNL     1       1.959  -4.198  -1.378  0.00  0.00    +0.038 A 
ATOM     31  C   UNL     1       0.990  -4.916  -0.676  0.00  0.00    +0.013 A 
ATOM     32  C   UNL     1       1.011  -6.295  -0.692  0.00  0.00    +0.001 A 
ATOM     33  C   UNL     1       1.996  -6.966  -1.393  0.00  0.00    +0.000 A 
ATOM     34  C   UNL     1       2.963  -6.261  -2.087  0.00  0.00    +0.001 A 
ATOM     35  C   UNL     1       2.950  -4.881  -2.084  0.00  0.00    +0.013 A 
ENDBRANCH  27  30
ENDBRANCH  24  26
ENDBRANCH  21  22
ENDBRANCH  19  21
ENDBRANCH   1  19
TORSDOF 8
