REMARK  Name = ZINC40950337
REMARK  4 active torsions:
REMARK  status: ('A' for Active; 'I' for Inactive)
REMARK    1  A    between atoms: C_4  and  N_7
REMARK    2  A    between atoms: C_10  and  C_14
REMARK    3  A    between atoms: C_14  and  N_15
REMARK    4  A    between atoms: N_15  and  C_16
REMARK                            x       y       z     vdW  Elec       q    Type
REMARK                         _______ _______ _______ _____ _____    ______ ____
ROOT
ATOM      1  N   UNL     1       7.738  -2.972  -1.481  0.00  0.00    -0.345 N 
ATOM      2  H   UNL     1       7.158  -2.708  -2.212  0.00  0.00    +0.146 HD
ENDROOT
BRANCH   1   3
ATOM      3  C   UNL     1       8.935  -3.560  -1.742  0.00  0.00    +0.081 C 
ATOM      4  C   UNL     1       9.377  -3.675  -3.041  0.00  0.00    +0.058 C 
ATOM      5  C   UNL     1      10.586  -4.460  -3.367  0.00  0.00    +0.001 A 
ATOM      6  C   UNL     1      11.322  -5.111  -2.385  0.00  0.00    +0.023 A 
ATOM      7  C   UNL     1      12.444  -5.833  -2.740  0.00  0.00    +0.014 A 
ATOM      8  C   UNL     1      12.840  -5.912  -4.068  0.00  0.00    +0.015 A 
ATOM      9  C   UNL     1      12.122  -5.274  -5.056  0.00  0.00    +0.014 A 
ATOM     10  C   UNL     1      10.985  -4.539  -4.718  0.00  0.00    +0.045 A 
ATOM     11  C   UNL     1      10.191  -3.845  -5.740  0.00  0.00    +0.251 C 
ATOM     12  O   UNL     1      10.530  -3.910  -6.906  0.00  0.00    -0.270 OA
ATOM     13  N   UNL     1       9.097  -3.140  -5.408  0.00  0.00    -0.248 N 
ATOM     14  C   UNL     1       8.657  -3.027  -4.144  0.00  0.00    +0.252 C 
ATOM     15  O   UNL     1       7.655  -2.377  -3.911  0.00  0.00    -0.270 OA
ATOM     16  I   UNL     1      13.558  -6.816  -1.263  0.00  0.00    -0.044 I 
ATOM     17  H   UNL     1       8.600  -2.696  -6.113  0.00  0.00    +0.158 HD
ENDBRANCH   1   3
BRANCH   1  18
ATOM     18  C   UNL     1       7.325  -2.736  -0.096  0.00  0.00    +0.136 C 
BRANCH  18  22
ATOM     19  N   UNL     1       3.511  -0.852  -0.058  0.00  0.00    -0.284 N 
ATOM     20  C   UNL     1       4.636  -0.102  -0.193  0.00  0.00    +0.095 A 
ATOM     21  C   UNL     1       5.857  -0.685  -0.207  0.00  0.00    +0.023 A 
ATOM     22  C   UNL     1       5.970  -2.077  -0.081  0.00  0.00    -0.024 A 
ATOM     23  C   UNL     1       4.839  -2.828   0.054  0.00  0.00    +0.075 A 
ATOM     24  C   UNL     1       3.587  -2.190   0.070  0.00  0.00    +0.256 A 
ATOM     25  O   UNL     1       2.568  -2.850   0.195  0.00  0.00    -0.267 OA
BRANCH  19  29
ATOM     26  C   UNL     1      -0.216   1.012  -0.024  0.00  0.00    +0.000 A 
ATOM     27  C   UNL     1       0.167   0.217   1.040  0.00  0.00    +0.002 A 
ATOM     28  C   UNL     1       1.402  -0.402   1.032  0.00  0.00    +0.026 A 
ATOM     29  C   UNL     1       2.258  -0.226  -0.047  0.00  0.00    +0.049 A 
ATOM     30  C   UNL     1       1.870   0.573  -1.115  0.00  0.00    +0.026 A 
ATOM     31  C   UNL     1       0.634   1.190  -1.100  0.00  0.00    +0.002 A 
ENDBRANCH  19  29
ENDBRANCH  18  22
ENDBRANCH   1  18
TORSDOF 4
