REMARK  Name = ZINC42435128
REMARK  4 active torsions:
REMARK  status: ('A' for Active; 'I' for Inactive)
REMARK    1  A    between atoms: C_3  and  C_20
REMARK    2  A    between atoms: C_11  and  O_19
REMARK    3  A    between atoms: C_14  and  C_16
REMARK    4  A    between atoms: C_20  and  O_21
REMARK                            x       y       z     vdW  Elec       q    Type
REMARK                         _______ _______ _______ _____ _____    ______ ____
ROOT
ATOM      1  C   UNL     1      -0.063   1.581  -0.103  0.00  0.00    +0.021 C 
ATOM      2  C   UNL     1       1.454   1.904  -0.059  0.00  0.00    +0.026 C 
ATOM      3  C   UNL     1       2.075   0.767  -0.897  0.00  0.00    +0.103 C 
ATOM      4  N   UNL     1       1.116  -0.348  -0.897  0.00  0.00    -0.280 N 
ATOM      5  C   UNL     1      -0.052   0.032  -0.082  0.00  0.00    +0.110 C 
ATOM      6  C   UNL     1       1.278  -1.523  -1.538  0.00  0.00    +0.306 C 
ATOM      7  O   UNL     1       2.231  -1.687  -2.275  0.00  0.00    -0.252 OA
ATOM      8  N   UNL     1       0.385  -2.516  -1.360  0.00  0.00    -0.269 N 
ATOM      9  C   UNL     1      -0.848  -2.429  -0.556  0.00  0.00    +0.141 C 
ATOM     10  C   UNL     1      -1.167  -3.892  -0.160  0.00  0.00    +0.134 C 
ATOM     11  C   UNL     1      -0.750  -4.660  -1.442  0.00  0.00    +0.067 C 
ATOM     12  C   UNL     1       0.474  -3.863  -1.942  0.00  0.00    +0.193 C 
ENDROOT
BRANCH  12  13
ATOM     13  C   UNL     1       0.453  -3.775  -3.446  0.00  0.00    +0.376 C 
ATOM     14  O   UNL     1       0.699  -4.761  -4.119  0.00  0.00    -0.244 OA
ATOM     15  O   UNL     1       0.188  -2.716  -3.990  0.00  0.00    -0.244 OA
ENDBRANCH  12  13
BRANCH  10  16
ATOM     16  O   UNL     1      -2.561  -4.059   0.106  0.00  0.00    -0.390 OA
ATOM     17  H   UNL     1      -2.888  -3.521   0.841  0.00  0.00    +0.210 HD
ENDBRANCH  10  16
BRANCH   3  18
ATOM     18  C   UNL     1       3.397   0.321  -0.270  0.00  0.00    +0.178 C 
BRANCH  18  19
ATOM     19  O   UNL     1       3.186  -0.006   1.105  0.00  0.00    -0.393 OA
ATOM     20  H   UNL     1       3.984  -0.298   1.567  0.00  0.00    +0.209 HD
ENDBRANCH  18  19
ENDBRANCH   3  18
TORSDOF 4
