REMARK  Name = ZINC12771899
REMARK  15 active torsions:
REMARK  status: ('A' for Active; 'I' for Inactive)
REMARK    1  A    between atoms: C_1  and  C_2
REMARK    2  A    between atoms: C_2  and  C_3
REMARK    3  A    between atoms: C_3  and  N_4
REMARK    4  A    between atoms: N_4  and  C_5
REMARK    5  A    between atoms: C_8  and  S_27
REMARK    6  A    between atoms: C_10  and  N_11
REMARK    7  A    between atoms: N_11  and  S_12
REMARK    8  A    between atoms: S_12  and  C_15
REMARK    9  A    between atoms: C_16  and  C_26
REMARK   10  A    between atoms: C_18  and  C_22
REMARK   11  A    between atoms: C_20  and  C_21
REMARK   12  A    between atoms: C_22  and  C_23
REMARK   13  A    between atoms: C_22  and  C_24
REMARK   14  A    between atoms: C_22  and  C_25
REMARK   15  A    between atoms: S_27  and  N_30
REMARK                            x       y       z     vdW  Elec       q    Type
REMARK                         _______ _______ _______ _____ _____    ______ ____
ROOT
ATOM      1  C   UNL     1       6.234   0.069  -1.052  0.00  0.00    +0.050 A 
ATOM      2  C   UNL     1       6.738   1.038  -1.906  0.00  0.00    +0.027 A 
ATOM      3  C   UNL     1       5.907   1.645  -2.830  0.00  0.00    +0.030 A 
ATOM      4  C   UNL     1       4.575   1.283  -2.912  0.00  0.00    +0.107 A 
ATOM      5  C   UNL     1       4.066   0.313  -2.068  0.00  0.00    +0.054 A 
ATOM      6  C   UNL     1       4.891  -0.300  -1.138  0.00  0.00    +0.071 A 
ENDROOT
BRANCH   4   7
ATOM      7  S   UNL     1       3.524   2.060  -4.093  0.00  0.00    +0.056 S 
ATOM      8  O   UNL     1       4.366   2.543  -5.130  0.00  0.00    -0.153 OA
ATOM      9  O   UNL     1       2.453   1.159  -4.338  0.00  0.00    -0.153 OA
BRANCH   7  10
ATOM     10  N   UNL     1       2.865   3.391  -3.360  0.00  0.00    -0.204 NA
ATOM     11  H   UNL     1       3.093   3.602  -2.441  0.00  0.00    +0.144 HD
ATOM     12  H   UNL     1       2.251   3.960  -3.850  0.00  0.00    +0.144 HD
ENDBRANCH   7  10
ENDBRANCH   4   7
BRANCH   1  13
ATOM     13  N   UNL     1       7.071  -0.542  -0.111  0.00  0.00    -0.342 N 
ATOM     14  H   UNL     1       6.718  -1.223   0.483  0.00  0.00    +0.146 HD
BRANCH  13  15
ATOM     15  C   UNL     1       8.481  -0.152  -0.023  0.00  0.00    +0.101 C 
BRANCH  15  17
ATOM     16  C   UNL     1      10.639  -0.558   1.169  0.00  0.00    +0.005 C 
ATOM     17  C   UNL     1       9.166  -0.965   1.077  0.00  0.00    +0.015 C 
ENDBRANCH  15  17
ENDBRANCH  13  15
ENDBRANCH   1  13
BRANCH   6  18
ATOM     18  N   UNL     1       4.378  -1.283  -0.283  0.00  0.00    -0.214 N 
ATOM     19  H   UNL     1       4.467  -2.221  -0.513  0.00  0.00    +0.174 HD
BRANCH  18  20
ATOM     20  S   UNL     1       3.617  -0.843   1.121  0.00  0.00    +0.073 S 
ATOM     21  O   UNL     1       4.477   0.078   1.778  0.00  0.00    -0.150 OA
ATOM     22  O   UNL     1       3.175  -2.045   1.737  0.00  0.00    -0.150 OA
BRANCH  20  23
ATOM     23  C   UNL     1       2.169   0.053   0.670  0.00  0.00    +0.114 A 
ATOM     24  C   UNL     1       2.219   1.429   0.541  0.00  0.00    -0.023 A 
ATOM     25  C   UNL     1       1.083   2.132   0.188  0.00  0.00    +0.009 A 
ATOM     26  C   UNL     1      -0.104   1.460  -0.037  0.00  0.00    -0.041 A 
ATOM     27  C   UNL     1      -0.154   0.084   0.091  0.00  0.00    +0.009 A 
ATOM     28  C   UNL     1       0.982  -0.619   0.445  0.00  0.00    -0.023 A 
ATOM     29  C   UNL     1       0.927  -2.119   0.585  0.00  0.00    +0.046 C 
ATOM     30  C   UNL     1       3.513   2.161   0.787  0.00  0.00    +0.046 C 
BRANCH  26  31
ATOM     31  C   UNL     1      -1.344   2.227  -0.416  0.00  0.00    -0.013 C 
ATOM     32  C   UNL     1      -1.096   2.985  -1.721  0.00  0.00    +0.015 C 
ATOM     33  C   UNL     1      -2.509   1.253  -0.606  0.00  0.00    +0.015 C 
ATOM     34  C   UNL     1      -1.688   3.222   0.695  0.00  0.00    +0.015 C 
ENDBRANCH  26  31
ENDBRANCH  20  23
ENDBRANCH  18  20
ENDBRANCH   6  18
TORSDOF 9
