REMARK  Name = ZINC13974666
REMARK  6 active torsions:
REMARK  status: ('A' for Active; 'I' for Inactive)
REMARK    1  A    between atoms: C_1  and  C_2
REMARK    2  A    between atoms: C_3  and  O_19
REMARK    3  A    between atoms: C_8  and  C_11
REMARK    4  A    between atoms: C_8  and  O_18
REMARK    5  A    between atoms: C_11  and  P_14
REMARK    6  A    between atoms: P_14  and  O_17
REMARK                            x       y       z     vdW  Elec       q    Type
REMARK                         _______ _______ _______ _____ _____    ______ ____
ROOT
ATOM      1  C   UNL     1      -0.013   1.086   0.008  0.00  0.00    +0.069 C 
ATOM      2  C   UNL     1      -0.742   1.585  -1.213  0.00  0.00    +0.080 A 
ATOM      3  C   UNL     1      -2.114   1.795  -1.156  0.00  0.00    +0.144 A 
ATOM      4  C   UNL     1      -2.764   2.255  -2.289  0.00  0.00    +0.031 A 
ATOM      5  C   UNL     1      -2.021   2.488  -3.438  0.00  0.00    +0.045 A 
ATOM      6  C   UNL     1      -0.662   2.257  -3.419  0.00  0.00    +0.120 A 
ATOM      7  N   UNL     1      -0.069   1.823  -2.322  0.00  0.00    -0.256 NA
ATOM      8  C   UNL     1      -2.978   2.976  -4.498  0.00  0.00    +0.274 C 
ATOM      9  O   UNL     1      -4.294   2.610  -4.043  0.00  0.00    -0.335 OA
ATOM     10  C   UNL     1      -4.200   2.591  -2.606  0.00  0.00    +0.203 C 
ENDROOT
BRANCH   8  11
ATOM     11  C   UNL     1      -2.675   2.296  -5.834  0.00  0.00    +0.404 C 
ATOM     12  F   UNL     1      -1.365   2.598  -6.225  0.00  0.00    -0.186 F 
ATOM     13  F   UNL     1      -2.812   0.911  -5.695  0.00  0.00    -0.186 F 
BRANCH  11  14
ATOM     14  P   UNL     1      -3.840   2.898  -7.100  0.00  0.00    +0.431 P 
ATOM     15  O   UNL     1      -3.534   2.212  -8.450  0.00  0.00    -0.250 OA
ATOM     16  O   UNL     1      -5.286   2.565  -6.669  0.00  0.00    -0.136 OA
BRANCH  14  17
ATOM     17  O   UNL     1      -3.682   4.492  -7.261  0.00  0.00    -0.318 OA
ATOM     18  H   UNL     1      -4.273   4.882  -7.919  0.00  0.00    +0.220 HD
ENDBRANCH  14  17
ENDBRANCH  11  14
ENDBRANCH   8  11
BRANCH   8  19
ATOM     19  O   UNL     1      -2.880   4.395  -4.633  0.00  0.00    -0.356 OA
ATOM     20  H   UNL     1      -3.472   4.768  -5.300  0.00  0.00    +0.213 HD
ENDBRANCH   8  19
BRANCH   3  21
ATOM     21  O   UNL     1      -2.804   1.554  -0.011  0.00  0.00    -0.505 OA
ATOM     22  H   UNL     1      -2.866   2.317   0.580  0.00  0.00    +0.292 HD
ENDBRANCH   3  21
TORSDOF 5
