REMARK  Name = ZINC39543687
REMARK  7 active torsions:
REMARK  status: ('A' for Active; 'I' for Inactive)
REMARK    1  A    between atoms: C_1  and  C_2
REMARK    2  A    between atoms: C_2  and  N_3
REMARK    3  A    between atoms: N_3  and  C_4
REMARK    4  A    between atoms: C_9  and  O_10
REMARK    5  A    between atoms: C_11  and  C_13
REMARK    6  A    between atoms: C_16  and  S_27
REMARK    7  A    between atoms: S_27  and  C_30
REMARK                            x       y       z     vdW  Elec       q    Type
REMARK                         _______ _______ _______ _____ _____    ______ ____
ROOT
ATOM      1  C   UNL     1      -1.274  -0.497   2.484  0.00  0.00    +0.150 C 
ATOM      2  C   UNL     1      -0.047  -1.420   2.611  0.00  0.00    +0.088 C 
ATOM      3  C   UNL     1      -0.318  -2.224   3.862  0.00  0.00    +0.107 C 
ATOM      4  C   UNL     1      -1.469  -1.864   4.370  0.00  0.00    +0.097 C 
ATOM      5  N   UNL     1      -2.043  -2.364   5.553  0.00  0.00    -0.302 N 
ATOM      6  C   UNL     1      -2.745  -1.414   6.316  0.00  0.00    +0.037 A 
ATOM      7  C   UNL     1      -3.254  -1.766   7.557  0.00  0.00    +0.023 A 
ATOM      8  C   UNL     1      -3.951  -0.836   8.303  0.00  0.00    +0.002 A 
ATOM      9  C   UNL     1      -4.139   0.442   7.807  0.00  0.00    +0.000 A 
ATOM     10  C   UNL     1      -3.629   0.794   6.572  0.00  0.00    +0.007 A 
ATOM     11  C   UNL     1      -2.924  -0.131   5.819  0.00  0.00    -0.010 A 
ATOM     12  C   UNL     1      -2.357   0.290   4.489  0.00  0.00    +0.124 C 
ATOM     13  N   UNL     1      -2.125  -0.870   3.626  0.00  0.00    -0.369 NA
ATOM     14  H   UNL     1      -1.961  -3.292   5.822  0.00  0.00    +0.153 HD
ATOM     15  H   UNL     1      -3.009  -1.222   3.290  0.00  0.00    +0.129 HD
ENDROOT
BRANCH   1  17
ATOM     16  N   UNL     1      -1.372  -0.511   0.012  0.00  0.00    -0.267 N 
ATOM     17  C   UNL     1      -1.993  -0.751   1.184  0.00  0.00    +0.239 C 
ATOM     18  O   UNL     1      -3.131  -1.171   1.193  0.00  0.00    -0.273 OA
BRANCH  16  19
ATOM     19  C   UNL     1      -2.041  -0.747  -1.196  0.00  0.00    +0.078 A 
ATOM     20  C   UNL     1      -1.962  -1.992  -1.803  0.00  0.00    +0.027 A 
ATOM     21  C   UNL     1      -2.623  -2.222  -2.995  0.00  0.00    +0.002 A 
ATOM     22  C   UNL     1      -3.363  -1.215  -3.585  0.00  0.00    +0.004 A 
ATOM     23  C   UNL     1      -3.446   0.029  -2.986  0.00  0.00    +0.047 A 
ATOM     24  C   UNL     1      -2.792   0.266  -1.788  0.00  0.00    +0.138 A 
BRANCH  24  25
ATOM     25  O   UNL     1      -2.877   1.486  -1.195  0.00  0.00    -0.505 OA
ATOM     26  H   UNL     1      -2.189   2.107  -1.470  0.00  0.00    +0.292 HD
ENDBRANCH  24  25
ENDBRANCH  16  19
BRANCH  16  28
ATOM     27  C   UNL     1      -0.019   1.526   0.010  0.00  0.00    +0.025 C 
ATOM     28  C   UNL     1       0.002  -0.004   0.002  0.00  0.00    +0.110 C 
ENDBRANCH  16  28
ENDBRANCH   1  17
BRANCH   3  29
ATOM     29  S   UNL     1       0.750  -3.454   4.533  0.00  0.00    +0.024 S 
ATOM     30  O   UNL     1       2.049  -2.881   4.583  0.00  0.00    -0.165 OA
ATOM     31  O   UNL     1       0.100  -3.971   5.686  0.00  0.00    -0.165 OA
BRANCH  29  32
ATOM     32  C   UNL     1       0.826  -4.771   3.365  0.00  0.00    +0.093 A 
ATOM     33  C   UNL     1      -0.085  -5.809   3.433  0.00  0.00    +0.027 A 
ATOM     34  C   UNL     1      -0.025  -6.842   2.516  0.00  0.00    +0.002 A 
ATOM     35  C   UNL     1       0.945  -6.837   1.531  0.00  0.00    +0.000 A 
ATOM     36  C   UNL     1       1.855  -5.799   1.462  0.00  0.00    +0.002 A 
ATOM     37  C   UNL     1       1.792  -4.763   2.376  0.00  0.00    +0.027 A 
ENDBRANCH  29  32
ENDBRANCH   3  29
TORSDOF 6
