REMARK  Name = ZINC13889042
REMARK  5 active torsions:
REMARK  status: ('A' for Active; 'I' for Inactive)
REMARK    1  A    between atoms: C_1  and  C_2
REMARK    2  A    between atoms: C_15  and  O_26
REMARK    3  A    between atoms: C_17  and  O_25
REMARK    4  A    between atoms: C_19  and  O_24
REMARK    5  A    between atoms: C_20  and  O_23
REMARK                            x       y       z     vdW  Elec       q    Type
REMARK                         _______ _______ _______ _____ _____    ______ ____
ROOT
ATOM      1  C   UNL     1       0.349   7.536   5.053  0.00  0.00    +0.008 C 
ATOM      2  C   UNL     1       1.191   6.265   4.923  0.00  0.00    -0.003 C 
ATOM      3  C   UNL     1       0.275   5.054   4.795  0.00  0.00    +0.035 C 
ATOM      4  C   UNL     1       1.054   3.784   4.535  0.00  0.00    -0.059 C 
ATOM      5  C   UNL     1       2.266   3.810   3.992  0.00  0.00    +0.008 C 
ATOM      6  C   UNL     1       3.064   2.563   3.726  0.00  0.00    +0.130 C 
ATOM      7  C   UNL     1       3.834   2.683   2.436  0.00  0.00    +0.174 C 
ATOM      8  O   UNL     1       5.001   3.010   2.438  0.00  0.00    -0.291 OA
ATOM      9  C   UNL     1       3.132   2.392   1.171  0.00  0.00    +0.027 A 
ATOM     10  C   UNL     1       3.746   2.689  -0.049  0.00  0.00    +0.012 A 
ATOM     11  C   UNL     1       3.095   2.407  -1.232  0.00  0.00    +0.004 A 
ATOM     12  C   UNL     1       1.839   1.829  -1.209  0.00  0.00    +0.046 A 
ATOM     13  C   UNL     1       1.223   1.532  -0.001  0.00  0.00    +0.123 A 
ATOM     14  C   UNL     1       1.860   1.821   1.198  0.00  0.00    +0.036 A 
ATOM     15  C   UNL     1       1.163   1.507   2.491  0.00  0.00    +0.184 C 
ATOM     16  C   UNL     1       2.147   1.340   3.649  0.00  0.00    +0.136 C 
ATOM     17  C   UNL     1       1.339   1.324   4.961  0.00  0.00    +0.154 C 
ATOM     18  C   UNL     1       0.363   2.495   4.915  0.00  0.00    +0.065 C 
ATOM     19  C   UNL     1       2.899   5.090   3.629  0.00  0.00    +0.160 C 
ATOM     20  O   UNL     1       4.069   5.132   3.310  0.00  0.00    -0.292 OA
ATOM     21  C   UNL     1       2.064   6.349   3.662  0.00  0.00    +0.083 C 
ENDROOT
BRANCH  17  22
ATOM     22  O   UNL     1       0.618   0.095   5.071  0.00  0.00    -0.389 OA
ATOM     23  H   UNL     1       0.066   0.033   5.862  0.00  0.00    +0.210 HD
ENDBRANCH  17  22
BRANCH  16  24
ATOM     24  O   UNL     1       2.913   0.141   3.510  0.00  0.00    -0.382 OA
ATOM     25  H   UNL     1       2.378  -0.663   3.457  0.00  0.00    +0.210 HD
ENDBRANCH  16  24
BRANCH  15  26
ATOM     26  O   UNL     1       0.261   2.572   2.798  0.00  0.00    -0.384 OA
ATOM     27  H   UNL     1      -0.397   2.741   2.109  0.00  0.00    +0.210 HD
ENDBRANCH  15  26
BRANCH  13  28
ATOM     28  O   UNL     1      -0.011   0.963   0.007  0.00  0.00    -0.506 OA
ATOM     29  H   UNL     1       0.002  -0.004   0.002  0.00  0.00    +0.292 HD
ENDBRANCH  13  28
TORSDOF 4
