REMARK  Name = ZINC14460887
REMARK  4 active torsions:
REMARK  status: ('A' for Active; 'I' for Inactive)
REMARK    1  A    between atoms: C_1  and  C_2
REMARK    2  A    between atoms: C_5  and  O_26
REMARK    3  A    between atoms: C_15  and  C_18
REMARK    4  A    between atoms: C_23  and  O_24
REMARK                            x       y       z     vdW  Elec       q    Type
REMARK                         _______ _______ _______ _____ _____    ______ ____
ROOT
ATOM      1  C   UNL     1      -5.040   1.687   0.158  0.00  0.00    +0.044 C 
ATOM      2  C   UNL     1      -4.445   2.784   1.001  0.00  0.00    -0.045 A 
ATOM      3  C   UNL     1      -5.249   3.812   1.450  0.00  0.00    +0.007 A 
ATOM      4  C   UNL     1      -4.712   4.824   2.223  0.00  0.00    +0.047 A 
ATOM      5  C   UNL     1      -3.367   4.801   2.545  0.00  0.00    +0.138 A 
ATOM      6  C   UNL     1      -2.551   3.760   2.091  0.00  0.00    +0.074 A 
ATOM      7  C   UNL     1      -3.092   2.751   1.317  0.00  0.00    -0.013 A 
ATOM      8  C   UNL     1      -2.276   1.605   0.795  0.00  0.00    +0.049 C 
ATOM      9  C   UNL     1      -2.064   1.738  -0.695  0.00  0.00    -0.023 C 
ATOM     10  C   UNL     1      -0.848   1.375  -1.020  0.00  0.00    -0.030 C 
ATOM     11  C   UNL     1      -0.077   0.939   0.211  0.00  0.00    +0.033 C 
ATOM     12  C   UNL     1      -0.844   1.613   1.383  0.00  0.00    +0.029 C 
ATOM     13  C   UNL     1      -0.364   3.061   1.489  0.00  0.00    +0.109 C 
ATOM     14  N   UNL     1      -1.200   3.783   2.448  0.00  0.00    -0.334 N 
ATOM     15  H   UNL     1      -0.874   4.730   2.570  0.00  0.00    +0.147 HD
ENDROOT
BRANCH  13  16
ATOM     16  C   UNL     1       1.068   3.078   1.958  0.00  0.00    +0.015 A 
ATOM     17  C   UNL     1       2.083   3.377   1.069  0.00  0.00    +0.024 A 
ATOM     18  C   UNL     1       3.398   3.393   1.499  0.00  0.00    +0.018 A 
ATOM     19  C   UNL     1       3.700   3.109   2.819  0.00  0.00    +0.019 A 
ATOM     20  C   UNL     1       2.688   2.810   3.711  0.00  0.00    +0.047 A 
ATOM     21  C   UNL     1       1.368   2.800   3.283  0.00  0.00    +0.122 A 
ATOM     22 BR   UNL     1       4.785   3.802   0.280  0.00  0.00    -0.050 Br
BRANCH  21  23
ATOM     23  O   UNL     1       0.371   2.511   4.160  0.00  0.00    -0.506 OA
ATOM     24  H   UNL     1       0.157   1.569   4.217  0.00  0.00    +0.292 HD
ENDBRANCH  21  23
ENDBRANCH  13  16
BRANCH   5  25
ATOM     25  O   UNL     1      -2.836   5.796   3.306  0.00  0.00    -0.505 OA
ATOM     26  H   UNL     1      -2.499   6.545   2.795  0.00  0.00    +0.292 HD
ENDBRANCH   5  25
TORSDOF 3
