REMARK  Name = ZINC36570396
REMARK  12 active torsions:
REMARK  status: ('A' for Active; 'I' for Inactive)
REMARK    1  A    between atoms: C_1  and  C_2
REMARK    2  A    between atoms: C_2  and  C_3
REMARK    3  A    between atoms: C_3  and  N_4
REMARK    4  A    between atoms: N_4  and  C_5
REMARK    5  A    between atoms: C_5  and  C_7
REMARK    6  A    between atoms: C_5  and  C_16
REMARK    7  A    between atoms: C_8  and  O_15
REMARK    8  A    between atoms: C_10  and  O_14
REMARK    9  A    between atoms: C_12  and  O_13
REMARK   10  A    between atoms: N_18  and  C_19
REMARK   11  A    between atoms: C_25  and  C_27
REMARK   12  A    between atoms: C_28  and  C_29
REMARK                            x       y       z     vdW  Elec       q    Type
REMARK                         _______ _______ _______ _____ _____    ______ ____
ROOT
ATOM      1  C   UNL     1      -0.588  -2.378  -2.200  0.00  0.00    +0.200 C 
ENDROOT
BRANCH   1   2
ATOM      2  C   UNL     1      -1.921  -2.411  -1.498  0.00  0.00    +0.065 A 
ATOM      3  C   UNL     1      -2.807  -3.450  -1.740  0.00  0.00    +0.129 A 
ATOM      4  C   UNL     1      -4.034  -3.480  -1.093  0.00  0.00    +0.091 A 
ATOM      5  C   UNL     1      -4.374  -2.471  -0.205  0.00  0.00    +0.124 A 
ATOM      6  C   UNL     1      -3.487  -1.432   0.037  0.00  0.00    +0.091 A 
ATOM      7  C   UNL     1      -2.259  -1.405  -0.605  0.00  0.00    +0.129 A 
BRANCH   7   8
ATOM      8  O   UNL     1      -1.389  -0.389  -0.364  0.00  0.00    -0.506 OA
ATOM      9  H   UNL     1      -1.430   0.327  -1.012  0.00  0.00    +0.292 HD
ENDBRANCH   7   8
BRANCH   5  10
ATOM     10  O   UNL     1      -5.576  -2.499   0.427  0.00  0.00    -0.507 OA
ATOM     11  H   UNL     1      -5.565  -2.969   1.272  0.00  0.00    +0.292 HD
ENDBRANCH   5  10
BRANCH   3  12
ATOM     12  O   UNL     1      -2.473  -4.439  -2.610  0.00  0.00    -0.506 OA
ATOM     13  H   UNL     1      -2.086  -5.219  -2.190  0.00  0.00    +0.292 HD
ENDBRANCH   3  12
ENDBRANCH   1   2
BRANCH   1  14
ATOM     14  C   UNL     1      -0.763  -1.814  -3.586  0.00  0.00    +0.239 C 
ATOM     15  O   UNL     1       0.124  -1.160  -4.091  0.00  0.00    -0.273 OA
ATOM     16  N   UNL     1      -1.907  -2.037  -4.264  0.00  0.00    -0.311 N 
ATOM     17  H   UNL     1      -2.638  -2.512  -3.839  0.00  0.00    +0.149 HD
BRANCH  16  18
ATOM     18  C   UNL     1      -2.045  -1.560  -5.642  0.00  0.00    +0.073 C 
ATOM     19  C   UNL     1      -2.507  -0.101  -5.634  0.00  0.00    +0.022 C 
ATOM     20  C   UNL     1      -2.651   0.396  -7.074  0.00  0.00    +0.002 C 
ATOM     21  C   UNL     1      -3.684  -0.461  -7.808  0.00  0.00    +0.000 C 
ATOM     22  C   UNL     1      -3.223  -1.920  -7.816  0.00  0.00    +0.002 C 
ATOM     23  C   UNL     1      -3.078  -2.417  -6.377  0.00  0.00    +0.022 C 
ENDBRANCH  16  18
ENDBRANCH   1  14
BRANCH   1  24
ATOM     24  N   UNL     1       0.342  -1.536  -1.444  0.00  0.00    -0.275 N 
ATOM     25  C   UNL     1       0.389  -0.209  -1.674  0.00  0.00    +0.292 C 
ATOM     26  O   UNL     1      -0.308   0.283  -2.543  0.00  0.00    -0.260 OA
BRANCH  25  27
ATOM     27  C   UNL     1       1.258   0.623  -0.897  0.00  0.00    -0.003 C 
ATOM     28  C   UNL     1       1.970   1.305  -0.260  0.00  0.00    -0.057 C 
BRANCH  28  29
ATOM     29  C   UNL     1       2.839   2.136   0.517  0.00  0.00    +0.025 A 
ATOM     30  C   UNL     1       3.646   1.575   1.512  0.00  0.00    +0.017 A 
ATOM     31  C   UNL     1       4.480   2.382   2.255  0.00  0.00    +0.001 A 
ATOM     32  C   UNL     1       4.521   3.745   2.019  0.00  0.00    +0.000 A 
ATOM     33  C   UNL     1       3.726   4.309   1.037  0.00  0.00    +0.001 A 
ATOM     34  C   UNL     1       2.891   3.514   0.280  0.00  0.00    +0.017 A 
ENDBRANCH  28  29
ENDBRANCH  25  27
BRANCH  24  35
ATOM     35  C   UNL     1       1.221  -2.136  -0.437  0.00  0.00    +0.109 C 
BRANCH  35  37
ATOM     36  C   UNL     1       3.537  -2.961   0.011  0.00  0.00    +0.005 C 
ATOM     37  C   UNL     1       2.580  -2.449  -1.067  0.00  0.00    +0.016 C 
ENDBRANCH  35  37
ENDBRANCH  24  35
ENDBRANCH   1  24
TORSDOF 11
