REMARK  Name = ZINC47257571
REMARK  8 active torsions:
REMARK  status: ('A' for Active; 'I' for Inactive)
REMARK    1  A    between atoms: C_1  and  C_2
REMARK    2  A    between atoms: C_2  and  C_4
REMARK    3  A    between atoms: C_2  and  N_11
REMARK    4  A    between atoms: N_11  and  C_12
REMARK    5  A    between atoms: N_11  and  C_24
REMARK    6  A    between atoms: C_12  and  C_13
REMARK    7  A    between atoms: N_15  and  C_16
REMARK    8  A    between atoms: C_17  and  C_21
REMARK                            x       y       z     vdW  Elec       q    Type
REMARK                         _______ _______ _______ _____ _____    ______ ____
ROOT
ATOM      1  C   UNL     1       0.540  -1.945  -1.352  0.00  0.00    +0.020 C 
ENDROOT
BRANCH   1   2
ATOM      2  C   UNL     1       1.278  -2.393  -2.587  0.00  0.00    +0.201 C 
ATOM      3  O   UNL     1       1.789  -1.572  -3.320  0.00  0.00    -0.278 OA
ATOM      4  N   UNL     1       1.370  -3.706  -2.878  0.00  0.00    -0.281 N 
ATOM      5  H   UNL     1       0.962  -4.362  -2.292  0.00  0.00    +0.155 HD
BRANCH   4   6
ATOM      6  C   UNL     1       2.049  -4.118  -4.014  0.00  0.00    +0.084 A 
ATOM      7  C   UNL     1       2.240  -5.414  -4.471  0.00  0.00    +0.065 A 
ATOM      8  C   UNL     1       2.993  -5.564  -5.695  0.00  0.00    +0.022 A 
ATOM      9  C   UNL     1       3.429  -4.423  -6.259  0.00  0.00    +0.048 A 
ATOM     10  S   UNL     1       2.824  -3.164  -5.156  0.00  0.00    -0.081 S 
BRANCH   7  11
ATOM     11  C   UNL     1       1.704  -6.572  -3.748  0.00  0.00    +0.244 C 
ATOM     12  O   UNL     1       1.074  -6.410  -2.719  0.00  0.00    -0.270 OA
ATOM     13  N   UNL     1       1.910  -7.817  -4.223  0.00  0.00    -0.325 N 
ATOM     14  H   UNL     1       2.412  -7.946  -5.043  0.00  0.00    +0.145 HD
ATOM     15  H   UNL     1       1.555  -8.583  -3.745  0.00  0.00    +0.145 HD
ENDBRANCH   7  11
ENDBRANCH   4   6
ENDBRANCH   1   2
BRANCH   1  16
ATOM     16  N   UNL     1       0.582  -0.479  -1.261  0.00  0.00    +0.392 N 
ATOM     17  H   UNL     1       1.541  -0.168  -1.292  0.00  0.00    -0.080 HD
BRANCH  16  18
ATOM     18  C   UNL     1      -0.158   0.103  -2.389  0.00  0.00    -0.067 C 
ATOM     19  C   UNL     1       0.659   0.698  -3.538  0.00  0.00    -0.017 C 
ATOM     20  C   UNL     1      -0.088   1.620  -2.572  0.00  0.00    -0.017 C 
ENDBRANCH  16  18
BRANCH  16  22
ATOM     21  C   UNL     1       0.041   1.476   0.111  0.00  0.00    -0.008 C 
ATOM     22  C   UNL     1      -0.033  -0.049   0.002  0.00  0.00    -0.038 C 
BRANCH  22  23
ATOM     23  C   UNL     1       0.707  -0.671   1.158  0.00  0.00    -0.043 A 
ATOM     24  C   UNL     1       2.029  -1.049   1.010  0.00  0.00    +0.003 A 
ATOM     25  C   UNL     1       2.707  -1.620   2.071  0.00  0.00    +0.000 A 
ATOM     26  C   UNL     1       2.064  -1.814   3.279  0.00  0.00    +0.001 A 
ATOM     27  C   UNL     1       0.743  -1.437   3.428  0.00  0.00    +0.020 A 
ATOM     28  C   UNL     1       0.065  -0.860   2.368  0.00  0.00    +0.043 A 
ATOM     29 CL   UNL     1      -1.593  -0.380   2.556  0.00  0.00    -0.083 Cl
ENDBRANCH  22  23
ENDBRANCH  16  22
ENDBRANCH   1  16
TORSDOF 7
