REMARK  Name = ZINC20292207
REMARK  11 active torsions:
REMARK  status: ('A' for Active; 'I' for Inactive)
REMARK    1  A    between atoms: C_1  and  O_2
REMARK    2  A    between atoms: O_2  and  C_3
REMARK    3  A    between atoms: C_6  and  N_11
REMARK    4  A    between atoms: C_8  and  O_9
REMARK    5  A    between atoms: O_9  and  C_10
REMARK    6  A    between atoms: C_12  and  C_14
REMARK    7  A    between atoms: C_14  and  S_15
REMARK    8  A    between atoms: S_15  and  C_16
REMARK    9  A    between atoms: N_20  and  N_21
REMARK   10  A    between atoms: N_22  and  N_23
REMARK   11  A    between atoms: C_24  and  C_25
REMARK                            x       y       z     vdW  Elec       q    Type
REMARK                         _______ _______ _______ _____ _____    ______ ____
ROOT
ATOM      1  C   UNL     1       4.653  -2.050  -9.100  0.00  0.00    +0.210 A 
ATOM      2  N   UNL     1       4.700  -3.358  -9.181  0.00  0.00    -0.119 NA
ATOM      3  N   UNL     1       5.272  -3.695 -10.415  0.00  0.00    -0.109 NA
ATOM      4  C   UNL     1       5.556  -2.582 -11.047  0.00  0.00    +0.254 A 
ATOM      5  N   UNL     1       5.175  -1.536 -10.253  0.00  0.00    -0.211 N 
ATOM      6  N   UNL     1       6.135  -2.482 -12.304  0.00  0.00    -0.204 N 
ATOM      7  H   UNL     1       6.308  -1.609 -12.691  0.00  0.00    +0.177 HD
ENDROOT
BRANCH   5   8
ATOM      8  N   UNL     1       5.298  -0.210 -10.557  0.00  0.00    -0.294 N 
ATOM      9  H   UNL     1       6.187   0.152 -10.246  0.00  0.00    +0.163 HD
ATOM     10  H   UNL     1       5.170  -0.052 -11.545  0.00  0.00    +0.163 HD
ENDBRANCH   5   8
BRANCH   6  11
ATOM     11  N   UNL     1       6.470  -3.642 -13.015  0.00  0.00    -0.188 NA
ATOM     12  C   UNL     1       7.012  -3.549 -14.191  0.00  0.00    +0.138 C 
BRANCH  12  13
ATOM     13  C   UNL     1       7.365  -4.770 -14.939  0.00  0.00    -0.004 A 
ATOM     14  C   UNL     1       7.112  -6.028 -14.387  0.00  0.00    +0.009 A 
ATOM     15  C   UNL     1       7.444  -7.166 -15.092  0.00  0.00    +0.002 A 
ATOM     16  C   UNL     1       8.027  -7.064 -16.343  0.00  0.00    +0.015 A 
ATOM     17  C   UNL     1       8.281  -5.820 -16.896  0.00  0.00    +0.018 A 
ATOM     18  C   UNL     1       7.949  -4.673 -16.204  0.00  0.00    +0.024 A 
ATOM     19 BR   UNL     1       9.079  -5.693 -18.606  0.00  0.00    -0.050 Br
ENDBRANCH  12  13
ENDBRANCH   6  11
BRANCH   1  20
ATOM     20  S   UNL     1       4.021  -1.119  -7.744  0.00  0.00    -0.075 S 
BRANCH  20  21
ATOM     21  C   UNL     1       3.491  -2.381  -6.554  0.00  0.00    +0.173 C 
BRANCH  21  23
ATOM     22  N   UNL     1       2.462  -2.456  -4.306  0.00  0.00    -0.285 N 
ATOM     23  C   UNL     1       2.923  -1.710  -5.330  0.00  0.00    +0.227 C 
ATOM     24  O   UNL     1       2.880  -0.500  -5.267  0.00  0.00    -0.275 OA
ATOM     25  H   UNL     1       2.566  -3.420  -4.322  0.00  0.00    +0.155 HD
BRANCH  22  29
ATOM     26  C   UNL     1       0.588  -0.611  -1.066  0.00  0.00    +0.162 A 
ATOM     27  C   UNL     1       0.454  -0.081  -2.340  0.00  0.00    +0.051 A 
ATOM     28  C   UNL     1       1.075  -0.692  -3.412  0.00  0.00    +0.027 A 
ATOM     29  C   UNL     1       1.834  -1.838  -3.217  0.00  0.00    +0.037 A 
ATOM     30  C   UNL     1       1.969  -2.371  -1.942  0.00  0.00    +0.072 A 
ATOM     31  C   UNL     1       1.352  -1.756  -0.866  0.00  0.00    +0.163 A 
BRANCH  26  33
ATOM     32  C   UNL     1      -0.793   1.164  -0.289  0.00  0.00    +0.277 C 
ATOM     33  O   UNL     1      -0.024  -0.008  -0.011  0.00  0.00    -0.491 OA
ENDBRANCH  26  33
BRANCH  31  34
ATOM     34  O   UNL     1       1.488  -2.274   0.384  0.00  0.00    -0.491 OA
ATOM     35  C   UNL     1       2.287  -3.451   0.515  0.00  0.00    +0.277 C 
ENDBRANCH  31  34
ENDBRANCH  22  29
ENDBRANCH  21  23
ENDBRANCH  20  21
ENDBRANCH   1  20
TORSDOF 9
