REMARK  Name = ZINC38653535
REMARK  7 active torsions:
REMARK  status: ('A' for Active; 'I' for Inactive)
REMARK    1  A    between atoms: C_1  and  N_2
REMARK    2  A    between atoms: C_3  and  N_15
REMARK    3  A    between atoms: C_5  and  C_8
REMARK    4  A    between atoms: C_16  and  C_18
REMARK    5  A    between atoms: C_18  and  S_19
REMARK    6  A    between atoms: S_19  and  C_20
REMARK    7  A    between atoms: C_24  and  C_26
REMARK                            x       y       z     vdW  Elec       q    Type
REMARK                         _______ _______ _______ _____ _____    ______ ____
ROOT
ATOM      1  N   UNL     1      -2.421  -0.313   0.225  0.00  0.00    -0.272 N 
ATOM      2  C   UNL     1      -3.446  -1.166   0.419  0.00  0.00    +0.228 C 
ATOM      3  O   UNL     1      -3.230  -2.349   0.577  0.00  0.00    -0.275 OA
ATOM      4  H   UNL     1      -2.587   0.642   0.179  0.00  0.00    +0.156 HD
ENDROOT
BRANCH   1   7
ATOM      5  C   UNL     1      -0.014   1.458   0.039  0.00  0.00    +0.151 C 
ATOM      6  N   UNL     1       0.003  -0.006   0.004  0.00  0.00    -0.257 N 
ATOM      7  C   UNL     1      -1.124  -0.802   0.091  0.00  0.00    +0.104 C 
ATOM      8  C   UNL     1      -0.814  -2.092   0.032  0.00  0.00    +0.038 C 
ATOM      9  C   UNL     1       0.691  -2.171  -0.112  0.00  0.00    +0.129 C 
ATOM     10  N   UNL     1       1.131  -0.762  -0.126  0.00  0.00    -0.228 NA
ATOM     11  H   UNL     1       1.618  -0.542  -0.982  0.00  0.00    +0.145 HD
BRANCH   9  12
ATOM     12  C   UNL     1       1.293  -2.908   1.056  0.00  0.00    -0.025 A 
ATOM     13  C   UNL     1       1.457  -2.264   2.269  0.00  0.00    +0.007 A 
ATOM     14  C   UNL     1       2.009  -2.939   3.341  0.00  0.00    +0.020 A 
ATOM     15  C   UNL     1       2.399  -4.259   3.201  0.00  0.00    +0.041 A 
ATOM     16  C   UNL     1       2.235  -4.903   1.987  0.00  0.00    +0.020 A 
ATOM     17  C   UNL     1       1.677  -4.229   0.917  0.00  0.00    +0.007 A 
ATOM     18 CL   UNL     1       3.094  -5.107   4.547  0.00  0.00    -0.084 Cl
ENDBRANCH   9  12
ENDBRANCH   1   7
BRANCH   2  19
ATOM     19  C   UNL     1      -4.862  -0.650   0.439  0.00  0.00    +0.173 C 
BRANCH  19  20
ATOM     20  S   UNL     1      -6.005  -2.031   0.717  0.00  0.00    -0.077 S 
BRANCH  20  21
ATOM     21  C   UNL     1      -7.596  -1.275   0.714  0.00  0.00    +0.185 A 
ATOM     22  N   UNL     1      -8.777  -1.909   0.892  0.00  0.00    -0.253 N 
ATOM     23  H   UNL     1      -8.908  -2.858   1.043  0.00  0.00    +0.191 HD
ATOM     24  N   UNL     1      -9.775  -0.925   0.814  0.00  0.00    -0.151 NA
ATOM     25  C   UNL     1      -9.166   0.221   0.599  0.00  0.00    +0.189 A 
ATOM     26  N   UNL     1      -7.843   0.005   0.544  0.00  0.00    -0.200 NA
BRANCH  25  27
ATOM     27  C   UNL     1      -9.831   1.533   0.448  0.00  0.00    +0.058 A 
ATOM     28  C   UNL     1     -11.165   1.836   0.502  0.00  0.00    +0.019 A 
ATOM     29  C   UNL     1     -11.554   3.146   0.331  0.00  0.00    +0.008 A 
ATOM     30  C   UNL     1     -10.607   4.095   0.116  0.00  0.00    +0.046 A 
ATOM     31  S   UNL     1      -9.102   3.137   0.157  0.00  0.00    -0.093 S 
ENDBRANCH  25  27
ENDBRANCH  20  21
ENDBRANCH  19  20
ENDBRANCH   2  19
TORSDOF 6
