REMARK  Name = ZINC13620855
REMARK  9 active torsions:
REMARK  status: ('A' for Active; 'I' for Inactive)
REMARK    1  A    between atoms: C_1  and  C_2
REMARK    2  A    between atoms: C_2  and  O_3
REMARK    3  A    between atoms: O_3  and  C_4
REMARK    4  A    between atoms: C_7  and  C_10
REMARK    5  A    between atoms: C_11  and  C_12
REMARK    6  A    between atoms: N_14  and  C_15
REMARK    7  A    between atoms: C_15  and  N_17
REMARK    8  A    between atoms: N_17  and  C_18
REMARK    9  A    between atoms: C_19  and  C_27
REMARK                            x       y       z     vdW  Elec       q    Type
REMARK                         _______ _______ _______ _____ _____    ______ ____
ROOT
ATOM      1  C   UNL     1      -0.016   1.344   0.009  0.00  0.00    +0.141 C 
ATOM      2  S   UNL     1       1.455   2.220   0.000  0.00  0.00    -0.018 S 
ENDROOT
BRANCH   1   5
ATOM      3  C   UNL     1      -1.211   3.349   0.026  0.00  0.00    +0.242 C 
ATOM      4  O   UNL     1      -0.165   3.972   0.024  0.00  0.00    -0.270 OA
ATOM      5  N   UNL     1      -1.192   2.002   0.019  0.00  0.00    -0.264 N 
ATOM      6  H   UNL     1      -2.026   1.505   0.020  0.00  0.00    +0.157 HD
BRANCH   3   8
ATOM      7  C   UNL     1      -2.504   5.413   0.043  0.00  0.00    +0.013 C 
ATOM      8  C   UNL     1      -2.486   4.062   0.036  0.00  0.00    +0.068 C 
BRANCH   7  12
ATOM      9  C   UNL     1      -6.206   7.484   0.071  0.00  0.00    +0.121 A 
ATOM     10  C   UNL     1      -5.013   8.197   0.070  0.00  0.00    +0.046 A 
ATOM     11  C   UNL     1      -3.809   7.530   0.061  0.00  0.00    +0.011 A 
ATOM     12  C   UNL     1      -3.787   6.130   0.053  0.00  0.00    -0.025 A 
ATOM     13  C   UNL     1      -4.991   5.417   0.049  0.00  0.00    +0.011 A 
ATOM     14  C   UNL     1      -6.190   6.093   0.063  0.00  0.00    +0.046 A 
BRANCH   9  15
ATOM     15  O   UNL     1      -7.390   8.146   0.080  0.00  0.00    -0.492 OA
BRANCH  15  17
ATOM     16  C   UNL     1      -9.804   8.267   0.091  0.00  0.00    +0.048 C 
ATOM     17  C   UNL     1      -8.578   7.352   0.081  0.00  0.00    +0.225 C 
ENDBRANCH  15  17
ENDBRANCH   9  15
ENDBRANCH   7  12
ENDBRANCH   3   8
ENDBRANCH   1   5
BRANCH   1  18
ATOM     18  N   UNL     1       0.002  -0.004   0.002  0.00  0.00    -0.291 N 
ATOM     19  H   UNL     1      -0.831  -0.500   0.007  0.00  0.00    +0.154 HD
BRANCH  18  20
ATOM     20  C   UNL     1       1.211  -0.680  -0.013  0.00  0.00    +0.084 A 
ATOM     21  C   UNL     1       1.433  -2.051  -0.017  0.00  0.00    +0.068 A 
ATOM     22  C   UNL     1       2.813  -2.507  -0.037  0.00  0.00    -0.023 A 
ATOM     23  C   UNL     1       3.743  -1.528  -0.041  0.00  0.00    -0.004 A 
ATOM     24  S   UNL     1       2.814  -0.021  -0.024  0.00  0.00    -0.077 S 
ATOM     25  C   UNL     1       5.231  -1.696  -0.054  0.00  0.00    +0.043 C 
ATOM     26  C   UNL     1       5.557  -3.151   0.314  0.00  0.00    +0.005 C 
ATOM     27  C   UNL     1       4.671  -4.081  -0.519  0.00  0.00    +0.005 C 
ATOM     28  C   UNL     1       3.219  -3.976  -0.049  0.00  0.00    +0.037 C 
BRANCH  21  29
ATOM     29  C   UNL     1       0.318  -3.002  -0.005  0.00  0.00    +0.244 C 
ATOM     30  O   UNL     1      -0.157  -3.396  -1.054  0.00  0.00    -0.270 OA
ATOM     31  N   UNL     1      -0.182  -3.439   1.168  0.00  0.00    -0.325 N 
ATOM     32  H   UNL     1       0.196  -3.125   2.004  0.00  0.00    +0.145 HD
ATOM     33  H   UNL     1      -0.920  -4.069   1.176  0.00  0.00    +0.145 HD
ENDBRANCH  21  29
ENDBRANCH  18  20
ENDBRANCH   1  18
TORSDOF 8
