REMARK  Name = ZINC13321730
REMARK  8 active torsions:
REMARK  status: ('A' for Active; 'I' for Inactive)
REMARK    1  A    between atoms: C_3  and  C_9
REMARK    2  A    between atoms: C_9  and  O_10
REMARK    3  A    between atoms: O_10  and  C_11
REMARK    4  A    between atoms: C_16  and  C_17
REMARK    5  A    between atoms: N_18  and  N_19
REMARK    6  A    between atoms: C_20  and  C_22
REMARK    7  A    between atoms: C_24  and  O_29
REMARK    8  A    between atoms: C_26  and  O_28
REMARK                            x       y       z     vdW  Elec       q    Type
REMARK                         _______ _______ _______ _____ _____    ______ ____
ROOT
ATOM      1  C   UNL     1       4.790  -0.222   0.136  0.00  0.00    +0.130 A 
ATOM      2  C   UNL     1       6.000  -0.879  -0.013  0.00  0.00    +0.047 A 
ATOM      3  C   UNL     1       7.176  -0.158  -0.095  0.00  0.00    +0.019 A 
ATOM      4  C   UNL     1       7.154   1.226  -0.033  0.00  0.00    +0.019 A 
ATOM      5  C   UNL     1       5.957   1.897   0.110  0.00  0.00    +0.028 A 
ATOM      6  C   UNL     1       4.762   1.179   0.194  0.00  0.00    +0.037 A 
ATOM      7 BR   UNL     1       8.772   2.199  -0.146  0.00  0.00    -0.050 Br
ENDROOT
BRANCH   6   8
ATOM      8  C   UNL     1       3.480   1.889   0.348  0.00  0.00    +0.142 C 
ATOM      9  N   UNL     1       2.385   1.217   0.537  0.00  0.00    -0.187 NA
BRANCH   9  10
ATOM     10  N   UNL     1       1.151   1.880   0.553  0.00  0.00    -0.203 N 
ATOM     11  C   UNL     1       0.028   1.206   0.869  0.00  0.00    +0.263 C 
ATOM     12  O   UNL     1       0.074   0.007   1.069  0.00  0.00    -0.268 OA
ATOM     13  H   UNL     1       1.105   2.825   0.336  0.00  0.00    +0.178 HD
BRANCH  11  14
ATOM     14  C   UNL     1      -1.262   1.922   0.967  0.00  0.00    +0.045 A 
ATOM     15  C   UNL     1      -1.316   3.298   0.743  0.00  0.00    +0.058 A 
ATOM     16  C   UNL     1      -2.527   3.965   0.831  0.00  0.00    +0.121 A 
ATOM     17  C   UNL     1      -3.683   3.268   1.152  0.00  0.00    +0.090 A 
ATOM     18  C   UNL     1      -3.632   1.900   1.380  0.00  0.00    +0.121 A 
ATOM     19  C   UNL     1      -2.426   1.225   1.289  0.00  0.00    +0.058 A 
BRANCH  18  20
ATOM     20  O   UNL     1      -4.768   1.222   1.693  0.00  0.00    -0.507 OA
ATOM     21  H   UNL     1      -4.948   1.174   2.642  0.00  0.00    +0.292 HD
ENDBRANCH  18  20
BRANCH  16  22
ATOM     22  O   UNL     1      -2.582   5.304   0.609  0.00  0.00    -0.507 OA
ATOM     23  H   UNL     1      -2.450   5.841   1.403  0.00  0.00    +0.292 HD
ENDBRANCH  16  22
ENDBRANCH  11  14
ENDBRANCH   9  10
ENDBRANCH   6   8
BRANCH   1  24
ATOM     24  O   UNL     1       3.635  -0.930   0.222  0.00  0.00    -0.487 OA
BRANCH  24  25
ATOM     25  C   UNL     1       3.750  -2.353   0.287  0.00  0.00    +0.266 C 
BRANCH  25  28
ATOM     26  C   UNL     1       0.033  -2.750  -0.244  0.00  0.00    +0.039 A 
ATOM     27  C   UNL     1       1.288  -2.182  -0.129  0.00  0.00    +0.011 A 
ATOM     28  C   UNL     1       2.382  -2.974   0.162  0.00  0.00    +0.008 A 
ATOM     29  C   UNL     1       2.224  -4.338   0.334  0.00  0.00    +0.050 A 
ATOM     30  C   UNL     1       0.969  -4.908   0.224  0.00  0.00    +0.058 A 
ATOM     31  C   UNL     1      -0.128  -4.114  -0.068  0.00  0.00    +0.125 A 
ATOM     32  F   UNL     1      -1.354  -4.670  -0.181  0.00  0.00    -0.205 F 
ATOM     33 CL   UNL     1       3.600  -5.333   0.693  0.00  0.00    -0.083 Cl
ENDBRANCH  25  28
ENDBRANCH  24  25
ENDBRANCH   1  24
TORSDOF 8
