REMARK  Name = ZINC22049302
REMARK  12 active torsions:
REMARK  status: ('A' for Active; 'I' for Inactive)
REMARK    1  A    between atoms: C_1  and  C_2
REMARK    2  A    between atoms: C_2  and  C_3
REMARK    3  A    between atoms: C_3  and  C_39
REMARK    4  A    between atoms: C_5  and  O_27
REMARK    5  A    between atoms: C_7  and  C_26
REMARK    6  A    between atoms: C_8  and  C_25
REMARK    7  A    between atoms: C_19  and  C_24
REMARK    8  A    between atoms: C_21  and  O_23
REMARK    9  A    between atoms: O_27  and  C_28
REMARK   10  A    between atoms: C_28  and  C_30
REMARK   11  A    between atoms: C_30  and  S_31
REMARK   12  A    between atoms: S_31  and  C_32
REMARK                            x       y       z     vdW  Elec       q    Type
REMARK                         _______ _______ _______ _____ _____    ______ ____
ROOT
ATOM      1  C   UNL     1       1.006   2.267   3.947  0.00  0.00    -0.003 C 
ATOM      2  C   UNL     1      -0.297   2.925   3.394  0.00  0.00    +0.054 C 
ATOM      3  C   UNL     1      -0.897   1.924   2.415  0.00  0.00    +0.184 C 
ATOM      4  C   UNL     1      -0.736   2.332   0.983  0.00  0.00    +0.018 C 
ATOM      5  C   UNL     1      -0.389   3.784   0.676  0.00  0.00    -0.004 C 
ATOM      6  C   UNL     1       1.053   4.102   1.025  0.00  0.00    +0.004 C 
ATOM      7  C   UNL     1       2.009   3.167   0.274  0.00  0.00    +0.008 C 
ATOM      8  C   UNL     1       1.635   1.732   0.358  0.00  0.00    -0.014 C 
ATOM      9  C   UNL     1       0.085   1.476   0.119  0.00  0.00    +0.071 C 
ATOM     10  C   UNL     1      -0.005  -0.007   0.045  0.00  0.00    +0.138 C 
ATOM     11  O   UNL     1      -0.897  -0.730   0.411  0.00  0.00    -0.297 OA
ATOM     12  C   UNL     1       1.302  -0.440  -0.628  0.00  0.00    +0.075 C 
ATOM     13  C   UNL     1       2.111   0.869  -0.844  0.00  0.00    +0.015 C 
ATOM     14  C   UNL     1       2.045   0.998   1.648  0.00  0.00    +0.022 C 
ATOM     15  C   UNL     1       1.872   1.731   2.927  0.00  0.00    +0.124 C 
ATOM     16  C   UNL     1       3.537   0.627   1.556  0.00  0.00    +0.010 C 
ATOM     17  C   UNL     1      -1.396   4.777   1.216  0.00  0.00    +0.008 C 
ATOM     18  C   UNL     1      -2.166   2.180   0.393  0.00  0.00    +0.016 C 
ATOM     19  C   UNL     1       0.650   1.212   5.017  0.00  0.00    +0.014 C 
ENDROOT
BRANCH   1  21
ATOM     20  C   UNL     1       0.878   3.964   5.806  0.00  0.00    +0.004 C 
ATOM     21  C   UNL     1       1.778   3.379   4.716  0.00  0.00    +0.006 C 
ENDBRANCH   1  21
BRANCH  15  22
ATOM     22  O   UNL     1       2.946   1.125   3.731  0.00  0.00    -0.391 OA
ATOM     23  H   UNL     1       3.787   0.619   3.234  0.00  0.00    +0.210 HD
ENDBRANCH  15  22
BRANCH   3  24
ATOM     24  O   UNL     1      -0.478   0.551   2.623  0.00  0.00    -0.460 OA
BRANCH  24  25
ATOM     25  C   UNL     1      -1.391  -0.295   3.127  0.00  0.00    +0.318 C 
ATOM     26  O   UNL     1      -2.503   0.100   3.385  0.00  0.00    -0.250 OA
BRANCH  25  27
ATOM     27  C   UNL     1      -1.028  -1.737   3.370  0.00  0.00    +0.197 C 
BRANCH  27  28
ATOM     28  S   UNL     1      -2.463  -2.615   4.049  0.00  0.00    -0.073 S 
BRANCH  28  29
ATOM     29  C   UNL     1      -1.885  -4.265   4.275  0.00  0.00    +0.211 A 
ATOM     30  N   UNL     1      -2.612  -5.309   4.775  0.00  0.00    -0.188 NA
ATOM     31  H   UNL     1       0.296  -6.635   4.174  0.00  0.00    +0.192 HD
ATOM     32  C   UNL     1      -1.807  -6.412   4.794  0.00  0.00    +0.209 A 
ATOM     33  N   UNL     1      -0.633  -6.066   4.327  0.00  0.00    -0.246 N 
ATOM     34  N   UNL     1      -0.683  -4.706   3.994  0.00  0.00    -0.144 NA
ATOM     35  N   UNL     1      -2.169  -7.680   5.232  0.00  0.00    -0.328 N 
ATOM     36  H   UNL     1      -1.438  -8.501   5.204  0.00  0.00    +0.145 HD
ATOM     37  H   UNL     1      -3.187  -7.862   5.607  0.00  0.00    +0.145 HD
ENDBRANCH  28  29
ENDBRANCH  27  28
ENDBRANCH  25  27
ENDBRANCH  24  25
ENDBRANCH   3  24
TORSDOF 7
