REMARK  Name = ZINC49525175
REMARK  5 active torsions:
REMARK  status: ('A' for Active; 'I' for Inactive)
REMARK    1  A    between atoms: C_1  and  C_2
REMARK    2  A    between atoms: C_2  and  C_4
REMARK    3  A    between atoms: C_2  and  N_11
REMARK    4  A    between atoms: N_11  and  C_12
REMARK    5  A    between atoms: C_17  and  N_18
REMARK                            x       y       z     vdW  Elec       q    Type
REMARK                         _______ _______ _______ _____ _____    ______ ____
ROOT
ATOM      1  C   UNL     1       2.108  -0.604   1.173  0.00  0.00    +0.049 A 
ATOM      2  C   UNL     1       2.819  -0.249   0.026  0.00  0.00    +0.027 A 
ATOM      3  C   UNL     1       4.176  -0.350  -0.020  0.00  0.00    +0.030 A 
ATOM      4  C   UNL     1       4.886  -0.817   1.099  0.00  0.00    +0.073 A 
ATOM      5  C   UNL     1       4.175  -1.180   2.270  0.00  0.00    +0.023 A 
ATOM      6  C   UNL     1       2.772  -1.063   2.298  0.00  0.00    +0.055 A 
ATOM      7  C   UNL     1       4.892  -1.647   3.386  0.00  0.00    +0.013 A 
ATOM      8  C   UNL     1       6.253  -1.730   3.291  0.00  0.00    +0.020 A 
ATOM      9  C   UNL     1       6.890  -1.358   2.111  0.00  0.00    +0.111 A 
ATOM     10  N   UNL     1       6.220  -0.922   1.071  0.00  0.00    -0.255 NA
ENDROOT
BRANCH   6  11
ATOM     11  N   UNL     1       2.057  -1.413   3.446  0.00  0.00    -0.356 N 
ATOM     12  H   UNL     1       1.091  -1.334   3.458  0.00  0.00    +0.142 HD
ATOM     13  H   UNL     1       2.528  -1.734   4.231  0.00  0.00    +0.142 HD
ENDBRANCH   6  11
BRANCH   1  14
ATOM     14  N   UNL     1       0.711  -0.489   1.189  0.00  0.00    -0.336 N 
ATOM     15  H   UNL     1       0.213  -0.731   1.986  0.00  0.00    +0.147 HD
BRANCH  14  17
ATOM     16  C   UNL     1      -0.019   1.526   0.010  0.00  0.00    +0.033 C 
ATOM     17  C   UNL     1       0.002  -0.004   0.002  0.00  0.00    +0.098 C 
BRANCH  17  18
ATOM     18  C   UNL     1      -1.412  -0.526   0.013  0.00  0.00    -0.028 A 
ATOM     19  C   UNL     1      -2.123  -0.571   1.198  0.00  0.00    +0.006 A 
ATOM     20  C   UNL     1      -3.420  -1.049   1.208  0.00  0.00    +0.015 A 
ATOM     21  C   UNL     1      -4.006  -1.482   0.032  0.00  0.00    +0.018 A 
ATOM     22  C   UNL     1      -3.294  -1.437  -1.153  0.00  0.00    +0.015 A 
ATOM     23  C   UNL     1      -1.999  -0.954  -1.163  0.00  0.00    +0.006 A 
ATOM     24 BR   UNL     1      -5.780  -2.136   0.046  0.00  0.00    -0.050 Br
ENDBRANCH  17  18
ENDBRANCH  14  17
ENDBRANCH   1  14
TORSDOF 4
