REMARK  Name = ZINC32106229
REMARK  5 active torsions:
REMARK  status: ('A' for Active; 'I' for Inactive)
REMARK    1  A    between atoms: C_4  and  N_7
REMARK    2  A    between atoms: C_10  and  C_13
REMARK    3  A    between atoms: C_10  and  O_26
REMARK    4  A    between atoms: C_14  and  O_25
REMARK    5  A    between atoms: N_17  and  C_19
REMARK                            x       y       z     vdW  Elec       q    Type
REMARK                         _______ _______ _______ _____ _____    ______ ____
ROOT
ATOM      1  N   UNL     1      -0.737   1.577   1.186  0.00  0.00    -0.296 N 
ATOM      2  C   UNL     1      -0.013   1.086   0.008  0.00  0.00    +0.112 C 
ATOM      3  C   UNL     1      -0.798   1.617  -1.212  0.00  0.00    +0.068 C 
ATOM      4  C   UNL     1      -2.216   1.792  -0.622  0.00  0.00    +0.169 C 
ATOM      5  C   UNL     1      -1.981   1.975   0.862  0.00  0.00    +0.252 C 
ATOM      6  O   UNL     1      -2.795   2.417   1.645  0.00  0.00    -0.272 OA
ENDROOT
BRANCH   1  10
ATOM      7  C   UNL     1      -0.440   2.268   5.386  0.00  0.00    +0.000 C 
ATOM      8  C   UNL     1       0.410   3.128   4.449  0.00  0.00    +0.002 C 
ATOM      9  C   UNL     1      -0.175   3.075   3.036  0.00  0.00    +0.022 C 
ATOM     10  C   UNL     1      -0.176   1.628   2.539  0.00  0.00    +0.076 C 
ATOM     11  C   UNL     1      -1.026   0.768   3.476  0.00  0.00    +0.022 C 
ATOM     12  C   UNL     1      -0.441   0.821   4.888  0.00  0.00    +0.002 C 
ENDBRANCH   1  10
BRANCH   4  13
ATOM     13  C   UNL     1      -3.049   0.562  -0.875  0.00  0.00    +0.034 C 
ATOM     14  C   UNL     1      -4.191   0.505  -1.561  0.00  0.00    +0.183 C 
ATOM     15  C   UNL     1      -4.688  -0.879  -1.579  0.00  0.00    +0.282 C 
ATOM     16  O   UNL     1      -5.710  -1.246  -2.127  0.00  0.00    -0.267 OA
ATOM     17  N   UNL     1      -3.846  -1.679  -0.899  0.00  0.00    -0.288 N 
ATOM     18  C   UNL     1      -2.745  -0.842  -0.406  0.00  0.00    +0.146 C 
BRANCH  17  19
ATOM     19  C   UNL     1      -3.997  -3.122  -0.693  0.00  0.00    +0.077 C 
ATOM     20  C   UNL     1      -4.024  -3.830  -2.049  0.00  0.00    +0.022 C 
ATOM     21  C   UNL     1      -4.181  -5.337  -1.834  0.00  0.00    +0.002 C 
ATOM     22  C   UNL     1      -5.490  -5.612  -1.090  0.00  0.00    +0.000 C 
ATOM     23  C   UNL     1      -5.463  -4.903   0.266  0.00  0.00    +0.002 C 
ATOM     24  C   UNL     1      -5.305  -3.397   0.051  0.00  0.00    +0.022 C 
ENDBRANCH  17  19
BRANCH  14  25
ATOM     25  O   UNL     1      -4.803   1.565  -2.153  0.00  0.00    -0.502 OA
ATOM     26  H   UNL     1      -5.746   1.421  -2.700  0.00  0.00    +0.292 HD
ENDBRANCH  14  25
ENDBRANCH   4  13
BRANCH   4  27
ATOM     27  O   UNL     1      -2.849   2.948  -1.174  0.00  0.00    -0.375 OA
ATOM     28  H   UNL     1      -3.868   3.220  -0.861  0.00  0.00    +0.211 HD
ENDBRANCH   4  27
TORSDOF 5
