REMARK  Name = ZINC39495682
REMARK  8 active torsions:
REMARK  status: ('A' for Active; 'I' for Inactive)
REMARK    1  A    between atoms: C_4  and  O_29
REMARK    2  A    between atoms: C_5  and  C_7
REMARK    3  A    between atoms: C_10  and  C_21
REMARK    4  A    between atoms: C_11  and  C_14
REMARK    5  A    between atoms: C_19  and  O_20
REMARK    6  A    between atoms: C_21  and  C_23
REMARK    7  A    between atoms: C_21  and  N_26
REMARK    8  A    between atoms: C_23  and  C_24
REMARK                            x       y       z     vdW  Elec       q    Type
REMARK                         _______ _______ _______ _____ _____    ______ ____
ROOT
ATOM      1  C   UNL     1       1.064  -2.231   0.475  0.00  0.00    +0.000 A 
ATOM      2  C   UNL     1       0.369  -2.944  -0.501  0.00  0.00    +0.010 A 
ATOM      3  C   UNL     1       0.562  -4.304  -0.635  0.00  0.00    +0.007 A 
ATOM      4  C   UNL     1       1.443  -4.968   0.196  0.00  0.00    -0.018 A 
ATOM      5  C   UNL     1       2.143  -4.266   1.176  0.00  0.00    +0.005 A 
ATOM      6  C   UNL     1       1.958  -2.893   1.312  0.00  0.00    +0.034 A 
ATOM      7 BR   UNL     1       2.910  -1.932   2.634  0.00  0.00    -0.049 Br
ENDROOT
BRANCH   1  12
ATOM      8  C   UNL     1      -0.573   1.087   1.146  0.00  0.00    +0.001 A 
ATOM      9  C   UNL     1       0.465   1.963   0.882  0.00  0.00    +0.004 A 
ATOM     10  C   UNL     1       1.699   1.482   0.487  0.00  0.00    +0.046 A 
ATOM     11  C   UNL     1       1.903   0.118   0.352  0.00  0.00    +0.125 A 
ATOM     12  C   UNL     1       0.856  -0.769   0.618  0.00  0.00    +0.025 A 
ATOM     13  C   UNL     1      -0.384  -0.274   1.016  0.00  0.00    +0.012 A 
BRANCH  11  14
ATOM     14  O   UNL     1       3.115  -0.355  -0.038  0.00  0.00    -0.506 OA
ATOM     15  H   UNL     1       3.720  -0.537   0.694  0.00  0.00    +0.292 HD
ENDBRANCH  11  14
ENDBRANCH   1  12
BRANCH   5  16
ATOM     16  C   UNL     1       3.089  -4.981   2.069  0.00  0.00    +0.025 A 
ATOM     17  C   UNL     1       2.638  -5.538   3.263  0.00  0.00    +0.012 A 
ATOM     18  C   UNL     1       3.521  -6.202   4.090  0.00  0.00    +0.001 A 
ATOM     19  C   UNL     1       4.854  -6.316   3.737  0.00  0.00    +0.004 A 
ATOM     20  C   UNL     1       5.312  -5.766   2.555  0.00  0.00    +0.046 A 
ATOM     21  C   UNL     1       4.435  -5.102   1.713  0.00  0.00    +0.125 A 
BRANCH  21  22
ATOM     22  O   UNL     1       4.883  -4.566   0.548  0.00  0.00    -0.506 OA
ATOM     23  H   UNL     1       5.262  -3.681   0.642  0.00  0.00    +0.292 HD
ENDBRANCH  21  22
ENDBRANCH   5  16
BRANCH   4  24
ATOM     24  C   UNL     1       1.647  -6.453   0.043  0.00  0.00    +0.110 C 
BRANCH  24  25
ATOM     25  N   UNL     1       1.386  -6.842  -1.345  0.00  0.00    -0.311 N 
ATOM     26  C   UNL     1       1.960  -7.950  -1.853  0.00  0.00    +0.326 C 
ATOM     27  O   UNL     1       2.692  -8.626  -1.161  0.00  0.00    -0.280 OA
ATOM     28  H   UNL     1       0.801  -6.301  -1.898  0.00  0.00    +0.149 HD
ENDBRANCH  24  25
BRANCH  24  29
ATOM     29  C   UNL     1       0.685  -7.198   0.971  0.00  0.00    +0.097 C 
BRANCH  29  30
ATOM     30  C   UNL     1       0.986  -8.674   0.925  0.00  0.00    +0.225 C 
ATOM     31  O   UNL     1       1.217  -9.275   1.947  0.00  0.00    -0.301 OA
ENDBRANCH  29  30
ENDBRANCH  24  29
ENDBRANCH   4  24
TORSDOF 8
