REMARK  Name = ZINC45675554
REMARK  11 active torsions:
REMARK  status: ('A' for Active; 'I' for Inactive)
REMARK    1  A    between atoms: C_1  and  C_2
REMARK    2  A    between atoms: C_2  and  C_3
REMARK    3  A    between atoms: C_3  and  C_4
REMARK    4  A    between atoms: C_7  and  C_10
REMARK    5  A    between atoms: C_11  and  C_28
REMARK    6  A    between atoms: C_16  and  C_18
REMARK    7  A    between atoms: C_18  and  C_20
REMARK    8  A    between atoms: C_18  and  N_24
REMARK    9  A    between atoms: C_20  and  C_21
REMARK   10  A    between atoms: C_21  and  S_22
REMARK   11  A    between atoms: S_22  and  C_23
REMARK                            x       y       z     vdW  Elec       q    Type
REMARK                         _______ _______ _______ _____ _____    ______ ____
ROOT
ATOM      1  C   UNL     1      -1.355  -6.292  -0.019  0.00  0.00    +0.083 A 
ATOM      2  C   UNL     1      -0.668  -6.978   0.944  0.00  0.00    +0.016 A 
ATOM      3  S   UNL     1      -0.991  -8.664   0.442  0.00  0.00    -0.057 S 
ATOM      4  C   UNL     1      -1.998  -8.283  -0.984  0.00  0.00    +0.165 A 
ATOM      5  N   UNL     1      -2.008  -6.964  -0.956  0.00  0.00    -0.224 NA
ATOM      6  N   UNL     1      -2.613  -9.148  -1.882  0.00  0.00    -0.263 N 
ATOM      7  C   UNL     1      -2.485 -10.480  -1.730  0.00  0.00    +0.239 C 
ATOM      8  O   UNL     1      -1.832 -10.926  -0.810  0.00  0.00    -0.273 OA
ATOM      9  C   UNL     1       0.138  -6.458   2.106  0.00  0.00    +0.054 C 
ATOM     10  H   UNL     1      -3.135  -8.791  -2.618  0.00  0.00    +0.157 HD
ENDROOT
BRANCH   1  14
ATOM     11  C   UNL     1      -1.413  -2.041   0.005  0.00  0.00    -0.047 A 
ATOM     12  C   UNL     1      -1.409  -2.723  -1.199  0.00  0.00    +0.004 A 
ATOM     13  C   UNL     1      -1.391  -4.103  -1.212  0.00  0.00    +0.010 A 
ATOM     14  C   UNL     1      -1.375  -4.809  -0.011  0.00  0.00    +0.001 A 
ATOM     15  C   UNL     1      -1.378  -4.116   1.199  0.00  0.00    +0.010 A 
ATOM     16  C   UNL     1      -1.392  -2.736   1.200  0.00  0.00    +0.004 A 
BRANCH  11  17
ATOM     17  C   UNL     1      -1.433  -0.534   0.013  0.00  0.00    +0.035 C 
BRANCH  17  19
ATOM     18  C   UNL     1      -0.019   1.526   0.010  0.00  0.00    +0.004 C 
ATOM     19  C   UNL     1       0.002  -0.004   0.002  0.00  0.00    +0.001 C 
ENDBRANCH  17  19
ENDBRANCH  11  17
ENDBRANCH   1  14
BRANCH   7  20
ATOM     20  C   UNL     1      -3.152 -11.418  -2.704  0.00  0.00    +0.161 C 
BRANCH  20  21
ATOM     21  N   UNL     1      -3.280 -12.744  -2.095  0.00  0.00    -0.288 N 
ATOM     22  C   UNL     1      -2.179 -13.414  -1.701  0.00  0.00    +0.298 C 
ATOM     23  O   UNL     1      -1.079 -12.917  -1.850  0.00  0.00    -0.253 OA
ATOM     24  N   UNL     1      -2.296 -14.634  -1.141  0.00  0.00    -0.313 N 
ATOM     25  H   UNL     1      -4.157 -13.140  -1.976  0.00  0.00    +0.151 HD
ATOM     26  H   UNL     1      -3.174 -15.030  -1.022  0.00  0.00    +0.146 HD
ATOM     27  H   UNL     1      -1.504 -15.116  -0.857  0.00  0.00    +0.146 HD
ENDBRANCH  20  21
BRANCH  20  28
ATOM     28  C   UNL     1      -2.306 -11.519  -3.975  0.00  0.00    +0.042 C 
BRANCH  28  29
ATOM     29  C   UNL     1      -3.043 -12.371  -5.011  0.00  0.00    +0.071 C 
BRANCH  29  30
ATOM     30  S   UNL     1      -2.040 -12.491  -6.518  0.00  0.00    -0.164 S 
ATOM     31  C   UNL     1      -3.040 -13.518  -7.630  0.00  0.00    +0.084 C 
ENDBRANCH  29  30
ENDBRANCH  28  29
ENDBRANCH  20  28
ENDBRANCH   7  20
TORSDOF 8
