REMARK  Name = ZINC16480976
REMARK  6 active torsions:
REMARK  status: ('A' for Active; 'I' for Inactive)
REMARK    1  A    between atoms: C_5  and  C_7
REMARK    2  A    between atoms: N_9  and  N_10
REMARK    3  A    between atoms: C_11  and  C_13
REMARK    4  A    between atoms: C_13  and  N_14
REMARK    5  A    between atoms: N_17  and  C_20
REMARK    6  A    between atoms: C_25  and  O_26
REMARK                            x       y       z     vdW  Elec       q    Type
REMARK                         _______ _______ _______ _____ _____    ______ ____
ROOT
ATOM      1  N   UNL     1       0.121  -4.257  -0.022  0.00  0.00    -0.233 N 
ATOM      2  C   UNL     1      -1.033  -4.952  -0.015  0.00  0.00    +0.243 C 
ATOM      3  O   UNL     1      -2.094  -4.365  -0.001  0.00  0.00    -0.273 OA
ATOM      4  H   UNL     1       0.970  -4.726  -0.032  0.00  0.00    +0.173 HD
ENDROOT
BRANCH   1   7
ATOM      5  C   UNL     1       1.250  -2.160  -0.021  0.00  0.00    +0.261 C 
ATOM      6  O   UNL     1       2.313  -2.748  -0.035  0.00  0.00    -0.269 OA
ATOM      7  N   UNL     1       0.095  -2.856  -0.014  0.00  0.00    -0.230 N 
ATOM      8  H   UNL     1      -0.754  -2.387  -0.004  0.00  0.00    +0.173 HD
BRANCH   5  13
ATOM      9  C   UNL     1      -0.017   1.375   0.010  0.00  0.00    +0.001 A 
ATOM     10  C   UNL     1       1.170   2.087   0.002  0.00  0.00    +0.001 A 
ATOM     11  C   UNL     1       2.383   1.422  -0.013  0.00  0.00    +0.016 A 
ATOM     12  C   UNL     1       2.417   0.041  -0.021  0.00  0.00    +0.030 A 
ATOM     13  C   UNL     1       1.222  -0.683  -0.013  0.00  0.00    +0.052 A 
ATOM     14  C   UNL     1       0.002  -0.004   0.002  0.00  0.00    +0.014 A 
ATOM     15 BR   UNL     1       4.075  -0.867  -0.042  0.00  0.00    -0.050 Br
ENDBRANCH   5  13
ENDBRANCH   1   7
BRANCH   2  16
ATOM     16  C   UNL     1      -1.005  -6.459  -0.023  0.00  0.00    +0.182 C 
BRANCH  16  17
ATOM     17  N   UNL     1      -2.381  -6.974  -0.012  0.00  0.00    -0.291 NA
ATOM     18  C   UNL     1      -3.060  -6.637   1.246  0.00  0.00    +0.104 C 
ATOM     19  C   UNL     1      -4.537  -7.030   1.146  0.00  0.00    +0.120 C 
ATOM     20  N   UNL     1      -4.619  -8.445   0.755  0.00  0.00    -0.325 N 
ATOM     21  C   UNL     1      -3.853  -8.888  -0.420  0.00  0.00    +0.120 C 
ATOM     22  C   UNL     1      -2.402  -8.422  -0.258  0.00  0.00    +0.104 C 
BRANCH  20  23
ATOM     23  C   UNL     1      -5.406  -9.347   1.481  0.00  0.00    +0.072 A 
ATOM     24  C   UNL     1      -6.733  -9.550   1.132  0.00  0.00    +0.027 A 
ATOM     25  C   UNL     1      -7.508 -10.441   1.850  0.00  0.00    +0.002 A 
ATOM     26  C   UNL     1      -6.963 -11.132   2.917  0.00  0.00    +0.004 A 
ATOM     27  C   UNL     1      -5.641 -10.935   3.271  0.00  0.00    +0.047 A 
ATOM     28  C   UNL     1      -4.857 -10.047   2.553  0.00  0.00    +0.138 A 
BRANCH  28  29
ATOM     29  O   UNL     1      -3.555  -9.856   2.897  0.00  0.00    -0.505 OA
ATOM     30  H   UNL     1      -3.418  -9.151   3.544  0.00  0.00    +0.292 HD
ENDBRANCH  28  29
ENDBRANCH  20  23
ENDBRANCH  16  17
ENDBRANCH   2  16
TORSDOF 6
