REMARK  Name = ZINC61122723
REMARK  4 active torsions:
REMARK  status: ('A' for Active; 'I' for Inactive)
REMARK    1  A    between atoms: C_1  and  C_2
REMARK    2  A    between atoms: C_4  and  N_9
REMARK    3  A    between atoms: N_9  and  S_10
REMARK    4  A    between atoms: S_10  and  C_13
REMARK                            x       y       z     vdW  Elec       q    Type
REMARK                         _______ _______ _______ _____ _____    ______ ____
ROOT
ATOM      1  S   UNL     1       0.050  -4.426  -2.426  0.00  0.00    +0.095 S 
ATOM      2  O   UNL     1       1.304  -4.817  -1.883  0.00  0.00    -0.148 OA
ATOM      3  O   UNL     1      -1.187  -4.851  -1.871  0.00  0.00    -0.148 OA
ENDROOT
BRANCH   1   4
ATOM      4  C   UNL     1       0.049  -4.940  -4.112  0.00  0.00    +0.159 A 
ATOM      5  C   UNL     1      -1.151  -5.153  -4.769  0.00  0.00    +0.154 A 
ATOM      6  C   UNL     1      -1.152  -5.556  -6.093  0.00  0.00    +0.078 A 
ATOM      7  C   UNL     1       0.046  -5.747  -6.759  0.00  0.00    +0.127 A 
ATOM      8  C   UNL     1       1.245  -5.534  -6.100  0.00  0.00    +0.055 A 
ATOM      9  C   UNL     1       1.246  -5.125  -4.779  0.00  0.00    +0.050 A 
ATOM     10 BR   UNL     1       2.884  -4.827  -3.882  0.00  0.00    -0.048 Br
ATOM     11  F   UNL     1       0.046  -6.142  -8.051  0.00  0.00    -0.205 F 
ATOM     12  F   UNL     1      -2.321  -4.967  -4.119  0.00  0.00    -0.203 F 
ENDBRANCH   1   4
BRANCH   1  13
ATOM     13  N   UNL     1       0.028  -2.770  -2.419  0.00  0.00    -0.098 NA
BRANCH  13  17
ATOM     14  C   UNL     1      -0.018   1.503   0.010  0.00  0.00    +0.047 C 
ATOM     15  C   UNL     1       0.002  -0.004   0.002  0.00  0.00    -0.013 A 
ATOM     16  C   UNL     1       0.006  -0.688  -1.198  0.00  0.00    +0.032 A 
ATOM     17  C   UNL     1       0.025  -2.076  -1.205  0.00  0.00    +0.075 A 
ATOM     18  C   UNL     1       0.040  -2.775  -0.005  0.00  0.00    +0.029 A 
ATOM     19  C   UNL     1       0.036  -2.087   1.193  0.00  0.00    +0.040 A 
ATOM     20  C   UNL     1       0.023  -0.702   1.197  0.00  0.00    +0.126 A 
ATOM     21  F   UNL     1       0.025  -0.032   2.370  0.00  0.00    -0.205 F 
ENDBRANCH  13  17
ENDBRANCH   1  13
TORSDOF 3
