REMARK  Name = ZINC66055515
REMARK  5 active torsions:
REMARK  status: ('A' for Active; 'I' for Inactive)
REMARK    1  A    between atoms: C_3  and  S_18
REMARK    2  A    between atoms: C_6  and  N_7
REMARK    3  A    between atoms: C_9  and  C_14
REMARK    4  A    between atoms: N_16  and  N_17
REMARK    5  A    between atoms: S_18  and  N_21
REMARK                            x       y       z     vdW  Elec       q    Type
REMARK                         _______ _______ _______ _____ _____    ______ ____
ROOT
ATOM      1  C   UNL     1      -0.017   1.385  -0.005  0.00  0.00    +0.025 A 
ATOM      2  C   UNL     1       1.171   2.090  -0.013  0.00  0.00    +0.030 A 
ATOM      3  C   UNL     1       2.377   1.415  -0.013  0.00  0.00    +0.106 A 
ATOM      4  C   UNL     1       2.400   0.032  -0.006  0.00  0.00    +0.030 A 
ATOM      5  C   UNL     1       1.216  -0.679   0.002  0.00  0.00    +0.025 A 
ATOM      6  C   UNL     1       0.002  -0.004   0.002  0.00  0.00    +0.036 A 
ENDROOT
BRANCH   6   7
ATOM      7  N   UNL     1      -1.199  -0.722   0.010  0.00  0.00    -0.271 N 
ATOM      8  C   UNL     1      -1.292  -2.182  -0.096  0.00  0.00    +0.127 C 
ATOM      9  C   UNL     1      -2.714  -2.541   0.388  0.00  0.00    +0.103 C 
ATOM     10  C   UNL     1      -3.485  -1.232   0.101  0.00  0.00    +0.110 C 
ATOM     11  C   UNL     1      -2.416  -0.162   0.122  0.00  0.00    +0.221 C 
ATOM     12  O   UNL     1      -2.627   1.028   0.223  0.00  0.00    -0.275 OA
BRANCH   9  13
ATOM     13  C   UNL     1      -2.718  -2.858   1.862  0.00  0.00    +0.231 C 
ATOM     14  O   UNL     1      -1.685  -2.808   2.495  0.00  0.00    -0.274 OA
ATOM     15  N   UNL     1      -3.870  -3.196   2.475  0.00  0.00    -0.253 N 
ATOM     16  H   UNL     1      -4.696  -3.236   1.968  0.00  0.00    +0.169 HD
BRANCH  15  17
ATOM     17  N   UNL     1      -3.873  -3.483   3.811  0.00  0.00    -0.254 NA
ATOM     18  H   UNL     1      -3.491  -2.718   4.346  0.00  0.00    +0.140 HD
ATOM     19  H   UNL     1      -4.802  -3.718   4.127  0.00  0.00    +0.140 HD
ENDBRANCH  15  17
ENDBRANCH   9  13
ENDBRANCH   6   7
BRANCH   3  20
ATOM     20  S   UNL     1       3.890   2.318  -0.024  0.00  0.00    +0.061 S 
ATOM     21  O   UNL     1       4.875   1.454  -0.574  0.00  0.00    -0.153 OA
ATOM     22  O   UNL     1       3.598   3.593  -0.581  0.00  0.00    -0.153 OA
BRANCH  20  23
ATOM     23  N   UNL     1       4.316   2.578   1.555  0.00  0.00    -0.177 NA
ATOM     24  C   UNL     1       3.856   3.778   2.267  0.00  0.00    +0.109 C 
ATOM     25  C   UNL     1       3.165   3.346   3.564  0.00  0.00    +0.017 C 
ATOM     26  C   UNL     1       4.116   2.461   4.374  0.00  0.00    +0.003 C 
ATOM     27  C   UNL     1       4.457   1.206   3.568  0.00  0.00    +0.017 C 
ATOM     28  C   UNL     1       5.158   1.610   2.272  0.00  0.00    +0.109 C 
ENDBRANCH  20  23
ENDBRANCH   3  20
TORSDOF 5
