REMARK  Name = ZINC01022997
REMARK  8 active torsions:
REMARK  status: ('A' for Active; 'I' for Inactive)
REMARK    1  A    between atoms: C_1  and  C_2
REMARK    2  A    between atoms: C_2  and  O_3
REMARK    3  A    between atoms: O_3  and  C_4
REMARK    4  A    between atoms: C_7  and  C_10
REMARK    5  A    between atoms: C_12  and  C_34
REMARK    6  A    between atoms: C_13  and  N_33
REMARK    7  A    between atoms: N_14  and  C_22
REMARK    8  A    between atoms: C_23  and  C_31
REMARK                            x       y       z     vdW  Elec       q    Type
REMARK                         _______ _______ _______ _____ _____    ______ ____
ROOT
ATOM      1  C   UNL     1       1.112  -6.027  -1.849  0.00  0.00    +0.097 C 
ATOM      2  C   UNL     1       0.415  -6.407  -3.122  0.00  0.00    +0.077 C 
ATOM      3  C   UNL     1       1.117  -6.705  -4.245  0.00  0.00    +0.107 C 
ATOM      4  N   UNL     1       2.494  -6.668  -4.228  0.00  0.00    -0.253 N 
ATOM      5  C   UNL     1       3.178  -6.729  -3.042  0.00  0.00    +0.025 C 
ATOM      6  C   UNL     1       2.562  -6.441  -1.878  0.00  0.00    +0.025 C 
ATOM      7  C   UNL     1       3.252  -6.518  -0.655  0.00  0.00    +0.162 C 
ATOM      8  O   UNL     1       2.670  -6.245   0.376  0.00  0.00    -0.292 OA
ATOM      9  C   UNL     1       4.697  -6.932  -0.600  0.00  0.00    +0.080 C 
ATOM     10  C   UNL     1       4.997  -7.857  -1.784  0.00  0.00    +0.014 C 
ATOM     11  C   UNL     1       4.635  -7.123  -3.073  0.00  0.00    +0.052 C 
ENDROOT
BRANCH   4  12
ATOM     12  C   UNL     1       3.195  -6.567  -5.423  0.00  0.00    +0.095 A 
ATOM     13  C   UNL     1       3.585  -7.591  -6.270  0.00  0.00    +0.084 A 
ATOM     14  C   UNL     1       4.315  -7.221  -7.469  0.00  0.00    -0.018 A 
ATOM     15  C   UNL     1       4.521  -5.892  -7.601  0.00  0.00    -0.004 A 
ATOM     16  S   UNL     1       3.757  -5.176  -6.176  0.00  0.00    -0.076 S 
ATOM     17  C   UNL     1       5.238  -5.200  -8.720  0.00  0.00    +0.043 C 
ATOM     18  C   UNL     1       6.033  -6.253  -9.507  0.00  0.00    +0.005 C 
ATOM     19  C   UNL     1       5.119  -7.445  -9.804  0.00  0.00    +0.005 C 
ATOM     20  C   UNL     1       4.821  -8.208  -8.511  0.00  0.00    +0.037 C 
BRANCH  13  21
ATOM     21  C   UNL     1       3.282  -8.960  -5.974  0.00  0.00    +0.102 C 
ATOM     22  N   UNL     1       3.041 -10.045  -5.740  0.00  0.00    -0.191 NA
ENDBRANCH  13  21
ENDBRANCH   4  12
BRANCH   1  26
ATOM     23  C   UNL     1       0.873  -1.792  -1.332  0.00  0.00    +0.121 A 
ATOM     24  C   UNL     1       0.312  -2.640  -0.388  0.00  0.00    +0.046 A 
ATOM     25  C   UNL     1       0.390  -4.008  -0.557  0.00  0.00    +0.008 A 
ATOM     26  C   UNL     1       1.028  -4.534  -1.666  0.00  0.00    -0.034 A 
ATOM     27  C   UNL     1       1.588  -3.691  -2.608  0.00  0.00    +0.008 A 
ATOM     28  C   UNL     1       1.507  -2.321  -2.447  0.00  0.00    +0.046 A 
BRANCH  23  29
ATOM     29  O   UNL     1       0.797  -0.445  -1.167  0.00  0.00    -0.492 OA
BRANCH  29  31
ATOM     30  C   UNL     1       0.145   1.559   0.015  0.00  0.00    +0.048 C 
ATOM     31  C   UNL     1       0.130   0.029   0.004  0.00  0.00    +0.225 C 
ENDBRANCH  29  31
ENDBRANCH  23  29
ENDBRANCH   1  26
BRANCH   3  32
ATOM     32  N   UNL     1       0.454  -7.043  -5.400  0.00  0.00    -0.345 N 
ATOM     33  H   UNL     1      -0.510  -7.152  -5.391  0.00  0.00    +0.144 HD
ATOM     34  H   UNL     1       0.949  -7.173  -6.224  0.00  0.00    +0.144 HD
ENDBRANCH   3  32
BRANCH   2  35
ATOM     35  C   UNL     1      -1.016  -6.458  -3.152  0.00  0.00    +0.099 C 
ATOM     36  N   UNL     1      -2.151  -6.499  -3.177  0.00  0.00    -0.191 NA
ENDBRANCH   2  35
TORSDOF 7
