REMARK  Name = ZINC62831794
REMARK  4 active torsions:
REMARK  status: ('A' for Active; 'I' for Inactive)
REMARK    1  A    between atoms: C_3  and  C_17
REMARK    2  A    between atoms: C_4  and  N_8
REMARK    3  A    between atoms: C_6  and  N_7
REMARK    4  A    between atoms: C_9  and  C_11
REMARK                            x       y       z     vdW  Elec       q    Type
REMARK                         _______ _______ _______ _____ _____    ______ ____
ROOT
ATOM      1  C   UNL     1      -0.030   1.461   0.017  0.00  0.00    +0.023 A 
ATOM      2  C   UNL     1       1.058   2.006  -0.599  0.00  0.00    +0.019 A 
ATOM      3  C   UNL     1       2.273   1.310  -0.622  0.00  0.00    +0.084 A 
ATOM      4  C   UNL     1       2.366   0.047  -0.007  0.00  0.00    +0.049 A 
ATOM      5  C   UNL     1       1.254  -0.494   0.614  0.00  0.00    +0.046 A 
ATOM      6  C   UNL     1       0.056   0.210   0.627  0.00  0.00    +0.026 A 
ENDROOT
BRANCH   4   7
ATOM      7  N   UNL     1       3.569  -0.654  -0.025  0.00  0.00    -0.284 N 
ATOM      8  C   UNL     1       3.564  -1.998  -0.118  0.00  0.00    +0.223 C 
ATOM      9  O   UNL     1       2.519  -2.591  -0.282  0.00  0.00    -0.275 OA
ATOM     10  H   UNL     1       4.410  -0.174   0.030  0.00  0.00    +0.155 HD
BRANCH   8  11
ATOM     11  C   UNL     1       4.857  -2.765  -0.017  0.00  0.00    +0.103 C 
ATOM     12  C   UNL     1       4.593  -4.288  -0.105  0.00  0.00    +0.043 C 
ATOM     13  C   UNL     1       5.568  -4.849   0.960  0.00  0.00    +0.160 C 
ATOM     14  O   UNL     1       5.524  -3.860   2.011  0.00  0.00    -0.379 OA
ATOM     15  C   UNL     1       5.494  -2.569   1.373  0.00  0.00    +0.172 C 
ENDBRANCH   8  11
ENDBRANCH   4   7
BRANCH   6  16
ATOM     16  N   UNL     1      -1.060  -0.333   1.251  0.00  0.00    -0.358 N 
ATOM     17  H   UNL     1      -1.897   0.157   1.261  0.00  0.00    +0.142 HD
ATOM     18  H   UNL     1      -1.002  -1.203   1.676  0.00  0.00    +0.142 HD
ENDBRANCH   6  16
BRANCH   3  19
ATOM     19  C   UNL     1       3.445   1.895  -1.284  0.00  0.00    +0.388 C 
ATOM     20  O   UNL     1       3.340   2.950  -1.896  0.00  0.00    -0.241 OA
ATOM     21  O   UNL     1       4.528   1.327  -1.225  0.00  0.00    -0.241 OA
ENDBRANCH   3  19
TORSDOF 4
