REMARK  Name = ZINC20873038
REMARK  8 active torsions:
REMARK  status: ('A' for Active; 'I' for Inactive)
REMARK    1  A    between atoms: C_1  and  C_2
REMARK    2  A    between atoms: C_2  and  C_4
REMARK    3  A    between atoms: C_2  and  N_10
REMARK    4  A    between atoms: N_10  and  C_11
REMARK    5  A    between atoms: C_11  and  C_12
REMARK    6  A    between atoms: C_17  and  O_18
REMARK    7  A    between atoms: O_18  and  C_19
REMARK    8  A    between atoms: C_19  and  C_20
REMARK                            x       y       z     vdW  Elec       q    Type
REMARK                         _______ _______ _______ _____ _____    ______ ____
ROOT
ATOM      1  C   UNL     1      -3.311  -1.115   1.354  0.00  0.00    -0.022 A 
ATOM      2  C   UNL     1      -4.375  -0.239   1.455  0.00  0.00    +0.020 A 
ATOM      3  C   UNL     1      -5.672  -0.720   1.428  0.00  0.00    +0.018 A 
ATOM      4  C   UNL     1      -5.906  -2.078   1.300  0.00  0.00    +0.019 A 
ATOM      5  C   UNL     1      -4.844  -2.956   1.200  0.00  0.00    +0.047 A 
ATOM      6  C   UNL     1      -3.543  -2.475   1.220  0.00  0.00    +0.123 A 
ATOM      7 BR   UNL     1      -7.127   0.479   1.565  0.00  0.00    -0.050 Br
ENDROOT
BRANCH   1   8
ATOM      8  C   UNL     1      -1.898  -0.590   1.383  0.00  0.00    -0.042 C 
BRANCH   8   9
ATOM      9  N   UNL     1      -1.376  -0.512   0.012  0.00  0.00    +0.386 N 
ATOM     10  H   UNL     1      -2.020   0.161  -0.573  0.00  0.00    -0.085 HD
ATOM     11  H   UNL     1      -1.399  -1.519  -0.431  0.00  0.00    -0.085 HD
BRANCH   9  13
ATOM     12  C   UNL     1      -0.019   1.526   0.010  0.00  0.00    -0.009 C 
ATOM     13  C   UNL     1       0.002  -0.004   0.002  0.00  0.00    -0.044 C 
BRANCH  13  14
ATOM     14  C   UNL     1       0.707  -0.490  -1.238  0.00  0.00    -0.062 A 
ATOM     15  C   UNL     1       0.034  -0.532  -2.444  0.00  0.00    +0.002 A 
ATOM     16  C   UNL     1       0.682  -0.974  -3.583  0.00  0.00    +0.000 A 
ATOM     17  C   UNL     1       2.001  -1.382  -3.512  0.00  0.00    +0.000 A 
ATOM     18  C   UNL     1       2.673  -1.345  -2.305  0.00  0.00    +0.000 A 
ATOM     19  C   UNL     1       2.026  -0.899  -1.167  0.00  0.00    +0.002 A 
ENDBRANCH  13  14
ENDBRANCH   9  13
ENDBRANCH   8   9
ENDBRANCH   1   8
BRANCH   6  20
ATOM     20  O   UNL     1      -2.497  -3.337   1.115  0.00  0.00    -0.483 OA
BRANCH  20  21
ATOM     21  C   UNL     1      -2.811  -4.725   0.980  0.00  0.00    +0.324 C 
BRANCH  21  22
ATOM     22  C   UNL     1      -1.536  -5.521   0.877  0.00  0.00    +0.248 C 
ATOM     23  O   UNL     1      -0.463  -4.955   0.916  0.00  0.00    -0.272 OA
ATOM     24  N   UNL     1      -1.586  -6.861   0.742  0.00  0.00    -0.327 N 
ATOM     25  H   UNL     1      -0.655  -7.441   0.667  0.00  0.00    +0.145 HD
ATOM     26  H   UNL     1      -2.559  -7.373   0.707  0.00  0.00    +0.145 HD
ENDBRANCH  21  22
ENDBRANCH  20  21
ENDBRANCH   6  20
TORSDOF 7
