REMARK  Name = ZINC12538200
REMARK  9 active torsions:
REMARK  status: ('A' for Active; 'I' for Inactive)
REMARK    1  A    between atoms: C_1  and  C_2
REMARK    2  A    between atoms: C_8  and  N_10
REMARK    3  A    between atoms: C_11  and  C_25
REMARK    4  A    between atoms: C_14  and  S_15
REMARK    5  A    between atoms: S_15  and  C_16
REMARK    6  A    between atoms: C_16  and  C_18
REMARK    7  A    between atoms: C_16  and  C_19
REMARK    8  A    between atoms: C_28  and  O_31
REMARK    9  A    between atoms: O_31  and  C_32
REMARK                            x       y       z     vdW  Elec       q    Type
REMARK                         _______ _______ _______ _____ _____    ______ ____
ROOT
ATOM      1  N   UNL     1       1.290  -0.383   0.201  0.00  0.00    -0.299 N 
ATOM      2  C   UNL     1       0.023  -0.008  -0.185  0.00  0.00    +0.165 A 
ATOM      3  N   UNL     1       0.028   1.300  -0.304  0.00  0.00    -0.128 NA
ATOM      4  N   UNL     1       1.194   1.762  -0.024  0.00  0.00    -0.122 NA
ATOM      5  C   UNL     1       2.005   0.778   0.292  0.00  0.00    +0.193 A 
ENDROOT
BRANCH   1  12
ATOM      6  C   UNL     1       1.299  -1.445   2.895  0.00  0.00    +0.009 C 
ATOM      7  C   UNL     1       2.370  -1.812   1.865  0.00  0.00    +0.009 C 
ATOM      8  C   UNL     1       2.872  -3.232   2.136  0.00  0.00    +0.005 C 
ATOM      9  C   UNL     1       3.942  -3.599   1.106  0.00  0.00    +0.000 C 
ATOM     10  C   UNL     1       3.343  -3.529  -0.300  0.00  0.00    +0.002 C 
ATOM     11  C   UNL     1       2.841  -2.109  -0.570  0.00  0.00    +0.025 C 
ATOM     12  C   UNL     1       1.770  -1.742   0.459  0.00  0.00    +0.094 C 
ENDBRANCH   1  12
BRANCH   2  13
ATOM     13  C   UNL     1      -1.126  -0.907  -0.420  0.00  0.00    +0.020 A 
ATOM     14  C   UNL     1      -0.915  -2.202  -0.898  0.00  0.00    +0.015 A 
ATOM     15  C   UNL     1      -1.989  -3.039  -1.112  0.00  0.00    +0.046 A 
ATOM     16  C   UNL     1      -3.280  -2.593  -0.862  0.00  0.00    +0.120 A 
ATOM     17  C   UNL     1      -3.494  -1.304  -0.392  0.00  0.00    +0.046 A 
ATOM     18  C   UNL     1      -2.425  -0.463  -0.171  0.00  0.00    +0.015 A 
BRANCH  16  19
ATOM     19  O   UNL     1      -4.336  -3.420  -1.079  0.00  0.00    -0.495 OA
ATOM     20  C   UNL     1      -4.044  -4.732  -1.563  0.00  0.00    +0.277 C 
ENDBRANCH  16  19
ENDBRANCH   2  13
BRANCH   5  21
ATOM     21  S   UNL     1       3.701   0.927   0.748  0.00  0.00    -0.073 S 
BRANCH  21  22
ATOM     22  C   UNL     1       3.899   2.723   0.638  0.00  0.00    +0.137 C 
ATOM     23  C   UNL     1       3.719   3.167  -0.815  0.00  0.00    +0.029 C 
BRANCH  22  24
ATOM     24  C   UNL     1       5.277   3.106   1.114  0.00  0.00    +0.233 C 
ATOM     25  O   UNL     1       6.183   2.302   1.059  0.00  0.00    -0.274 OA
ATOM     26  N   UNL     1       5.502   4.342   1.600  0.00  0.00    -0.239 N 
ATOM     27  C   UNL     1       6.734   4.685   2.026  0.00  0.00    +0.303 C 
ATOM     28  O   UNL     1       7.642   3.879   1.971  0.00  0.00    -0.253 OA
ATOM     29  N   UNL     1       6.959   5.922   2.512  0.00  0.00    -0.313 N 
ATOM     30  H   UNL     1       4.777   4.986   1.644  0.00  0.00    +0.159 HD
ATOM     31  H   UNL     1       6.235   6.565   2.555  0.00  0.00    +0.146 HD
ATOM     32  H   UNL     1       7.846   6.169   2.818  0.00  0.00    +0.146 HD
ENDBRANCH  22  24
ENDBRANCH  21  22
ENDBRANCH   5  21
TORSDOF 6
