REMARK  Name = ZINC67246665
REMARK  10 active torsions:
REMARK  status: ('A' for Active; 'I' for Inactive)
REMARK    1  A    between atoms: C_1  and  C_2
REMARK    2  A    between atoms: C_2  and  C_3
REMARK    3  A    between atoms: C_3  and  C_5
REMARK    4  A    between atoms: C_3  and  C_6
REMARK    5  A    between atoms: C_9  and  C_12
REMARK    6  A    between atoms: C_12  and  C_14
REMARK    7  A    between atoms: C_12  and  N_17
REMARK    8  A    between atoms: C_14  and  C_15
REMARK    9  A    between atoms: C_14  and  C_16
REMARK   10  A    between atoms: C_18  and  C_20
REMARK                            x       y       z     vdW  Elec       q    Type
REMARK                         _______ _______ _______ _____ _____    ______ ____
ROOT
ATOM      1  N   UNL     1      -1.146  -6.675   1.855  0.00  0.00    -0.308 N 
ATOM      2  C   UNL     1      -0.600  -7.871   2.153  0.00  0.00    +0.217 C 
ATOM      3  O   UNL     1      -0.286  -8.632   1.263  0.00  0.00    -0.275 OA
ATOM      4  H   UNL     1      -1.397  -6.066   2.566  0.00  0.00    +0.149 HD
ENDROOT
BRANCH   2   5
ATOM      5  C   UNL     1      -0.382  -8.262   3.592  0.00  0.00    +0.075 C 
ATOM      6  C   UNL     1       0.554  -7.252   4.258  0.00  0.00    +0.015 C 
ATOM      7  C   UNL     1       0.766  -7.643   5.723  0.00  0.00    +0.036 C 
ATOM      8  C   UNL     1       1.366  -9.043   5.797  0.00  0.00    +0.112 C 
ATOM      9  C   UNL     1       0.455 -10.057   5.114  0.00  0.00    +0.036 C 
ATOM     10  C   UNL     1       0.245  -9.656   3.652  0.00  0.00    +0.015 C 
ATOM     11  C   UNL     1       2.741  -9.061   5.170  0.00  0.00    +0.244 C 
ATOM     12  O   UNL     1       3.026  -8.808   4.019  0.00  0.00    -0.273 OA
ATOM     13  N   UNL     1       3.583  -9.419   6.161  0.00  0.00    -0.238 N 
ATOM     14  C   UNL     1       2.932  -9.626   7.312  0.00  0.00    +0.307 C 
ATOM     15  O   UNL     1       3.476  -9.957   8.347  0.00  0.00    -0.252 OA
ATOM     16  N   UNL     1       1.605  -9.426   7.194  0.00  0.00    -0.285 N 
ATOM     17  H   UNL     1       4.543  -9.516   6.052  0.00  0.00    +0.159 HD
ATOM     18  H   UNL     1       0.940  -9.516   7.894  0.00  0.00    +0.151 HD
ENDBRANCH   2   5
BRANCH   1  19
ATOM     19  C   UNL     1      -1.358  -6.295   0.456  0.00  0.00    +0.106 C 
BRANCH  19  23
ATOM     20  C   UNL     1      -1.414  -2.036   0.129  0.00  0.00    -0.045 A 
ATOM     21  C   UNL     1      -0.780  -2.795  -0.837  0.00  0.00    +0.004 A 
ATOM     22  C   UNL     1      -0.762  -4.173  -0.731  0.00  0.00    +0.006 A 
ATOM     23  C   UNL     1      -1.377  -4.792   0.341  0.00  0.00    -0.027 A 
ATOM     24  C   UNL     1      -2.010  -4.033   1.307  0.00  0.00    +0.006 A 
ATOM     25  C   UNL     1      -2.024  -2.655   1.203  0.00  0.00    +0.004 A 
BRANCH  20  26
ATOM     26  C   UNL     1      -1.433  -0.534   0.013  0.00  0.00    +0.016 C 
ATOM     27  C   UNL     1      -2.135  -0.131  -1.286  0.00  0.00    +0.012 C 
BRANCH  26  29
ATOM     28  C   UNL     1      -0.019   1.526   0.010  0.00  0.00    +0.004 C 
ATOM     29  C   UNL     1       0.002  -0.004   0.002  0.00  0.00    +0.004 C 
ENDBRANCH  26  29
ENDBRANCH  20  26
ENDBRANCH  19  23
BRANCH  19  30
ATOM     30  C   UNL     1      -2.695  -6.860  -0.029  0.00  0.00    +0.008 C 
ATOM     31  C   UNL     1      -3.838  -6.203   0.747  0.00  0.00    +0.009 C 
ATOM     32  C   UNL     1      -2.859  -6.571  -1.522  0.00  0.00    +0.009 C 
ENDBRANCH  19  30
ENDBRANCH   1  19
TORSDOF 6
