REMARK  Name = ZINC37552866
REMARK  8 active torsions:
REMARK  status: ('A' for Active; 'I' for Inactive)
REMARK    1  A    between atoms: C_1  and  C_2
REMARK    2  A    between atoms: C_5  and  C_21
REMARK    3  A    between atoms: C_6  and  S_8
REMARK    4  A    between atoms: S_8  and  N_11
REMARK    5  A    between atoms: N_11  and  C_12
REMARK    6  A    between atoms: C_15  and  C_17
REMARK    7  A    between atoms: C_18  and  C_19
REMARK    8  A    between atoms: C_19  and  N_20
REMARK                            x       y       z     vdW  Elec       q    Type
REMARK                         _______ _______ _______ _____ _____    ______ ____
ROOT
ATOM      1  N   UNL     1      -1.366  -3.816   2.801  0.00  0.00    -0.070 NA
ENDROOT
BRANCH   1   2
ATOM      2  C   UNL     1      -1.628  -4.612   3.902  0.00  0.00    +0.202 A 
ATOM      3  N   UNL     1      -0.872  -4.814   4.963  0.00  0.00    -0.229 NA
ATOM      4  C   UNL     1      -1.262  -5.607   5.938  0.00  0.00    +0.137 A 
ATOM      5  C   UNL     1      -2.486  -6.208   5.792  0.00  0.00    +0.083 A 
ATOM      6  S   UNL     1      -2.991  -5.550   4.210  0.00  0.00    -0.041 S 
BRANCH   5   7
ATOM      7  C   UNL     1      -3.173  -7.109   6.668  0.00  0.00    -0.059 C 
ATOM      8  C   UNL     1      -3.735  -7.848   7.386  0.00  0.00    -0.116 C 
BRANCH   8   9
ATOM      9  C   UNL     1      -4.441  -8.775   8.286  0.00  0.00    +0.005 C 
BRANCH   9  10
ATOM     10  N   UNL     1      -5.731  -9.148   7.691  0.00  0.00    +0.385 N 
ATOM     11  H   UNL     1      -6.291  -8.319   7.555  0.00  0.00    -0.089 HD
ATOM     12  H   UNL     1      -5.574  -9.598   6.802  0.00  0.00    -0.089 HD
ATOM     13  H   UNL     1      -6.215  -9.783   8.308  0.00  0.00    -0.089 HD
ENDBRANCH   9  10
ENDBRANCH   8   9
ENDBRANCH   5   7
ENDBRANCH   1   2
BRANCH   1  14
ATOM     14  S   UNL     1       0.057  -2.973   2.709  0.00  0.00    +0.094 S 
ATOM     15  O   UNL     1       1.094  -3.938   2.602  0.00  0.00    -0.148 OA
ATOM     16  O   UNL     1       0.022  -2.003   3.747  0.00  0.00    -0.148 OA
BRANCH  14  22
ATOM     17  C   UNL     1      -0.018   1.503   0.010  0.00  0.00    +0.044 C 
ATOM     18  C   UNL     1       0.002  -0.004   0.002  0.00  0.00    -0.049 A 
ATOM     19  C   UNL     1       0.006  -0.689  -1.199  0.00  0.00    +0.004 A 
ATOM     20  C   UNL     1       0.025  -2.071  -1.207  0.00  0.00    +0.005 A 
ATOM     21  C   UNL     1       0.040  -2.768  -0.013  0.00  0.00    -0.024 A 
ATOM     22  C   UNL     1       0.037  -2.084   1.188  0.00  0.00    +0.114 A 
ATOM     23  C   UNL     1       0.023  -0.702   1.195  0.00  0.00    +0.032 A 
ATOM     24  C   UNL     1       0.059  -4.275  -0.021  0.00  0.00    +0.046 C 
ENDBRANCH  14  22
ENDBRANCH   1  14
TORSDOF 6
