REMARK  Name = ZINC12348177
REMARK  6 active torsions:
REMARK  status: ('A' for Active; 'I' for Inactive)
REMARK    1  A    between atoms: C_1  and  C_2
REMARK    2  A    between atoms: C_2  and  C_3
REMARK    3  A    between atoms: C_2  and  C_4
REMARK    4  A    between atoms: C_7  and  C_10
REMARK    5  A    between atoms: N_15  and  C_18
REMARK    6  A    between atoms: C_16  and  O_17
REMARK                            x       y       z     vdW  Elec       q    Type
REMARK                         _______ _______ _______ _____ _____    ______ ____
ROOT
ATOM      1  C   UNL     1       2.707  -1.868  -4.752  0.00  0.00    +0.092 C 
ATOM      2  C   UNL     1       4.117  -1.350  -4.761  0.00  0.00    +0.067 A 
ATOM      3  C   UNL     1       5.224  -2.188  -4.494  0.00  0.00    +0.153 A 
ATOM      4  N   UNL     1       6.308  -1.473  -4.566  0.00  0.00    -0.148 NA
ATOM      5  N   UNL     1       5.943  -0.155  -4.883  0.00  0.00    -0.199 N 
ATOM      6  C   UNL     1       4.585  -0.109  -4.999  0.00  0.00    +0.222 A 
ATOM      7  N   UNL     1       5.039  -3.546  -4.217  0.00  0.00    -0.301 N 
ATOM      8  C   UNL     1       3.821  -4.111  -4.498  0.00  0.00    +0.017 C 
ATOM      9  C   UNL     1       2.718  -3.382  -4.763  0.00  0.00    +0.024 C 
ATOM     10  C   UNL     1       1.497  -4.011  -5.072  0.00  0.00    +0.162 C 
ATOM     11  O   UNL     1       0.520  -3.327  -5.301  0.00  0.00    -0.292 OA
ATOM     12  C   UNL     1       1.372  -5.508  -5.124  0.00  0.00    +0.080 C 
ATOM     13  C   UNL     1       2.731  -6.106  -5.504  0.00  0.00    +0.014 C 
ATOM     14  C   UNL     1       3.763  -5.623  -4.490  0.00  0.00    +0.051 C 
ATOM     15  H   UNL     1       5.756  -4.076  -3.835  0.00  0.00    +0.153 HD
ENDROOT
BRANCH   1  19
ATOM     16  C   UNL     1       0.707  -0.490  -1.238  0.00  0.00    -0.045 A 
ATOM     17  C   UNL     1       0.222  -0.151  -2.487  0.00  0.00    +0.004 A 
ATOM     18  C   UNL     1       0.869  -0.597  -3.624  0.00  0.00    +0.005 A 
ATOM     19  C   UNL     1       2.002  -1.381  -3.513  0.00  0.00    -0.035 A 
ATOM     20  C   UNL     1       2.488  -1.720  -2.263  0.00  0.00    +0.005 A 
ATOM     21  C   UNL     1       1.843  -1.270  -1.126  0.00  0.00    +0.004 A 
BRANCH  16  23
ATOM     22  C   UNL     1      -0.019   1.526   0.010  0.00  0.00    +0.012 C 
ATOM     23  C   UNL     1       0.002  -0.004   0.002  0.00  0.00    +0.013 C 
ATOM     24  C   UNL     1      -1.433  -0.534   0.013  0.00  0.00    +0.012 C 
ENDBRANCH  16  23
ENDBRANCH   1  19
BRANCH   5  25
ATOM     25  C   UNL     1       6.821   0.924  -5.052  0.00  0.00    +0.069 A 
ATOM     26  C   UNL     1       6.542   1.908  -5.992  0.00  0.00    +0.028 A 
ATOM     27  C   UNL     1       7.409   2.970  -6.155  0.00  0.00    +0.002 A 
ATOM     28  C   UNL     1       8.554   3.055  -5.384  0.00  0.00    +0.000 A 
ATOM     29  C   UNL     1       8.834   2.078  -4.448  0.00  0.00    +0.002 A 
ATOM     30  C   UNL     1       7.968   1.016  -4.275  0.00  0.00    +0.028 A 
ENDBRANCH   5  25
BRANCH   6  31
ATOM     31  O   UNL     1       3.841   0.986  -5.298  0.00  0.00    -0.492 OA
ATOM     32  H   UNL     1       3.559   1.493  -4.524  0.00  0.00    +0.294 HD
ENDBRANCH   6  31
TORSDOF 4
