REMARK  Name = ZINC24762974
REMARK  8 active torsions:
REMARK  status: ('A' for Active; 'I' for Inactive)
REMARK    1  A    between atoms: C_1  and  S_2
REMARK    2  A    between atoms: S_2  and  C_3
REMARK    3  A    between atoms: C_6  and  N_9
REMARK    4  A    between atoms: C_10  and  C_12
REMARK    5  A    between atoms: C_12  and  O_13
REMARK    6  A    between atoms: O_13  and  C_14
REMARK    7  A    between atoms: C_14  and  C_16
REMARK    8  A    between atoms: C_18  and  N_24
REMARK                            x       y       z     vdW  Elec       q    Type
REMARK                         _______ _______ _______ _____ _____    ______ ____
ROOT
ATOM      1  O   UNL     1       3.785  -4.710  -0.368  0.00  0.00    -0.451 OA
ENDROOT
BRANCH   1   2
ATOM      2  C   UNL     1       3.971  -6.039  -0.484  0.00  0.00    +0.360 C 
ATOM      3  O   UNL     1       3.015  -6.788  -0.492  0.00  0.00    -0.243 OA
BRANCH   2   4
ATOM      4  C   UNL     1       5.340  -6.586  -0.602  0.00  0.00    +0.169 A 
ATOM      5  C   UNL     1       5.526  -7.961  -0.716  0.00  0.00    +0.095 A 
ATOM      6  C   UNL     1       6.823  -8.461  -0.832  0.00  0.00    +0.067 A 
ATOM      7  C   UNL     1       7.884  -7.557  -0.817  0.00  0.00    +0.100 A 
ATOM      8  C   UNL     1       7.619  -6.202  -0.694  0.00  0.00    +0.150 A 
ATOM      9  N   UNL     1       6.383  -5.761  -0.592  0.00  0.00    -0.226 NA
ATOM     10 CL   UNL     1       8.935  -5.071  -0.675  0.00  0.00    -0.060 Cl
ATOM     11 CL   UNL     1       9.520  -8.122  -0.950  0.00  0.00    -0.078 Cl
ATOM     12 CL   UNL     1       4.163  -9.037  -0.721  0.00  0.00    -0.079 Cl
BRANCH   6  13
ATOM     13  N   UNL     1       7.053  -9.830  -0.954  0.00  0.00    -0.356 N 
ATOM     14  H   UNL     1       8.082 -10.209  -1.044  0.00  0.00    +0.142 HD
ATOM     15  H   UNL     1       6.206 -10.532  -0.959  0.00  0.00    +0.142 HD
ENDBRANCH   6  13
ENDBRANCH   2   4
ENDBRANCH   1   2
BRANCH   1  16
ATOM     16  C   UNL     1       2.414  -4.244  -0.256  0.00  0.00    +0.328 C 
BRANCH  16  18
ATOM     17  N   UNL     1       1.232  -2.083  -0.019  0.00  0.00    -0.283 N 
ATOM     18  C   UNL     1       2.403  -2.741  -0.136  0.00  0.00    +0.255 C 
ATOM     19  O   UNL     1       3.447  -2.124  -0.143  0.00  0.00    -0.272 OA
ATOM     20  H   UNL     1       0.292  -2.646   0.074  0.00  0.00    +0.155 HD
BRANCH  17  24
ATOM     21  C   UNL     1       1.175   2.087  -0.018  0.00  0.00    +0.008 A 
ATOM     22  C   UNL     1       2.119   1.405  -0.775  0.00  0.00    +0.016 A 
ATOM     23  C   UNL     1       2.139   0.025  -0.775  0.00  0.00    +0.024 A 
ATOM     24  C   UNL     1       1.213  -0.682  -0.018  0.00  0.00    +0.034 A 
ATOM     25  C   UNL     1       0.269  -0.001   0.738  0.00  0.00    +0.024 A 
ATOM     26  C   UNL     1       0.249   1.379   0.739  0.00  0.00    +0.016 A 
BRANCH  21  28
ATOM     27  C   UNL     1      -0.224   4.268   1.091  0.00  0.00    +0.090 C 
ATOM     28  S   UNL     1       1.150   3.849  -0.017  0.00  0.00    -0.129 S 
ENDBRANCH  21  28
ENDBRANCH  17  24
ENDBRANCH  16  18
ENDBRANCH   1  16
TORSDOF 7
