REMARK  Name = ZINC17192583
REMARK  7 active torsions:
REMARK  status: ('A' for Active; 'I' for Inactive)
REMARK    1  A    between atoms: C_4  and  N_7
REMARK    2  A    between atoms: C_8  and  C_24
REMARK    3  A    between atoms: C_11  and  S_12
REMARK    4  A    between atoms: S_12  and  C_13
REMARK    5  A    between atoms: C_13  and  C_14
REMARK    6  A    between atoms: N_16  and  C_17
REMARK    7  A    between atoms: C_24  and  C_25
REMARK                            x       y       z     vdW  Elec       q    Type
REMARK                         _______ _______ _______ _____ _____    ______ ____
ROOT
ATOM      1  N   UNL     1      -3.633   3.624   2.330  0.00  0.00    -0.274 N 
ATOM      2  C   UNL     1      -2.870   4.372   1.474  0.00  0.00    +0.144 A 
ATOM      3  N   UNL     1      -2.519   5.453   2.112  0.00  0.00    -0.133 NA
ATOM      4  N   UNL     1      -2.998   5.439   3.304  0.00  0.00    -0.122 NA
ATOM      5  C   UNL     1      -3.688   4.339   3.495  0.00  0.00    +0.197 A 
ENDROOT
BRANCH   1   9
ATOM      6  C   UNL     1      -5.411  -0.066   1.553  0.00  0.00    +0.000 A 
ATOM      7  C   UNL     1      -4.413   0.032   2.505  0.00  0.00    +0.002 A 
ATOM      8  C   UNL     1      -3.823   1.253   2.765  0.00  0.00    +0.026 A 
ATOM      9  C   UNL     1      -4.231   2.383   2.068  0.00  0.00    +0.050 A 
ATOM     10  C   UNL     1      -5.236   2.282   1.116  0.00  0.00    +0.026 A 
ATOM     11  C   UNL     1      -5.820   1.057   0.857  0.00  0.00    +0.002 A 
ENDBRANCH   1   9
BRANCH   5  12
ATOM     12  S   UNL     1      -4.531   3.874   4.971  0.00  0.00    -0.076 S 
BRANCH  12  13
ATOM     13  C   UNL     1      -4.148   5.302   6.015  0.00  0.00    +0.173 C 
BRANCH  13  14
ATOM     14  C   UNL     1      -4.785   5.120   7.369  0.00  0.00    +0.227 C 
ATOM     15  O   UNL     1      -5.434   4.123   7.605  0.00  0.00    -0.275 OA
ATOM     16  N   UNL     1      -4.633   6.065   8.318  0.00  0.00    -0.285 N 
ATOM     17  H   UNL     1      -4.059   6.830   8.153  0.00  0.00    +0.155 HD
BRANCH  16  18
ATOM     18  C   UNL     1      -5.303   5.943   9.540  0.00  0.00    +0.033 A 
ATOM     19  C   UNL     1      -5.769   7.077  10.194  0.00  0.00    +0.025 A 
ATOM     20  C   UNL     1      -6.434   6.953  11.399  0.00  0.00    +0.022 A 
ATOM     21  C   UNL     1      -6.627   5.703  11.959  0.00  0.00    +0.041 A 
ATOM     22  C   UNL     1      -6.159   4.572  11.312  0.00  0.00    +0.022 A 
ATOM     23  C   UNL     1      -5.498   4.690  10.105  0.00  0.00    +0.025 A 
ATOM     24 CL   UNL     1      -7.458   5.552  13.475  0.00  0.00    -0.084 Cl
ENDBRANCH  16  18
ENDBRANCH  13  14
ENDBRANCH  12  13
ENDBRANCH   5  12
BRANCH   2  25
ATOM     25  C   UNL     1      -2.509   4.015   0.055  0.00  0.00    +0.130 C 
BRANCH  25  26
ATOM     26  C   UNL     1      -1.216   3.241   0.045  0.00  0.00    +0.033 A 
ATOM     27  C   UNL     1      -1.234   1.891   0.034  0.00  0.00    +0.091 A 
ATOM     28  C   UNL     1      -0.006   1.186   0.029  0.00  0.00    +0.254 A 
ATOM     29  O   UNL     1       0.003  -0.032   0.023  0.00  0.00    -0.268 OA
ATOM     30  N   UNL     1       1.153   1.875   0.027  0.00  0.00    -0.275 N 
ATOM     31  H   UNL     1       2.024   1.385   0.020  0.00  0.00    +0.173 HD
ATOM     32  C   UNL     1       1.141   3.221   0.035  0.00  0.00    +0.327 A 
ATOM     33  O   UNL     1       2.194   3.829   0.033  0.00  0.00    -0.247 OA
ATOM     34  N   UNL     1      -0.018   3.903   0.043  0.00  0.00    -0.311 N 
ATOM     35  H   UNL     1      -0.005   4.903   0.048  0.00  0.00    +0.170 HD
ENDBRANCH  25  26
ENDBRANCH   2  25
TORSDOF 7
