REMARK  Name = ZINC20879849
REMARK  6 active torsions:
REMARK  status: ('A' for Active; 'I' for Inactive)
REMARK    1  A    between atoms: C_1  and  C_2
REMARK    2  A    between atoms: C_2  and  O_3
REMARK    3  A    between atoms: O_3  and  C_4
REMARK    4  A    between atoms: C_5  and  C_12
REMARK    5  A    between atoms: C_12  and  N_13
REMARK    6  A    between atoms: N_13  and  C_14
REMARK                            x       y       z     vdW  Elec       q    Type
REMARK                         _______ _______ _______ _____ _____    ______ ____
ROOT
ATOM      1  N   UNL     1       3.584   2.132  -0.022  0.00  0.00    -0.340 N 
ATOM      2  H   UNL     1       4.546   1.599  -0.035  0.00  0.00    +0.146 HD
ENDROOT
BRANCH   1   3
ATOM      3  C   UNL     1       2.385   1.412  -0.014  0.00  0.00    +0.029 A 
ATOM      4  C   UNL     1       1.170   2.088   0.002  0.00  0.00    +0.025 A 
ATOM      5  C   UNL     1      -0.017   1.382   0.010  0.00  0.00    +0.029 A 
ATOM      6  C   UNL     1       0.002  -0.004   0.002  0.00  0.00    +0.067 A 
ATOM      7  C   UNL     1       1.221  -0.686  -0.013  0.00  0.00    +0.069 A 
ATOM      8  C   UNL     1       2.411   0.025  -0.021  0.00  0.00    +0.050 A 
ATOM      9  N   UNL     1       0.921  -2.046  -0.017  0.00  0.00    -0.306 N 
ATOM     10  H   UNL     1       1.734  -2.788  -0.029  0.00  0.00    +0.170 HD
ATOM     11  C   UNL     1      -0.417  -2.187  -0.005  0.00  0.00    +0.325 A 
ATOM     12  O   UNL     1      -1.010  -3.250  -0.005  0.00  0.00    -0.247 OA
ATOM     13  N   UNL     1      -1.001  -0.974   0.007  0.00  0.00    -0.306 N 
ATOM     14  H   UNL     1      -2.059  -0.671   0.019  0.00  0.00    +0.170 HD
ENDBRANCH   1   3
BRANCH   1  15
ATOM     15  C   UNL     1       3.559   3.597  -0.015  0.00  0.00    +0.140 C 
BRANCH  15  17
ATOM     16  C   UNL     1       5.684   4.172  -1.215  0.00  0.00    +0.139 A 
ATOM     17  C   UNL     1       4.971   4.124  -0.026  0.00  0.00    +0.013 A 
ATOM     18  C   UNL     1       5.558   4.554   1.148  0.00  0.00    +0.024 A 
ATOM     19  C   UNL     1       6.854   5.037   1.139  0.00  0.00    +0.019 A 
ATOM     20  C   UNL     1       7.566   5.091  -0.046  0.00  0.00    +0.034 A 
ATOM     21  C   UNL     1       6.983   4.662  -1.224  0.00  0.00    +0.061 A 
ATOM     22 BR   UNL     1       7.956   4.734  -2.843  0.00  0.00    -0.046 Br
ATOM     23 BR   UNL     1       7.655   5.625   2.748  0.00  0.00    -0.050 Br
BRANCH  16  24
ATOM     24  O   UNL     1       5.110   3.744  -2.371  0.00  0.00    -0.491 OA
BRANCH  24  26
ATOM     25  C   UNL     1       3.825   4.052  -4.394  0.00  0.00    +0.048 C 
ATOM     26  C   UNL     1       4.396   4.714  -3.139  0.00  0.00    +0.226 C 
ENDBRANCH  24  26
ENDBRANCH  16  24
ENDBRANCH  15  17
ENDBRANCH   1  15
TORSDOF 5
