REMARK  Name = ZINC65816726
REMARK  4 active torsions:
REMARK  status: ('A' for Active; 'I' for Inactive)
REMARK    1  A    between atoms: C_3  and  N_10
REMARK    2  A    between atoms: C_6  and  C_7
REMARK    3  A    between atoms: N_13  and  C_14
REMARK    4  A    between atoms: C_14  and  C_18
REMARK                            x       y       z     vdW  Elec       q    Type
REMARK                         _______ _______ _______ _____ _____    ______ ____
ROOT
ATOM      1  N   UNL     1       4.414   3.660  -1.029  0.00  0.00    -0.269 N 
ATOM      2  C   UNL     1       5.543   2.927  -1.096  0.00  0.00    +0.305 C 
ATOM      3  O   UNL     1       6.318   3.088  -2.019  0.00  0.00    -0.252 OA
ATOM      4  N   UNL     1       5.813   2.016  -0.141  0.00  0.00    -0.290 N 
ATOM      5  H   UNL     1       3.828   3.579  -0.260  0.00  0.00    +0.156 HD
ATOM      6  H   UNL     1       5.161   1.834   0.554  0.00  0.00    +0.151 HD
ENDROOT
BRANCH   1   9
ATOM      7  C   UNL     1       4.777   6.082  -3.763  0.00  0.00    +0.015 A 
ATOM      8  C   UNL     1       5.095   5.217  -2.739  0.00  0.00    +0.024 A 
ATOM      9  C   UNL     1       4.088   4.535  -2.064  0.00  0.00    +0.035 A 
ATOM     10  C   UNL     1       2.756   4.723  -2.421  0.00  0.00    +0.024 A 
ATOM     11  C   UNL     1       2.431   5.586  -3.443  0.00  0.00    +0.015 A 
ATOM     12  C   UNL     1       3.441   6.273  -4.123  0.00  0.00    +0.037 A 
BRANCH  12  13
ATOM     13  C   UNL     1       3.095   7.199  -5.219  0.00  0.00    +0.242 C 
ATOM     14  O   UNL     1       3.975   7.796  -5.810  0.00  0.00    -0.270 OA
ATOM     15  N   UNL     1       1.806   7.383  -5.566  0.00  0.00    -0.325 N 
ATOM     16  H   UNL     1       1.105   6.907  -5.094  0.00  0.00    +0.145 HD
ATOM     17  H   UNL     1       1.579   7.991  -6.286  0.00  0.00    +0.145 HD
ENDBRANCH  12  13
ENDBRANCH   1   9
BRANCH   4  18
ATOM     18  C   UNL     1       7.092   1.300  -0.151  0.00  0.00    +0.061 C 
ATOM     19  C   UNL     1       7.549   0.836   1.242  0.00  0.00    +0.031 C 
ATOM     20  C   UNL     1       8.251   2.198   1.378  0.00  0.00    +0.005 C 
ATOM     21  C   UNL     1       8.317   2.229  -0.158  0.00  0.00    +0.031 C 
BRANCH  18  22
ATOM     22  C   UNL     1       7.148   0.218  -1.198  0.00  0.00    -0.024 A 
ATOM     23  C   UNL     1       8.363  -0.338  -1.552  0.00  0.00    +0.007 A 
ATOM     24  C   UNL     1       8.416  -1.331  -2.512  0.00  0.00    +0.015 A 
ATOM     25  C   UNL     1       7.252  -1.767  -3.120  0.00  0.00    +0.018 A 
ATOM     26  C   UNL     1       6.037  -1.210  -2.766  0.00  0.00    +0.015 A 
ATOM     27  C   UNL     1       5.985  -0.221  -1.802  0.00  0.00    +0.007 A 
ATOM     28 BR   UNL     1       7.323  -3.125  -4.434  0.00  0.00    -0.050 Br
ENDBRANCH  18  22
ENDBRANCH   4  18
TORSDOF 4
