REMARK  Name = ZINC01006972
REMARK  6 active torsions:
REMARK  status: ('A' for Active; 'I' for Inactive)
REMARK    1  A    between atoms: C_4  and  C_7
REMARK    2  A    between atoms: C_7  and  C_9
REMARK    3  A    between atoms: C_11  and  C_23
REMARK    4  A    between atoms: C_17  and  C_18
REMARK    5  A    between atoms: C_17  and  O_22
REMARK    6  A    between atoms: C_27  and  O_29
REMARK                            x       y       z     vdW  Elec       q    Type
REMARK                         _______ _______ _______ _____ _____    ______ ____
ROOT
ATOM      1  C   UNL     1       0.897   4.096   1.437  0.00  0.00    +0.144 C 
ATOM      2  C   UNL     1       1.146   3.595   0.010  0.00  0.00    +0.120 C 
ATOM      3  N   UNL     1       0.071   4.072  -0.862  0.00  0.00    -0.292 N 
ATOM      4  C   UNL     1      -0.577   5.218  -0.606  0.00  0.00    +0.302 C 
ATOM      5  O   UNL     1      -1.456   5.574  -1.367  0.00  0.00    -0.253 OA
ATOM      6  N   UNL     1      -0.294   5.988   0.455  0.00  0.00    -0.264 N 
ATOM      7  C   UNL     1       0.761   5.622   1.401  0.00  0.00    +0.243 C 
ATOM      8  H   UNL     1      -0.178   3.547  -1.639  0.00  0.00    +0.151 HD
ATOM      9  H   UNL     1      -0.797   6.805   0.598  0.00  0.00    +0.153 HD
ENDROOT
BRANCH   2  10
ATOM     10  C   UNL     1       1.170   2.088   0.002  0.00  0.00    -0.023 A 
ATOM     11  C   UNL     1      -0.017   1.378   0.010  0.00  0.00    +0.006 A 
ATOM     12  C   UNL     1       0.002  -0.004   0.002  0.00  0.00    +0.004 A 
ATOM     13  C   UNL     1       1.207  -0.680  -0.013  0.00  0.00    +0.045 A 
ATOM     14  C   UNL     1       2.399   0.030  -0.020  0.00  0.00    +0.117 A 
ATOM     15  C   UNL     1       2.377   1.417  -0.013  0.00  0.00    +0.051 A 
BRANCH  14  16
ATOM     16  O   UNL     1       3.586  -0.632  -0.035  0.00  0.00    -0.507 OA
ATOM     17  H   UNL     1       3.921  -0.819  -0.923  0.00  0.00    +0.292 HD
ENDBRANCH  14  16
ENDBRANCH   2  10
BRANCH   7  18
ATOM     18  C   UNL     1       0.398   6.135   2.796  0.00  0.00    +0.436 C 
ATOM     19  F   UNL     1       1.403   5.778   3.701  0.00  0.00    -0.166 F 
ATOM     20  F   UNL     1       0.275   7.528   2.763  0.00  0.00    -0.166 F 
ATOM     21  F   UNL     1      -0.816   5.569   3.200  0.00  0.00    -0.166 F 
ENDBRANCH   7  18
BRANCH   1  22
ATOM     22  C   UNL     1       2.058   3.711   2.318  0.00  0.00    +0.173 C 
ATOM     23  O   UNL     1       3.170   3.611   1.845  0.00  0.00    -0.292 OA
BRANCH  22  27
ATOM     24  C   UNL     1       1.433   2.981   6.449  0.00  0.00    +0.000 A 
ATOM     25  C   UNL     1       2.704   2.865   5.914  0.00  0.00    +0.001 A 
ATOM     26  C   UNL     1       2.916   3.100   4.572  0.00  0.00    +0.011 A 
ATOM     27  C   UNL     1       1.841   3.457   3.751  0.00  0.00    +0.018 A 
ATOM     28  C   UNL     1       0.561   3.578   4.301  0.00  0.00    +0.011 A 
ATOM     29  C   UNL     1       0.365   3.334   5.644  0.00  0.00    +0.001 A 
ENDBRANCH  22  27
ENDBRANCH   1  22
BRANCH   7  30
ATOM     30  O   UNL     1       1.999   6.202   0.985  0.00  0.00    -0.364 OA
ATOM     31  H   UNL     1       1.986   7.168   0.940  0.00  0.00    +0.212 HD
ENDBRANCH   7  30
TORSDOF 6
