REMARK  Name = ZINC03670543
REMARK  6 active torsions:
REMARK  status: ('A' for Active; 'I' for Inactive)
REMARK    1  A    between atoms: C_6  and  N_7
REMARK    2  A    between atoms: C_17  and  C_18
REMARK    3  A    between atoms: C_17  and  O_29
REMARK    4  A    between atoms: N_20  and  C_21
REMARK    5  A    between atoms: C_21  and  C_22
REMARK    6  A    between atoms: C_22  and  C_23
REMARK                            x       y       z     vdW  Elec       q    Type
REMARK                         _______ _______ _______ _____ _____    ______ ____
ROOT
ATOM      1  N   UNL     1       1.159   1.869   0.001  0.00  0.00    -0.214 N 
ATOM      2  C   UNL     1       0.067   1.339   0.581  0.00  0.00    +0.314 C 
ATOM      3  O   UNL     1       0.156   0.237   1.087  0.00  0.00    -0.252 OA
ATOM      4  N   UNL     1      -1.115   1.966   0.621  0.00  0.00    -0.269 N 
ATOM      5  C   UNL     1      -1.322   3.233   0.074  0.00  0.00    +0.043 A 
ATOM      6  C   UNL     1      -2.567   3.843   0.148  0.00  0.00    +0.025 A 
ATOM      7  C   UNL     1      -2.753   5.096  -0.404  0.00  0.00    +0.017 A 
ATOM      8  C   UNL     1      -1.705   5.747  -1.030  0.00  0.00    +0.018 A 
ATOM      9  C   UNL     1      -0.460   5.143  -1.105  0.00  0.00    +0.025 A 
ATOM     10  C   UNL     1      -0.273   3.895  -0.556  0.00  0.00    +0.034 A 
ATOM     11  C   UNL     1       1.069   3.202  -0.618  0.00  0.00    +0.247 C 
ATOM     12 BR   UNL     1      -1.970   7.461  -1.782  0.00  0.00    -0.050 Br
ATOM     13  H   UNL     1      -1.861   1.521   1.053  0.00  0.00    +0.156 HD
ENDROOT
BRANCH   1  19
ATOM     14  C   UNL     1       2.608   0.216  -1.001  0.00  0.00    +0.025 A 
ATOM     15  C   UNL     1       3.803  -0.476  -1.016  0.00  0.00    +0.022 A 
ATOM     16  C   UNL     1       4.756  -0.236  -0.042  0.00  0.00    +0.041 A 
ATOM     17  C   UNL     1       4.516   0.702   0.947  0.00  0.00    +0.022 A 
ATOM     18  C   UNL     1       3.325   1.401   0.964  0.00  0.00    +0.025 A 
ATOM     19  C   UNL     1       2.368   1.162  -0.013  0.00  0.00    +0.041 A 
ATOM     20 CL   UNL     1       6.254  -1.113  -0.060  0.00  0.00    -0.084 Cl
ENDBRANCH   1  19
BRANCH  11  21
ATOM     21  C   UNL     1       1.457   3.069  -2.068  0.00  0.00    +0.269 C 
ATOM     22  O   UNL     1       2.403   3.691  -2.502  0.00  0.00    -0.270 OA
ATOM     23  N   UNL     1       0.751   2.260  -2.883  0.00  0.00    -0.311 N 
ATOM     24  H   UNL     1      -0.006   1.762  -2.535  0.00  0.00    +0.149 HD
BRANCH  23  25
ATOM     25  C   UNL     1       1.129   2.130  -4.292  0.00  0.00    +0.108 C 
BRANCH  25  26
ATOM     26  C   UNL     1       0.174   1.158  -4.988  0.00  0.00    +0.049 C 
BRANCH  26  27
ATOM     27  C   UNL     1       0.562   1.025  -6.439  0.00  0.00    -0.072 C 
ATOM     28  C   UNL     1       1.338   0.043  -6.772  0.00  0.00    -0.028 C 
ATOM     29  C   UNL     1       1.813  -0.215  -8.171  0.00  0.00    +0.027 C 
ATOM     30  C   UNL     1       0.950   0.555  -9.173  0.00  0.00    +0.004 C 
ATOM     31  C   UNL     1       0.842   2.011  -8.702  0.00  0.00    +0.005 C 
ATOM     32  C   UNL     1       0.030   2.042  -7.405  0.00  0.00    +0.030 C 
ENDBRANCH  26  27
ENDBRANCH  25  26
ENDBRANCH  23  25
ENDBRANCH  11  21
BRANCH  11  33
ATOM     33  O   UNL     1       2.030   4.049   0.016  0.00  0.00    -0.360 OA
ATOM     34  H   UNL     1       2.045   4.953  -0.327  0.00  0.00    +0.213 HD
ENDBRANCH  11  33
TORSDOF 6
