REMARK  Name = ZINC54621213
REMARK  7 active torsions:
REMARK  status: ('A' for Active; 'I' for Inactive)
REMARK    1  A    between atoms: C_6  and  C_12
REMARK    2  A    between atoms: C_7  and  O_11
REMARK    3  A    between atoms: C_12  and  C_14
REMARK    4  A    between atoms: C_12  and  N_19
REMARK    5  A    between atoms: N_19  and  C_20
REMARK    6  A    between atoms: C_23  and  S_26
REMARK    7  A    between atoms: S_26  and  N_29
REMARK                            x       y       z     vdW  Elec       q    Type
REMARK                         _______ _______ _______ _____ _____    ______ ____
ROOT
ATOM      1  C   UNL     1       5.995  -0.906  -0.060  0.00  0.00    +0.141 C 
ENDROOT
BRANCH   1   7
ATOM      2  C   UNL     1      -0.043   1.248   0.502  0.00  0.00    +0.020 A 
ATOM      3  C   UNL     1       1.104   1.971   0.334  0.00  0.00    +0.011 A 
ATOM      4  C   UNL     1       2.321   1.272   0.235  0.00  0.00    +0.004 A 
ATOM      5  C   UNL     1       3.540   1.947   0.062  0.00  0.00    +0.010 A 
ATOM      6  C   UNL     1       4.699   1.237  -0.030  0.00  0.00    +0.010 A 
ATOM      7  C   UNL     1       4.694  -0.153   0.046  0.00  0.00    +0.021 A 
ATOM      8  C   UNL     1       3.528  -0.845   0.214  0.00  0.00    +0.148 A 
ATOM      9  C   UNL     1       2.309  -0.143   0.313  0.00  0.00    +0.113 A 
ATOM     10  N   UNL     1       1.152  -0.790   0.478  0.00  0.00    -0.251 NA
ATOM     11  C   UNL     1       0.016  -0.142   0.571  0.00  0.00    +0.111 A 
BRANCH   8  12
ATOM     12  O   UNL     1       3.543  -2.201   0.284  0.00  0.00    -0.504 OA
ATOM     13  H   UNL     1       3.646  -2.547   1.181  0.00  0.00    +0.292 HD
ENDBRANCH   8  12
ENDBRANCH   1   7
BRANCH   1  14
ATOM     14  C   UNL     1       6.236  -1.294  -1.497  0.00  0.00    +0.014 A 
ATOM     15  C   UNL     1       6.020  -2.484  -2.108  0.00  0.00    +0.013 A 
ATOM     16  C   UNL     1       6.317  -2.611  -3.451  0.00  0.00    +0.008 A 
ATOM     17  C   UNL     1       6.816  -1.542  -4.119  0.00  0.00    +0.045 A 
ATOM     18  S   UNL     1       6.872  -0.300  -2.837  0.00  0.00    -0.099 S 
ENDBRANCH   1  14
BRANCH   1  19
ATOM     19  N   UNL     1       7.092  -0.055   0.406  0.00  0.00    -0.332 N 
ATOM     20  H   UNL     1       6.997   0.910   0.389  0.00  0.00    +0.147 HD
BRANCH  19  21
ATOM     21  C   UNL     1       8.274  -0.632   0.876  0.00  0.00    +0.028 A 
ATOM     22  C   UNL     1       8.413  -2.014   0.896  0.00  0.00    +0.025 A 
ATOM     23  C   UNL     1       9.583  -2.583   1.360  0.00  0.00    +0.030 A 
ATOM     24  C   UNL     1      10.615  -1.777   1.806  0.00  0.00    +0.105 A 
ATOM     25  C   UNL     1      10.479  -0.401   1.787  0.00  0.00    +0.030 A 
ATOM     26  C   UNL     1       9.314   0.174   1.319  0.00  0.00    +0.025 A 
BRANCH  24  27
ATOM     27  S   UNL     1      12.105  -2.506   2.398  0.00  0.00    +0.056 S 
ATOM     28  O   UNL     1      12.706  -1.554   3.266  0.00  0.00    -0.153 OA
ATOM     29  O   UNL     1      11.774  -3.821   2.823  0.00  0.00    -0.153 OA
BRANCH  27  30
ATOM     30  N   UNL     1      13.120  -2.670   1.100  0.00  0.00    -0.204 NA
ATOM     31  H   UNL     1      12.833  -2.379   0.221  0.00  0.00    +0.144 HD
ATOM     32  H   UNL     1      14.002  -3.055   1.220  0.00  0.00    +0.144 HD
ENDBRANCH  27  30
ENDBRANCH  24  27
ENDBRANCH  19  21
ENDBRANCH   1  19
TORSDOF 7
