REMARK  Name = ZINC13062667
REMARK  5 active torsions:
REMARK  status: ('A' for Active; 'I' for Inactive)
REMARK    1  A    between atoms: N_13  and  C_17
REMARK    2  A    between atoms: C_17  and  C_18
REMARK    3  A    between atoms: C_18  and  C_20
REMARK    4  A    between atoms: C_23  and  S_26
REMARK    5  A    between atoms: S_26  and  N_29
REMARK                            x       y       z     vdW  Elec       q    Type
REMARK                         _______ _______ _______ _____ _____    ______ ____
ROOT
ATOM      1  C   UNL     1       4.579  -0.640   6.097  0.00  0.00    +0.197 C 
ENDROOT
BRANCH   1  14
ATOM      2  C   UNL     1       6.346   3.532   9.771  0.00  0.00    +0.001 A 
ATOM      3  C   UNL     1       7.488   3.930  10.442  0.00  0.00    +0.004 A 
ATOM      4  C   UNL     1       8.603   3.117  10.447  0.00  0.00    +0.046 A 
ATOM      5  C   UNL     1       8.583   1.897   9.779  0.00  0.00    +0.126 A 
ATOM      6  C   UNL     1       7.437   1.499   9.110  0.00  0.00    +0.027 A 
ATOM      7  C   UNL     1       6.322   2.321   9.107  0.00  0.00    +0.010 A 
ATOM      8  C   UNL     1       7.380   0.185   8.384  0.00  0.00    +0.144 C 
ATOM      9  C   UNL     1       8.784  -0.365   8.151  0.00  0.00    +0.081 C 
ATOM     10  C   UNL     1       9.569  -0.257   9.465  0.00  0.00    +0.232 C 
ATOM     11  O   UNL     1       9.700   1.125   9.801  0.00  0.00    -0.492 OA
ATOM     12  C   UNL     1       6.652   0.335   7.069  0.00  0.00    +0.252 C 
ATOM     13  O   UNL     1       6.967   1.036   6.131  0.00  0.00    -0.272 OA
ATOM     14  N   UNL     1       5.575  -0.474   7.158  0.00  0.00    -0.216 N 
ATOM     15  C   UNL     1       5.534  -1.110   8.335  0.00  0.00    +0.310 C 
ATOM     16  O   UNL     1       4.661  -1.895   8.649  0.00  0.00    -0.252 OA
ATOM     17  N   UNL     1       6.567  -0.782   9.134  0.00  0.00    -0.281 N 
ATOM     18  H   UNL     1       6.741  -1.117  10.027  0.00  0.00    +0.152 HD
ENDBRANCH   1  14
BRANCH   1  19
ATOM     19  C   UNL     1       3.475   0.369   6.281  0.00  0.00    +0.181 C 
ATOM     20  O   UNL     1       3.517   1.150   7.208  0.00  0.00    -0.290 OA
BRANCH  19  21
ATOM     21  C   UNL     1       2.348   0.407   5.337  0.00  0.00    +0.019 A 
ATOM     22  C   UNL     1       1.321   1.342   5.505  0.00  0.00    +0.013 A 
ATOM     23  C   UNL     1       0.268   1.371   4.616  0.00  0.00    +0.029 A 
ATOM     24  C   UNL     1       0.224   0.478   3.559  0.00  0.00    +0.106 A 
ATOM     25  C   UNL     1       1.234  -0.454   3.389  0.00  0.00    +0.029 A 
ATOM     26  C   UNL     1       2.296  -0.492   4.267  0.00  0.00    +0.013 A 
BRANCH  24  27
ATOM     27  S   UNL     1      -1.127   0.522   2.429  0.00  0.00    +0.061 S 
ATOM     28  O   UNL     1      -2.215   1.118   3.120  0.00  0.00    -0.153 OA
ATOM     29  O   UNL     1      -1.210  -0.770   1.845  0.00  0.00    -0.153 OA
BRANCH  27  30
ATOM     30  N   UNL     1      -0.712   1.565   1.211  0.00  0.00    -0.172 NA
ATOM     31  C   UNL     1      -0.013   1.086   0.008  0.00  0.00    +0.137 C 
ATOM     32  C   UNL     1      -0.764   1.599  -1.226  0.00  0.00    +0.177 C 
ATOM     33  O   UNL     1      -0.940   3.013  -1.115  0.00  0.00    -0.377 OA
ATOM     34  C   UNL     1      -1.734   3.419   0.003  0.00  0.00    +0.177 C 
ATOM     35  C   UNL     1      -1.032   2.999   1.299  0.00  0.00    +0.137 C 
ENDBRANCH  27  30
ENDBRANCH  24  27
ENDBRANCH  19  21
ENDBRANCH   1  19
TORSDOF 5
