REMARK  Name = ZINC40378693
REMARK  5 active torsions:
REMARK  status: ('A' for Active; 'I' for Inactive)
REMARK    1  A    between atoms: C_3  and  N_12
REMARK    2  A    between atoms: C_6  and  S_7
REMARK    3  A    between atoms: S_7  and  N_10
REMARK    4  A    between atoms: C_13  and  C_15
REMARK    5  A    between atoms: C_15  and  N_16
REMARK                            x       y       z     vdW  Elec       q    Type
REMARK                         _______ _______ _______ _____ _____    ______ ____
ROOT
ATOM      1  C   UNL     1      -0.019   1.391  -0.017  0.00  0.00    +0.030 A 
ATOM      2  C   UNL     1       1.169   2.095  -0.015  0.00  0.00    +0.026 A 
ATOM      3  C   UNL     1       2.378   1.414  -0.023  0.00  0.00    +0.048 A 
ATOM      4  C   UNL     1       2.390   0.024  -0.034  0.00  0.00    +0.041 A 
ATOM      5  C   UNL     1       1.198  -0.674  -0.036  0.00  0.00    +0.045 A 
ATOM      6  C   UNL     1      -0.005   0.008  -0.028  0.00  0.00    +0.106 A 
ATOM      7 BR   UNL     1       4.034  -0.909  -0.045  0.00  0.00    -0.048 Br
ENDROOT
BRANCH   3   8
ATOM      8  N   UNL     1       3.584   2.125  -0.021  0.00  0.00    -0.283 N 
ATOM      9  C   UNL     1       3.627   3.376   0.478  0.00  0.00    +0.239 C 
ATOM     10  O   UNL     1       2.648   3.849   1.016  0.00  0.00    -0.273 OA
ATOM     11  H   UNL     1       4.388   1.718  -0.379  0.00  0.00    +0.155 HD
BRANCH   9  12
ATOM     12  C   UNL     1       4.892   4.188   0.368  0.00  0.00    +0.242 C 
BRANCH  12  13
ATOM     13  N   UNL     1       4.684   5.502   0.981  0.00  0.00    -0.223 N 
ATOM     14  C   UNL     1       5.432   6.059   1.952  0.00  0.00    +0.245 A 
ATOM     15  N   UNL     1       4.905   7.231   2.208  0.00  0.00    -0.117 NA
ATOM     16  N   UNL     1       3.886   7.386   1.435  0.00  0.00    -0.023 NA
ATOM     17  N   UNL     1       3.753   6.346   0.688  0.00  0.00    -0.044 NA
ENDBRANCH  12  13
ENDBRANCH   9  12
ENDBRANCH   3   8
BRANCH   6  18
ATOM     18  S   UNL     1      -1.523  -0.886  -0.031  0.00  0.00    +0.056 S 
ATOM     19  O   UNL     1      -1.239  -2.170   0.510  0.00  0.00    -0.153 OA
ATOM     20  O   UNL     1      -2.504  -0.024   0.529  0.00  0.00    -0.153 OA
BRANCH  18  21
ATOM     21  N   UNL     1      -1.949  -1.123  -1.613  0.00  0.00    -0.204 NA
ATOM     22  H   UNL     1      -2.459  -1.909  -1.867  0.00  0.00    +0.144 HD
ATOM     23  H   UNL     1      -1.689  -0.476  -2.288  0.00  0.00    +0.144 HD
ENDBRANCH  18  21
ENDBRANCH   6  18
TORSDOF 5
