REMARK  Name = ZINC01587259
REMARK  2 active torsions:
REMARK  status: ('A' for Active; 'I' for Inactive)
REMARK    1  A    between atoms: C_2  and  C_11
REMARK    2  A    between atoms: C_6  and  N_7
REMARK                            x       y       z     vdW  Elec       q    Type
REMARK                         _______ _______ _______ _____ _____    ______ ____
ROOT
ATOM      1  C   UNL     1       1.166   2.180   0.003  0.00  0.00    +0.049 A 
ATOM      2  C   UNL     1       1.146   3.577   0.010  0.00  0.00    +0.040 A 
ATOM      3  C   UNL     1      -0.076   4.255   0.025  0.00  0.00    +0.031 A 
ATOM      4  C   UNL     1      -1.256   3.543   0.032  0.00  0.00    +0.063 A 
ATOM      5  C   UNL     1      -1.232   2.154   0.020  0.00  0.00    +0.222 A 
ATOM      6  C   UNL     1      -0.018   1.476   0.010  0.00  0.00    +0.174 A 
ATOM      7  I   UNL     1      -3.089   4.558   0.054  0.00  0.00    -0.040 I 
ATOM      8  O   UNL     1      -2.396   1.456   0.021  0.00  0.00    -0.284 OA
ENDROOT
BRANCH   2   9
ATOM      9  C   UNL     1       2.412   4.335   0.002  0.00  0.00    +0.242 C 
ATOM     10  O   UNL     1       3.475   3.744  -0.010  0.00  0.00    -0.270 OA
ATOM     11  N   UNL     1       2.391   5.682   0.009  0.00  0.00    -0.325 N 
ATOM     12  H   UNL     1       1.544   6.154   0.019  0.00  0.00    +0.145 HD
ATOM     13  H   UNL     1       3.224   6.181   0.004  0.00  0.00    +0.145 HD
ENDBRANCH   2   9
BRANCH   6  14
ATOM     14  N   UNL     1       0.002  -0.004   0.002  0.00  0.00    +0.060 N 
ATOM     15  O   UNL     1       1.065  -0.599  -0.011  0.00  0.00    -0.126 OA
ATOM     16  O   UNL     1      -1.044  -0.627   0.009  0.00  0.00    -0.126 OA
ENDBRANCH   6  14
TORSDOF 2
