REMARK  Name = ZINC06382137
REMARK  7 active torsions:
REMARK  status: ('A' for Active; 'I' for Inactive)
REMARK    1  A    between atoms: C_1  and  C_2
REMARK    2  A    between atoms: C_7  and  N_13
REMARK    3  A    between atoms: C_9  and  C_11
REMARK    4  A    between atoms: C_9  and  C_12
REMARK    5  A    between atoms: N_13  and  N_14
REMARK    6  A    between atoms: N_14  and  C_15
REMARK    7  A    between atoms: C_15  and  N_17
REMARK                            x       y       z     vdW  Elec       q    Type
REMARK                         _______ _______ _______ _____ _____    ______ ____
ROOT
ATOM      1  C   UNL     1      -0.014   1.502   0.010  0.00  0.00    +0.068 C 
ATOM      2  C   UNL     1       0.004  -0.004   0.002  0.00  0.00    +0.071 C 
ATOM      3  N   UNL     1      -0.081  -0.792  -1.052  0.00  0.00    -0.154 NA
ATOM      4  N   UNL     1      -0.041  -2.035  -0.715  0.00  0.00    -0.153 NA
ATOM      5  C   UNL     1       0.067  -2.168   0.570  0.00  0.00    +0.074 C 
ATOM      6  C   UNL     1       0.121  -0.850   1.112  0.00  0.00    +0.039 C 
ATOM      7  C   UNL     1       0.256  -0.609   2.477  0.00  0.00    +0.033 C 
ATOM      8  C   UNL     1       0.395  -1.808   3.391  0.00  0.00    +0.059 C 
ATOM      9  C   UNL     1      -0.385  -2.998   2.836  0.00  0.00    -0.024 C 
ATOM     10  C   UNL     1       0.132  -3.391   1.448  0.00  0.00    +0.064 C 
ATOM     11  C   UNL     1      -1.865  -2.625   2.729  0.00  0.00    +0.011 C 
ATOM     12  C   UNL     1      -0.233  -4.187   3.786  0.00  0.00    +0.011 C 
ENDROOT
BRANCH   7  13
ATOM     13  N   UNL     1       0.263   0.639   2.963  0.00  0.00    -0.269 N 
ATOM     14  H   UNL     1       0.099   1.390   2.372  0.00  0.00    +0.170 HD
BRANCH  13  15
ATOM     15  N   UNL     1       0.506   0.858   4.325  0.00  0.00    -0.248 N 
ATOM     16  H   UNL     1       0.742   0.115   4.902  0.00  0.00    +0.172 HD
BRANCH  15  17
ATOM     17  C   UNL     1       0.412   2.102   4.835  0.00  0.00    +0.144 C 
ATOM     18  S   UNL     1       0.709   2.371   6.499  0.00  0.00    -0.018 S 
BRANCH  17  19
ATOM     19  N   UNL     1       0.084   3.135   4.034  0.00  0.00    -0.340 N 
ATOM     20  H   UNL     1      -0.085   2.983   3.091  0.00  0.00    +0.144 HD
ATOM     21  H   UNL     1       0.016   4.031   4.400  0.00  0.00    +0.144 HD
ENDBRANCH  17  19
ENDBRANCH  15  17
ENDBRANCH  13  15
ENDBRANCH   7  13
TORSDOF 4
