REMARK  Name = ZINC05887422
REMARK  6 active torsions:
REMARK  status: ('A' for Active; 'I' for Inactive)
REMARK    1  A    between atoms: C_1  and  C_2
REMARK    2  A    between atoms: C_2  and  C_3
REMARK    3  A    between atoms: C_5  and  N_12
REMARK    4  A    between atoms: C_10  and  C_11
REMARK    5  A    between atoms: N_12  and  C_13
REMARK    6  A    between atoms: C_13  and  C_14
REMARK                            x       y       z     vdW  Elec       q    Type
REMARK                         _______ _______ _______ _____ _____    ______ ____
ROOT
ATOM      1  N   UNL     1       1.393   5.902   2.284  0.00  0.00    -0.331 N 
ATOM      2  H   UNL     1       2.173   5.443   2.633  0.00  0.00    +0.147 HD
ENDROOT
BRANCH   1   5
ATOM      3  C   UNL     1      -0.749   3.086   1.275  0.00  0.00    -0.027 A 
ATOM      4  C   UNL     1       0.345   3.799   1.787  0.00  0.00    +0.033 A 
ATOM      5  C   UNL     1       0.312   5.166   1.783  0.00  0.00    +0.093 A 
ATOM      6  C   UNL     1      -0.827   5.827   1.272  0.00  0.00    +0.270 A 
ATOM      7  O   UNL     1      -0.874   7.047   1.265  0.00  0.00    -0.266 OA
ATOM      8  N   UNL     1      -1.861   5.110   0.793  0.00  0.00    -0.325 N 
ATOM      9  H   UNL     1      -2.665   5.582   0.432  0.00  0.00    +0.169 HD
ATOM     10  C   UNL     1      -1.825   3.750   0.794  0.00  0.00    +0.019 A 
ATOM     11  C   UNL     1      -2.997   2.974   0.252  0.00  0.00    +0.063 C 
BRANCH   3  13
ATOM     12  C   UNL     1      -0.013   1.086   0.008  0.00  0.00    +0.009 C 
ATOM     13  C   UNL     1      -0.729   1.579   1.267  0.00  0.00    +0.033 C 
ENDBRANCH   3  13
ENDBRANCH   1   5
BRANCH   1  14
ATOM     14  C   UNL     1       1.347   7.367   2.280  0.00  0.00    +0.198 C 
BRANCH  14  15
ATOM     15  C   UNL     1       2.623   7.911   2.868  0.00  0.00    +0.214 A 
ATOM     16  N   UNL     1       3.693   8.191   2.188  0.00  0.00    -0.212 NA
ATOM     17  C   UNL     1       4.645   8.660   3.040  0.00  0.00    +0.111 A 
ATOM     18  C   UNL     1       5.958   9.104   2.873  0.00  0.00    +0.031 A 
ATOM     19  C   UNL     1       6.681   9.527   3.966  0.00  0.00    +0.004 A 
ATOM     20  C   UNL     1       6.113   9.514   5.231  0.00  0.00    +0.024 A 
ATOM     21  C   UNL     1       4.816   9.078   5.412  0.00  0.00    +0.085 A 
ATOM     22  C   UNL     1       4.073   8.648   4.321  0.00  0.00    +0.174 A 
ATOM     23  O   UNL     1       2.814   8.182   4.169  0.00  0.00    -0.437 OA
ATOM     24 CL   UNL     1       4.115   9.067   7.000  0.00  0.00    -0.080 Cl
ENDBRANCH  14  15
ENDBRANCH   1  14
TORSDOF 4
