REMARK  Name = ZINC05490067
REMARK  6 active torsions:
REMARK  status: ('A' for Active; 'I' for Inactive)
REMARK    1  A    between atoms: C_1  and  S_2
REMARK    2  A    between atoms: S_2  and  C_3
REMARK    3  A    between atoms: C_6  and  C_9
REMARK    4  A    between atoms: C_12  and  C_23
REMARK    5  A    between atoms: C_18  and  N_22
REMARK    6  A    between atoms: C_19  and  C_20
REMARK                            x       y       z     vdW  Elec       q    Type
REMARK                         _______ _______ _______ _____ _____    ______ ____
ROOT
ATOM      1  C   UNL     1       2.757  -1.525   4.784  0.00  0.00    +0.102 C 
ATOM      2  C   UNL     1       1.979  -2.225   5.867  0.00  0.00    +0.054 A 
ATOM      3  C   UNL     1       1.017  -1.708   6.741  0.00  0.00    +0.102 A 
ATOM      4  N   UNL     1       0.605  -2.691   7.519  0.00  0.00    -0.171 NA
ATOM      5  N   UNL     1       1.295  -3.859   7.158  0.00  0.00    -0.246 N 
ATOM      6  H   UNL     1       1.189  -4.733   7.566  0.00  0.00    +0.192 HD
ATOM      7  C   UNL     1       2.132  -3.552   6.146  0.00  0.00    +0.223 A 
ATOM      8  O   UNL     1       3.000  -4.346   5.471  0.00  0.00    -0.423 OA
ATOM      9  C   UNL     1       3.920  -3.744   4.689  0.00  0.00    +0.200 C 
ATOM     10  C   UNL     1       3.869  -2.440   4.336  0.00  0.00    +0.098 C 
ENDROOT
BRANCH   3  11
ATOM     11  C   UNL     1       0.544  -0.302   6.786  0.00  0.00    +0.021 A 
ATOM     12  C   UNL     1       1.463   0.745   6.785  0.00  0.00    +0.011 A 
ATOM     13  C   UNL     1       1.018   2.051   6.827  0.00  0.00    +0.001 A 
ATOM     14  C   UNL     1      -0.338   2.322   6.869  0.00  0.00    +0.001 A 
ATOM     15  C   UNL     1      -1.255   1.287   6.870  0.00  0.00    +0.020 A 
ATOM     16  C   UNL     1      -0.821  -0.024   6.823  0.00  0.00    +0.050 A 
ATOM     17 CL   UNL     1      -1.974  -1.322   6.818  0.00  0.00    -0.083 Cl
ENDBRANCH   3  11
BRANCH   1  21
ATOM     18  C   UNL     1       0.181  -0.661   1.485  0.00  0.00    +0.008 A 
ATOM     19  C   UNL     1       0.878   0.365   2.112  0.00  0.00    +0.015 A 
ATOM     20  C   UNL     1       1.709   0.082   3.177  0.00  0.00    +0.005 A 
ATOM     21  C   UNL     1       1.849  -1.220   3.621  0.00  0.00    -0.034 A 
ATOM     22  C   UNL     1       1.157  -2.244   2.999  0.00  0.00    +0.005 A 
ATOM     23  C   UNL     1       0.320  -1.968   1.937  0.00  0.00    +0.015 A 
BRANCH  18  25
ATOM     24  C   UNL     1      -0.734   1.490  -0.089  0.00  0.00    +0.090 C 
ATOM     25  S   UNL     1      -0.881  -0.305   0.125  0.00  0.00    -0.129 S 
ENDBRANCH  18  25
ENDBRANCH   1  21
BRANCH   9  26
ATOM     26  N   UNL     1       4.970  -4.498   4.228  0.00  0.00    -0.328 N 
ATOM     27  H   UNL     1       5.034  -5.437   4.465  0.00  0.00    +0.145 HD
ATOM     28  H   UNL     1       5.647  -4.093   3.664  0.00  0.00    +0.145 HD
ENDBRANCH   9  26
BRANCH  10  29
ATOM     29  C   UNL     1       4.907  -1.908   3.504  0.00  0.00    +0.101 C 
ATOM     30  N   UNL     1       5.731  -1.486   2.845  0.00  0.00    -0.191 NA
ENDBRANCH  10  29
TORSDOF 5
