REMARK  Name = ZINC09350098
REMARK  2 active torsions:
REMARK  status: ('A' for Active; 'I' for Inactive)
REMARK    1  A    between atoms: C_7  and  C_19
REMARK    2  A    between atoms: C_20  and  O_29
REMARK                            x       y       z     vdW  Elec       q    Type
REMARK                         _______ _______ _______ _____ _____    ______ ____
ROOT
ATOM      1  C   UNL     1       7.021   0.907  -1.249  0.00  0.00    +0.001 A 
ATOM      2  C   UNL     1       6.866  -0.467  -1.232  0.00  0.00    +0.004 A 
ATOM      3  C   UNL     1       5.671  -1.022  -0.822  0.00  0.00    +0.046 A 
ATOM      4  C   UNL     1       4.620  -0.202  -0.425  0.00  0.00    +0.134 A 
ATOM      5  C   UNL     1       4.778   1.174  -0.443  0.00  0.00    +0.007 A 
ATOM      6  C   UNL     1       5.979   1.725  -0.856  0.00  0.00    +0.008 A 
ATOM      7  C   UNL     1       3.656   2.082  -0.018  0.00  0.00    +0.103 C 
ATOM      8  C   UNL     1       2.351   1.338  -0.011  0.00  0.00    +0.091 A 
ATOM      9  C   UNL     1       1.144   2.047   0.002  0.00  0.00    +0.260 A 
ATOM     10  O   UNL     1       1.141   3.268   0.007  0.00  0.00    -0.267 OA
ATOM     11  N   UNL     1      -0.016   1.358   0.009  0.00  0.00    -0.301 N 
ATOM     12  H   UNL     1      -0.863   1.832   0.016  0.00  0.00    +0.171 HD
ATOM     13  C   UNL     1       0.002  -0.004   0.002  0.00  0.00    +0.183 A 
ATOM     14  N   UNL     1       1.136  -0.674  -0.011  0.00  0.00    -0.187 NA
ATOM     15  C   UNL     1       2.317  -0.043  -0.017  0.00  0.00    +0.232 A 
ATOM     16  O   UNL     1       3.455  -0.767  -0.027  0.00  0.00    -0.437 OA
ATOM     17  S   UNL     1      -1.522  -0.888   0.010  0.00  0.00    -0.011 SA
ENDROOT
BRANCH   7  18
ATOM     18  C   UNL     1       3.941   2.603   1.368  0.00  0.00    +0.088 A 
ATOM     19  C   UNL     1       4.085   3.940   1.588  0.00  0.00    +0.201 A 
ATOM     20  N   UNL     1       4.338   4.392   2.858  0.00  0.00    -0.306 N 
ATOM     21  H   UNL     1       4.438   5.343   3.020  0.00  0.00    +0.171 HD
ATOM     22  C   UNL     1       4.454   3.525   3.880  0.00  0.00    +0.161 A 
ATOM     23  S   UNL     1       4.776   4.114   5.455  0.00  0.00    -0.013 S 
ATOM     24  N   UNL     1       4.320   2.200   3.683  0.00  0.00    -0.302 N 
ATOM     25  H   UNL     1       4.407   1.591   4.432  0.00  0.00    +0.171 HD
ATOM     26  C   UNL     1       4.066   1.714   2.451  0.00  0.00    +0.260 A 
ATOM     27  O   UNL     1       3.945   0.514   2.278  0.00  0.00    -0.267 OA
BRANCH  19  28
ATOM     28  O   UNL     1       3.975   4.814   0.565  0.00  0.00    -0.493 OA
ATOM     29  H   UNL     1       4.094   5.738   0.822  0.00  0.00    +0.294 HD
ENDBRANCH  19  28
ENDBRANCH   7  18
TORSDOF 2
