REMARK  Name = ZINC38919857
REMARK  6 active torsions:
REMARK  status: ('A' for Active; 'I' for Inactive)
REMARK    1  A    between atoms: C_1  and  C_2
REMARK    2  A    between atoms: C_5  and  C_9
REMARK    3  A    between atoms: C_7  and  C_8
REMARK    4  A    between atoms: C_11  and  C_14
REMARK    5  A    between atoms: N_19  and  C_21
REMARK    6  A    between atoms: C_24  and  C_28
REMARK                            x       y       z     vdW  Elec       q    Type
REMARK                         _______ _______ _______ _____ _____    ______ ____
ROOT
ATOM      1  C   UNL     1       0.096  -7.467  -1.729  0.00  0.00    +0.104 C 
ATOM      2  C   UNL     1       1.302  -8.386  -1.426  0.00  0.00    +0.111 C 
ATOM      3  C   UNL     1       0.749  -9.425  -0.477  0.00  0.00    +0.221 C 
ATOM      4  O   UNL     1       1.419 -10.160   0.217  0.00  0.00    -0.275 OA
ATOM      5  N   UNL     1      -0.595  -9.416  -0.514  0.00  0.00    -0.271 N 
ATOM      6  C   UNL     1      -1.096  -8.414  -1.464  0.00  0.00    +0.127 C 
ENDROOT
BRANCH   5   7
ATOM      7  C   UNL     1      -1.412 -10.253   0.254  0.00  0.00    +0.039 A 
ATOM      8  C   UNL     1      -0.844 -11.247   1.042  0.00  0.00    +0.024 A 
ATOM      9  C   UNL     1      -1.652 -12.072   1.800  0.00  0.00    +0.008 A 
ATOM     10  C   UNL     1      -3.025 -11.911   1.775  0.00  0.00    -0.015 A 
ATOM     11  C   UNL     1      -3.595 -10.922   0.991  0.00  0.00    +0.128 A 
ATOM     12  C   UNL     1      -2.790 -10.089   0.235  0.00  0.00    +0.062 A 
ATOM     13  F   UNL     1      -4.937 -10.767   0.969  0.00  0.00    -0.205 F 
ATOM     14  C   UNL     1      -3.903 -12.814   2.603  0.00  0.00    +0.047 C 
ENDBRANCH   5   7
BRANCH   1  17
ATOM     15  C   UNL     1       0.021  -4.249  -0.053  0.00  0.00    +0.202 A 
ATOM     16  N   UNL     1       0.043  -5.035  -1.145  0.00  0.00    -0.191 NA
ATOM     17  C   UNL     1       0.066  -6.288  -0.791  0.00  0.00    +0.233 A 
ATOM     18  O   UNL     1       0.059  -6.352   0.547  0.00  0.00    -0.337 OA
ATOM     19  N   UNL     1       0.034  -5.011   1.012  0.00  0.00    -0.056 NA
BRANCH  15  24
ATOM     20  C   UNL     1      -0.095   1.510  -0.063  0.00  0.00    +0.044 C 
ATOM     21  C   UNL     1      -0.064   0.003  -0.060  0.00  0.00    -0.047 A 
ATOM     22  C   UNL     1      -0.047  -0.688  -1.259  0.00  0.00    +0.004 A 
ATOM     23  C   UNL     1      -0.020  -2.068  -1.262  0.00  0.00    +0.012 A 
ATOM     24  C   UNL     1      -0.009  -2.765  -0.056  0.00  0.00    +0.023 A 
ATOM     25  C   UNL     1      -0.025  -2.064   1.148  0.00  0.00    +0.015 A 
ATOM     26  C   UNL     1      -0.047  -0.684   1.140  0.00  0.00    -0.047 A 
ATOM     27  C   UNL     1      -0.059   0.076   2.441  0.00  0.00    +0.044 C 
ENDBRANCH  15  24
ENDBRANCH   1  17
TORSDOF 3
