REMARK  Name = ZINC17188155
REMARK  6 active torsions:
REMARK  status: ('A' for Active; 'I' for Inactive)
REMARK    1  A    between atoms: C_1  and  O_2
REMARK    2  A    between atoms: O_2  and  C_3
REMARK    3  A    between atoms: C_3  and  C_5
REMARK    4  A    between atoms: C_5  and  C_20
REMARK    5  A    between atoms: C_9  and  C_13
REMARK    6  A    between atoms: C_10  and  N_12
REMARK                            x       y       z     vdW  Elec       q    Type
REMARK                         _______ _______ _______ _____ _____    ______ ____
ROOT
ATOM      1  C   UNL     1       1.253   2.105   0.001  0.00  0.00    +0.089 C 
ATOM      2  C   UNL     1       2.445   1.438  -0.014  0.00  0.00    +0.190 C 
ATOM      3  C   UNL     1       3.790   2.043  -0.029  0.00  0.00    +0.234 C 
ATOM      4  O   UNL     1       4.069   3.232  -0.031  0.00  0.00    -0.283 OA
ATOM      5  C   UNL     1       4.691   0.948  -0.038  0.00  0.00    +0.090 C 
ATOM      6  C   UNL     1       3.926  -0.207  -0.037  0.00  0.00    +0.196 C 
ATOM      7  O   UNL     1       2.618   0.095  -0.023  0.00  0.00    -0.437 OA
ENDROOT
BRANCH   5   8
ATOM      8  C   UNL     1       6.170   1.025  -0.052  0.00  0.00    -0.009 A 
ATOM      9  C   UNL     1       6.853   1.569   1.036  0.00  0.00    +0.010 A 
ATOM     10  C   UNL     1       8.231   1.633   1.020  0.00  0.00    +0.020 A 
ATOM     11  C   UNL     1       8.935   1.169  -0.078  0.00  0.00    +0.041 A 
ATOM     12  C   UNL     1       8.262   0.633  -1.163  0.00  0.00    +0.020 A 
ATOM     13  C   UNL     1       6.885   0.559  -1.155  0.00  0.00    +0.010 A 
ATOM     14 CL   UNL     1      10.669   1.259  -0.095  0.00  0.00    -0.084 Cl
ENDBRANCH   5   8
BRANCH   1  15
ATOM     15  C   UNL     1       1.233   3.582   0.009  0.00  0.00    -0.009 A 
ATOM     16  C   UNL     1       1.739   4.284   1.106  0.00  0.00    +0.010 A 
ATOM     17  C   UNL     1       1.721   5.663   1.106  0.00  0.00    +0.020 A 
ATOM     18  C   UNL     1       1.194   6.351   0.025  0.00  0.00    +0.041 A 
ATOM     19  C   UNL     1       0.686   5.661  -1.063  0.00  0.00    +0.020 A 
ATOM     20  C   UNL     1       0.703   4.282  -1.077  0.00  0.00    +0.010 A 
ATOM     21 CL   UNL     1       1.170   8.087   0.035  0.00  0.00    -0.084 Cl
ENDBRANCH   1  15
BRANCH   1  22
ATOM     22  C   UNL     1      -0.016   1.349   0.009  0.00  0.00    +0.219 C 
ATOM     23  N   UNL     1      -1.151   1.984   0.018  0.00  0.00    -0.267 NA
ATOM     24  H   UNL     1      -1.166   3.083   0.024  0.00  0.00    +0.190 HD
BRANCH  22  26
ATOM     25  C   UNL     1      -1.262  -0.670   0.011  0.00  0.00    +0.279 C 
ATOM     26  O   UNL     1       0.002  -0.004   0.002  0.00  0.00    -0.480 OA
ENDBRANCH  22  26
ENDBRANCH   1  22
BRANCH   6  27
ATOM     27  N   UNL     1       4.433  -1.478  -0.049  0.00  0.00    -0.329 N 
ATOM     28  H   UNL     1       3.752  -2.341  -0.047  0.00  0.00    +0.145 HD
ATOM     29  H   UNL     1       5.521  -1.635  -0.060  0.00  0.00    +0.145 HD
ENDBRANCH   6  27
TORSDOF 5
