REMARK  Name = ZINC39793120
REMARK  8 active torsions:
REMARK  status: ('A' for Active; 'I' for Inactive)
REMARK    1  A    between atoms: C_6  and  N_7
REMARK    2  A    between atoms: N_10  and  C_11
REMARK    3  A    between atoms: C_11  and  C_12
REMARK    4  A    between atoms: C_12  and  O_13
REMARK    5  A    between atoms: O_13  and  C_14
REMARK    6  A    between atoms: C_14  and  C_15
REMARK    7  A    between atoms: C_15  and  N_16
REMARK    8  A    between atoms: N_19  and  C_20
REMARK                            x       y       z     vdW  Elec       q    Type
REMARK                         _______ _______ _______ _____ _____    ______ ____
ROOT
ATOM      1  O   UNL     1      -4.660  -4.291  -1.567  0.00  0.00    -0.377 OA
ENDROOT
BRANCH   1   2
ATOM      2  C   UNL     1      -4.050  -4.707  -0.344  0.00  0.00    +0.178 C 
BRANCH   2   3
ATOM      3  C   UNL     1      -2.702  -4.001  -0.180  0.00  0.00    +0.133 C 
BRANCH   3   7
ATOM      4  N   UNL     1      -2.071  -0.406   0.261  0.00  0.00    -0.269 N 
ATOM      5  C   UNL     1      -1.870  -1.732   0.126  0.00  0.00    +0.304 C 
ATOM      6  O   UNL     1      -0.740  -2.180   0.147  0.00  0.00    -0.253 OA
ATOM      7  N   UNL     1      -2.921  -2.560  -0.033  0.00  0.00    -0.297 N 
ATOM      8  H   UNL     1      -2.973  -0.056   0.319  0.00  0.00    +0.156 HD
ATOM      9  H   UNL     1      -3.822  -2.202  -0.050  0.00  0.00    +0.150 HD
BRANCH   4  15
ATOM     10  C   UNL     1       0.178   0.180  -0.399  0.00  0.00    +0.024 A 
ATOM     11  C   UNL     1       1.255   1.042  -0.342  0.00  0.00    +0.017 A 
ATOM     12  C   UNL     1       1.185   2.190   0.428  0.00  0.00    +0.018 A 
ATOM     13  C   UNL     1       0.036   2.477   1.143  0.00  0.00    +0.017 A 
ATOM     14  C   UNL     1      -1.044   1.618   1.090  0.00  0.00    +0.024 A 
ATOM     15  C   UNL     1      -0.977   0.466   0.317  0.00  0.00    +0.035 A 
ATOM     16 BR   UNL     1       2.663   3.367   0.504  0.00  0.00    -0.050 Br
ENDBRANCH   4  15
ENDBRANCH   3   7
ENDBRANCH   2   3
ENDBRANCH   1   2
BRANCH   1  17
ATOM     17  C   UNL     1      -5.930  -4.895  -1.818  0.00  0.00    +0.178 C 
BRANCH  17  18
ATOM     18  C   UNL     1      -6.487  -4.379  -3.147  0.00  0.00    +0.133 C 
BRANCH  18  19
ATOM     19  N   UNL     1      -5.623  -4.823  -4.244  0.00  0.00    -0.297 N 
ATOM     20  C   UNL     1      -5.919  -4.484  -5.514  0.00  0.00    +0.304 C 
ATOM     21  O   UNL     1      -6.904  -3.811  -5.750  0.00  0.00    -0.253 OA
ATOM     22  N   UNL     1      -5.125  -4.893  -6.523  0.00  0.00    -0.269 N 
ATOM     23  H   UNL     1      -4.838  -5.360  -4.055  0.00  0.00    +0.150 HD
ATOM     24  H   UNL     1      -4.383  -5.492  -6.344  0.00  0.00    +0.156 HD
BRANCH  22  25
ATOM     25  C   UNL     1      -5.370  -4.453  -7.829  0.00  0.00    +0.035 A 
ATOM     26  C   UNL     1      -5.102  -5.287  -8.906  0.00  0.00    +0.024 A 
ATOM     27  C   UNL     1      -5.345  -4.851 -10.194  0.00  0.00    +0.017 A 
ATOM     28  C   UNL     1      -5.855  -3.583 -10.411  0.00  0.00    +0.018 A 
ATOM     29  C   UNL     1      -6.122  -2.749  -9.340  0.00  0.00    +0.017 A 
ATOM     30  C   UNL     1      -5.886  -3.183  -8.050  0.00  0.00    +0.024 A 
ATOM     31 BR   UNL     1      -6.186  -2.989 -12.175  0.00  0.00    -0.050 Br
ENDBRANCH  22  25
ENDBRANCH  18  19
ENDBRANCH  17  18
ENDBRANCH   1  17
TORSDOF 8
