REMARK  Name = ZINC05517549
REMARK  2 active torsions:
REMARK  status: ('A' for Active; 'I' for Inactive)
REMARK    1  A    between atoms: C_6  and  C_7
REMARK    2  A    between atoms: CA_10  and  C_15
REMARK                            x       y       z     vdW  Elec       q    Type
REMARK                         _______ _______ _______ _____ _____    ______ ____
ROOT
ATOM      1  C   UNL     1       2.451   3.936  -0.001  0.00  0.00    +0.130 C 
ATOM      2  C   UNL     1       2.834   4.219   1.437  0.00  0.00    +0.030 C 
ATOM      3  CA  UNL     1       2.993   5.496   1.804  0.00  0.00    +0.122 C 
ATOM      4  N   UNL     1       2.812   6.533   0.887  0.00  0.00    -0.264 N 
ATOM      5  C   UNL     1       2.474   6.330  -0.393  0.00  0.00    +0.305 C 
ATOM      6  O   UNL     1       2.336   7.291  -1.125  0.00  0.00    -0.252 OA
ATOM      7  N   UNL     1       2.282   5.094  -0.894  0.00  0.00    -0.289 N 
ATOM      8  H   UNL     1       2.937   7.445   1.192  0.00  0.00    +0.157 HD
ATOM      9  H   UNL     1       2.038   4.970  -1.824  0.00  0.00    +0.151 HD
ENDROOT
BRANCH   1  15
ATOM     10  C   UNL     1       1.175   1.783   0.000  0.00  0.00    +0.007 A 
ATOM     11  C   UNL     1      -0.013   1.076   0.008  0.00  0.00    +0.015 A 
ATOM     12  C   UNL     1      -1.220   1.751   0.017  0.00  0.00    +0.018 A 
ATOM     13  C   UNL     1      -1.238   3.134   0.031  0.00  0.00    +0.015 A 
ATOM     14  C   UNL     1      -0.050   3.841   0.023  0.00  0.00    +0.007 A 
ATOM     15  C   UNL     1       1.156   3.166   0.008  0.00  0.00    -0.023 A 
ATOM     16 BR   UNL     1      -2.845   0.784   0.020  0.00  0.00    -0.050 Br
ENDBRANCH   1  15
BRANCH   3  17
ATOM     17  C   UNL     1       3.365   5.811   3.195  0.00  0.00    +0.400 C 
ATOM     18  O   UNL     1       3.525   4.915   3.999  0.00  0.00    -0.239 OA
ATOM     19  OXT UNL     1       3.529   7.094   3.574  0.00  0.00    -0.239 OA
ENDBRANCH   3  17
TORSDOF 2
