REMARK  Name = ZINC40758275
REMARK  3 active torsions:
REMARK  status: ('A' for Active; 'I' for Inactive)
REMARK    1  A    between atoms: C_12  and  N_28
REMARK    2  A    between atoms: C_13  and  N_17
REMARK    3  A    between atoms: N_17  and  C_18
REMARK                            x       y       z     vdW  Elec       q    Type
REMARK                         _______ _______ _______ _____ _____    ______ ____
ROOT
ATOM      1  C   UNL     1      -0.020   1.364  -0.090  0.00  0.00    +0.002 A 
ATOM      2  C   UNL     1       1.152   2.106  -0.080  0.00  0.00    +0.001 A 
ATOM      3  C   UNL     1       2.369   1.448  -0.076  0.00  0.00    +0.017 A 
ATOM      4  C   UNL     1       2.398   0.076  -0.083  0.00  0.00    +0.041 A 
ATOM      5  C   UNL     1       1.224  -0.712  -0.094  0.00  0.00    +0.080 A 
ATOM      6  C   UNL     1      -0.001  -0.006  -0.097  0.00  0.00    +0.029 A 
ATOM      7  N   UNL     1       1.417  -2.049  -0.100  0.00  0.00    -0.225 NA
ATOM      8  C   UNL     1       2.614  -2.589  -0.096  0.00  0.00    +0.165 A 
ATOM      9  S   UNL     1       3.680  -1.154  -0.083  0.00  0.00    -0.052 S 
ATOM     10  N   UNL     1       2.961  -3.926  -0.102  0.00  0.00    -0.277 N 
ATOM     11  C   UNL     1       4.303  -4.297  -0.097  0.00  0.00    +0.150 A 
ATOM     12  C   UNL     1       4.666  -5.645  -0.107  0.00  0.00    +0.106 A 
ATOM     13  C   UNL     1       6.026  -5.962  -0.102  0.00  0.00    +0.149 A 
ATOM     14  N   UNL     1       6.917  -4.973  -0.086  0.00  0.00    -0.219 NA
ATOM     15  C   UNL     1       6.532  -3.714  -0.076  0.00  0.00    +0.225 A 
ATOM     16  N   UNL     1       5.259  -3.372  -0.086  0.00  0.00    -0.219 NA
ATOM     17  H   UNL     1       2.270  -4.607  -0.109  0.00  0.00    +0.156 HD
ENDROOT
BRANCH  12  18
ATOM     18  N   UNL     1       3.691  -6.654  -0.124  0.00  0.00    -0.353 N 
ATOM     19  H   UNL     1       2.750  -6.419  -0.127  0.00  0.00    +0.143 HD
ATOM     20  H   UNL     1       3.958  -7.587  -0.131  0.00  0.00    +0.143 HD
ENDBRANCH  12  18
BRANCH  13  21
ATOM     21  N   UNL     1       6.442  -7.288  -0.112  0.00  0.00    -0.296 N 
ATOM     22  H   UNL     1       5.790  -8.002  -0.035  0.00  0.00    +0.154 HD
BRANCH  21  23
ATOM     23  C   UNL     1       7.798  -7.592  -0.231  0.00  0.00    +0.059 A 
ATOM     24  C   UNL     1       8.660  -6.699  -0.831  0.00  0.00    +0.025 A 
ATOM     25  C   UNL     1      10.015  -6.991  -0.956  0.00  0.00    +0.003 A 
ATOM     26  C   UNL     1      10.525  -8.165  -0.490  0.00  0.00    +0.010 A 
ATOM     27  C   UNL     1       9.680  -9.101   0.126  0.00  0.00    +0.002 A 
ATOM     28  C   UNL     1       8.299  -8.816   0.266  0.00  0.00    +0.092 A 
ATOM     29  N   UNL     1       7.493  -9.702   0.856  0.00  0.00    -0.253 NA
ATOM     30  C   UNL     1       7.952 -10.839   1.319  0.00  0.00    +0.111 A 
ATOM     31  C   UNL     1       9.299 -11.180   1.219  0.00  0.00    +0.020 A 
ATOM     32  C   UNL     1      10.176 -10.323   0.617  0.00  0.00    +0.011 A 
ENDBRANCH  21  23
ENDBRANCH  13  21
TORSDOF 3
