REMARK  Name = ZINC60090183
REMARK  8 active torsions:
REMARK  status: ('A' for Active; 'I' for Inactive)
REMARK    1  A    between atoms: C_4  and  N_7
REMARK    2  A    between atoms: N_10  and  C_11
REMARK    3  A    between atoms: C_11  and  C_12
REMARK    4  A    between atoms: N_18  and  C_19
REMARK    5  A    between atoms: C_19  and  C_20
REMARK    6  A    between atoms: C_20  and  C_21
REMARK    7  A    between atoms: N_23  and  C_24
REMARK    8  A    between atoms: C_25  and  C_33
REMARK                            x       y       z     vdW  Elec       q    Type
REMARK                         _______ _______ _______ _____ _____    ______ ____
ROOT
ATOM      1  C   UNL     1       6.011  -5.074  -0.158  0.00  0.00    -0.051 C 
ATOM      2  C   UNL     1       5.847  -6.571   0.112  0.00  0.00    -0.014 C 
ATOM      3  C   UNL     1       7.191  -7.273  -0.099  0.00  0.00    -0.003 C 
ATOM      4  C   UNL     1       8.241  -6.630   0.813  0.00  0.00    -0.019 C 
ATOM      5  C   UNL     1       8.316  -5.130   0.517  0.00  0.00    -0.078 C 
ATOM      6  N   UNL     1       7.007  -4.514   0.763  0.00  0.00    +0.383 N 
ATOM      7  H   UNL     1       6.724  -4.696   1.714  0.00  0.00    -0.081 HD
ENDROOT
BRANCH   1   8
ATOM      8  C   UNL     1       4.670  -4.368   0.052  0.00  0.00    +0.090 C 
BRANCH   8  12
ATOM      9  N   UNL     1       2.720  -4.100   3.158  0.00  0.00    -0.269 N 
ATOM     10  C   UNL     1       3.080  -4.003   1.863  0.00  0.00    +0.304 C 
ATOM     11  O   UNL     1       2.326  -3.491   1.058  0.00  0.00    -0.253 OA
ATOM     12  N   UNL     1       4.277  -4.474   1.460  0.00  0.00    -0.301 N 
ATOM     13  H   UNL     1       3.349  -4.441   3.812  0.00  0.00    +0.156 HD
ATOM     14  H   UNL     1       4.879  -4.882   2.101  0.00  0.00    +0.150 HD
BRANCH   9  18
ATOM     15  C   UNL     1      -1.099  -2.936   4.349  0.00  0.00    +0.000 A 
ATOM     16  C   UNL     1      -0.906  -3.490   3.097  0.00  0.00    +0.002 A 
ATOM     17  C   UNL     1       0.359  -3.877   2.699  0.00  0.00    +0.023 A 
ATOM     18  C   UNL     1       1.437  -3.708   3.558  0.00  0.00    +0.035 A 
ATOM     19  C   UNL     1       1.240  -3.151   4.814  0.00  0.00    +0.023 A 
ATOM     20  C   UNL     1      -0.027  -2.767   5.206  0.00  0.00    +0.002 A 
ENDBRANCH   9  18
ENDBRANCH   8  12
ENDBRANCH   1   8
BRANCH   6  21
ATOM     21  C   UNL     1       7.104  -3.063   0.554  0.00  0.00    -0.069 C 
BRANCH  21  22
ATOM     22  C   UNL     1       8.043  -2.458   1.600  0.00  0.00    +0.077 C 
BRANCH  22  23
ATOM     23  C   UNL     1       8.143  -0.970   1.385  0.00  0.00    +0.216 C 
ATOM     24  O   UNL     1       7.524  -0.445   0.483  0.00  0.00    -0.276 OA
ATOM     25  N   UNL     1       8.920  -0.223   2.194  0.00  0.00    -0.279 N 
ATOM     26  H   UNL     1       9.414  -0.643   2.915  0.00  0.00    +0.155 HD
BRANCH  25  27
ATOM     27  C   UNL     1       9.012   1.148   1.996  0.00  0.00    +0.090 A 
ATOM     28  C   UNL     1       9.758   2.064   2.718  0.00  0.00    +0.084 A 
ATOM     29  C   UNL     1       9.683   3.455   2.306  0.00  0.00    -0.018 A 
ATOM     30  C   UNL     1       8.874   3.674   1.246  0.00  0.00    -0.004 A 
ATOM     31  S   UNL     1       8.250   2.074   0.821  0.00  0.00    -0.077 S 
ATOM     32  C   UNL     1       8.588   4.989   0.590  0.00  0.00    +0.043 C 
ATOM     33  C   UNL     1       9.053   6.109   1.532  0.00  0.00    +0.005 C 
ATOM     34  C   UNL     1      10.469   5.789   2.022  0.00  0.00    +0.005 C 
ATOM     35  C   UNL     1      10.432   4.596   2.979  0.00  0.00    +0.037 C 
BRANCH  28  36
ATOM     36  C   UNL     1      10.569   1.658   3.826  0.00  0.00    +0.102 C 
ATOM     37  N   UNL     1      11.213   1.335   4.705  0.00  0.00    -0.191 NA
ENDBRANCH  28  36
ENDBRANCH  25  27
ENDBRANCH  22  23
ENDBRANCH  21  22
ENDBRANCH   6  21
TORSDOF 8
