REMARK  Name = ZINC59914894
REMARK  9 active torsions:
REMARK  status: ('A' for Active; 'I' for Inactive)
REMARK    1  A    between atoms: C_1  and  C_2
REMARK    2  A    between atoms: C_2  and  C_3
REMARK    3  A    between atoms: C_3  and  C_25
REMARK    4  A    between atoms: N_4  and  N_5
REMARK    5  A    between atoms: C_9  and  S_12
REMARK    6  A    between atoms: N_10  and  N_11
REMARK    7  A    between atoms: S_12  and  C_13
REMARK    8  A    between atoms: C_13  and  C_14
REMARK    9  A    between atoms: N_16  and  C_17
REMARK                            x       y       z     vdW  Elec       q    Type
REMARK                         _______ _______ _______ _____ _____    ______ ____
ROOT
ATOM      1  N   UNL     1       0.773  -1.614   3.262  0.00  0.00    -0.204 N 
ATOM      2  C   UNL     1       0.091  -2.342   4.228  0.00  0.00    +0.254 A 
ATOM      3  N   UNL     1      -1.180  -2.658   4.200  0.00  0.00    -0.109 NA
ATOM      4  N   UNL     1      -1.469  -3.393   5.358  0.00  0.00    -0.119 NA
ATOM      5  C   UNL     1      -0.364  -3.501   6.056  0.00  0.00    +0.210 A 
ATOM      6  N   UNL     1       0.630  -2.859   5.373  0.00  0.00    -0.211 N 
ATOM      7  H   UNL     1       1.720  -1.432   3.370  0.00  0.00    +0.177 HD
ENDROOT
BRANCH   1   9
ATOM      8  C   UNL     1       0.721  -0.470   1.242  0.00  0.00    +0.034 C 
ATOM      9  N   UNL     1       0.093  -1.141   2.132  0.00  0.00    -0.189 NA
ATOM     10  C   UNL     1       2.192  -0.188   1.408  0.00  0.00    +0.062 C 
BRANCH   8  12
ATOM     11  C   UNL     1      -0.026   1.569   0.043  0.00  0.00    +0.010 C 
ATOM     12  C   UNL     1      -0.011   0.039   0.026  0.00  0.00    +0.049 C 
ENDBRANCH   8  12
ENDBRANCH   1   9
BRANCH   6  13
ATOM     13  N   UNL     1       1.934  -2.751   5.767  0.00  0.00    -0.294 N 
ATOM     14  H   UNL     1       2.074  -1.924   6.329  0.00  0.00    +0.163 HD
ATOM     15  H   UNL     1       2.232  -3.578   6.261  0.00  0.00    +0.163 HD
ENDBRANCH   6  13
BRANCH   5  16
ATOM     16  S   UNL     1      -0.191  -4.333   7.599  0.00  0.00    -0.075 S 
BRANCH  16  17
ATOM     17  C   UNL     1      -1.856  -4.965   7.946  0.00  0.00    +0.173 C 
BRANCH  17  18
ATOM     18  C   UNL     1      -1.848  -5.708   9.257  0.00  0.00    +0.227 C 
ATOM     19  O   UNL     1      -0.820  -5.802   9.895  0.00  0.00    -0.275 OA
ATOM     20  N   UNL     1      -2.982  -6.269   9.720  0.00  0.00    -0.285 N 
ATOM     21  H   UNL     1      -3.817  -6.138   9.245  0.00  0.00    +0.155 HD
BRANCH  20  22
ATOM     22  C   UNL     1      -2.955  -7.040  10.888  0.00  0.00    +0.036 A 
ATOM     23  C   UNL     1      -3.779  -8.152  11.006  0.00  0.00    +0.043 A 
ATOM     24  C   UNL     1      -3.750  -8.913  12.160  0.00  0.00    +0.044 A 
ATOM     25  C   UNL     1      -2.901  -8.567  13.196  0.00  0.00    +0.040 A 
ATOM     26  C   UNL     1      -2.079  -7.460  13.081  0.00  0.00    +0.044 A 
ATOM     27  C   UNL     1      -2.100  -6.699  11.927  0.00  0.00    +0.043 A 
ATOM     28 CL   UNL     1      -1.016  -7.030  14.384  0.00  0.00    -0.083 Cl
ATOM     29 CL   UNL     1      -4.780 -10.302  12.309  0.00  0.00    -0.083 Cl
ENDBRANCH  20  22
ENDBRANCH  17  18
ENDBRANCH  16  17
ENDBRANCH   5  16
TORSDOF 7
