REMARK  Name = ZINC62825368
REMARK  7 active torsions:
REMARK  status: ('A' for Active; 'I' for Inactive)
REMARK    1  A    between atoms: C_1  and  C_2
REMARK    2  A    between atoms: C_2  and  C_3
REMARK    3  A    between atoms: C_3  and  C_4
REMARK    4  A    between atoms: C_4  and  C_6
REMARK    5  A    between atoms: C_4  and  N_20
REMARK    6  A    between atoms: N_8  and  C_9
REMARK    7  A    between atoms: C_10  and  C_17
REMARK                            x       y       z     vdW  Elec       q    Type
REMARK                         _______ _______ _______ _____ _____    ______ ____
ROOT
ATOM      1  C   UNL     1       1.776  -1.930   2.447  0.00  0.00    +0.203 C 
ATOM      2  O   UNL     1       1.345  -1.741   3.565  0.00  0.00    -0.277 OA
ATOM      3  N   UNL     1       2.947  -2.576   2.278  0.00  0.00    -0.285 N 
ATOM      4  H   UNL     1       3.253  -2.798   1.384  0.00  0.00    +0.155 HD
ENDROOT
BRANCH   3   5
ATOM      5  C   UNL     1       3.716  -2.925   3.384  0.00  0.00    +0.062 A 
ATOM      6  C   UNL     1       5.064  -2.538   3.457  0.00  0.00    +0.086 A 
ATOM      7  C   UNL     1       5.826  -2.895   4.574  0.00  0.00    +0.032 A 
ATOM      8  C   UNL     1       5.250  -3.622   5.595  0.00  0.00    +0.020 A 
ATOM      9  C   UNL     1       3.919  -4.002   5.519  0.00  0.00    +0.032 A 
ATOM     10  C   UNL     1       3.153  -3.653   4.425  0.00  0.00    +0.041 A 
ATOM     11 BR   UNL     1       1.337  -4.172   4.339  0.00  0.00    -0.048 Br
ATOM     12 BR   UNL     1       6.282  -4.103   7.104  0.00  0.00    -0.050 Br
BRANCH   6  13
ATOM     13  C   UNL     1       5.672  -1.762   2.364  0.00  0.00    +0.388 C 
ATOM     14  O   UNL     1       6.870  -1.516   2.381  0.00  0.00    -0.241 OA
ATOM     15  O   UNL     1       4.979  -1.364   1.438  0.00  0.00    -0.241 OA
ENDBRANCH   6  13
ENDBRANCH   3   5
BRANCH   1  16
ATOM     16  C   UNL     1       1.004  -1.442   1.249  0.00  0.00    +0.013 C 
BRANCH  16  17
ATOM     17  N   UNL     1      -0.398  -1.220   1.627  0.00  0.00    +0.386 N 
ATOM     18  H   UNL     1      -0.443  -0.528   2.360  0.00  0.00    -0.089 HD
ATOM     19  H   UNL     1      -0.915  -0.893   0.824  0.00  0.00    -0.089 HD
ATOM     20  H   UNL     1      -0.799  -2.085   1.956  0.00  0.00    -0.089 HD
ENDBRANCH  16  17
BRANCH  16  21
ATOM     21  C   UNL     1       1.612  -0.130   0.749  0.00  0.00    -0.007 C 
BRANCH  21  23
ATOM     22  C   UNL     1       1.517   1.612  -1.039  0.00  0.00    +0.004 C 
ATOM     23  C   UNL     1       0.909   0.300  -0.539  0.00  0.00    -0.005 C 
ENDBRANCH  21  23
ENDBRANCH  16  21
ENDBRANCH   1  16
TORSDOF 6
