REMARK  Name = ZINC38665051
REMARK  5 active torsions:
REMARK  status: ('A' for Active; 'I' for Inactive)
REMARK    1  A    between atoms: C_1  and  C_2
REMARK    2  A    between atoms: C_1  and  O_17
REMARK    3  A    between atoms: C_3  and  O_15
REMARK    4  A    between atoms: C_5  and  O_14
REMARK    5  A    between atoms: C_7  and  O_13
REMARK                            x       y       z     vdW  Elec       q    Type
REMARK                         _______ _______ _______ _____ _____    ______ ____
ROOT
ATOM      1  C   UNL     1       0.002  -0.004   0.002  0.00  0.00    +0.264 C 
ATOM      2  C   UNL     1       0.744  -0.511   1.242  0.00  0.00    +0.212 C 
ATOM      3  C   UNL     1       0.813  -2.041   1.195  0.00  0.00    +0.182 C 
ATOM      4  C   UNL     1       1.495  -2.471  -0.107  0.00  0.00    +0.206 C 
ATOM      5  C   UNL     1       0.724  -1.888  -1.294  0.00  0.00    +0.331 C 
ATOM      6  O   UNL     1       0.671  -0.465  -1.174  0.00  0.00    -0.304 OA
ATOM      7  F   UNL     1       1.373  -2.231  -2.486  0.00  0.00    -0.212 F 
ATOM      8  F   UNL     1      -1.310  -0.488   0.013  0.00  0.00    -0.205 F 
ENDROOT
BRANCH   4   9
ATOM      9  O   UNL     1       2.839  -1.987  -0.125  0.00  0.00    -0.384 OA
ATOM     10  H   UNL     1       3.332  -2.223  -0.922  0.00  0.00    +0.210 HD
ENDBRANCH   4   9
BRANCH   3  11
ATOM     11  O   UNL     1       1.565  -2.519   2.312  0.00  0.00    -0.386 OA
ATOM     12  H   UNL     1       1.649  -3.482   2.346  0.00  0.00    +0.210 HD
ENDBRANCH   3  11
BRANCH   2  13
ATOM     13  O   UNL     1       2.067   0.027   1.260  0.00  0.00    -0.383 OA
ATOM     14  H   UNL     1       2.595  -0.253   2.020  0.00  0.00    +0.210 HD
ENDBRANCH   2  13
BRANCH   1  15
ATOM     15  C   UNL     1      -0.019   1.526   0.010  0.00  0.00    +0.229 C 
BRANCH  15  16
ATOM     16  O   UNL     1       1.322   2.020   0.000  0.00  0.00    -0.389 OA
ATOM     17  H   UNL     1       1.385   2.985   0.005  0.00  0.00    +0.210 HD
ENDBRANCH  15  16
ENDBRANCH   1  15
TORSDOF 5
