REMARK  Name = ZINC12498793
REMARK  7 active torsions:
REMARK  status: ('A' for Active; 'I' for Inactive)
REMARK    1  A    between atoms: C_6  and  O_7
REMARK    2  A    between atoms: O_7  and  C_8
REMARK    3  A    between atoms: C_8  and  C_9
REMARK    4  A    between atoms: N_11  and  C_12
REMARK    5  A    between atoms: C_12  and  N_14
REMARK    6  A    between atoms: N_14  and  C_15
REMARK    7  A    between atoms: C_16  and  C_24
REMARK                            x       y       z     vdW  Elec       q    Type
REMARK                         _______ _______ _______ _____ _____    ______ ____
ROOT
ATOM      1  N   UNL     1       4.135   8.602   0.007  0.00  0.00    -0.291 N 
ATOM      2  H   UNL     1       5.035   8.242  -0.003  0.00  0.00    +0.154 HD
ENDROOT
BRANCH   1   3
ATOM      3  C   UNL     1       3.937   9.973   0.016  0.00  0.00    +0.084 A 
ATOM      4  C   UNL     1       4.890  10.983   0.018  0.00  0.00    +0.068 A 
ATOM      5  C   UNL     1       4.414  12.356   0.025  0.00  0.00    -0.023 A 
ATOM      6  C   UNL     1       3.071  12.499   0.038  0.00  0.00    -0.004 A 
ATOM      7  S   UNL     1       2.439  10.845   0.035  0.00  0.00    -0.077 S 
ATOM      8  C   UNL     1       2.300  13.783   0.053  0.00  0.00    +0.043 C 
ATOM      9  C   UNL     1       3.261  14.920   0.429  0.00  0.00    +0.005 C 
ATOM     10  C   UNL     1       4.529  14.795  -0.421  0.00  0.00    +0.005 C 
ATOM     11  C   UNL     1       5.333  13.571   0.022  0.00  0.00    +0.037 C 
BRANCH   4  12
ATOM     12  C   UNL     1       6.323  10.675   0.009  0.00  0.00    +0.244 C 
ATOM     13  O   UNL     1       6.913  10.554  -1.048  0.00  0.00    -0.270 OA
ATOM     14  N   UNL     1       6.987  10.525   1.173  0.00  0.00    -0.325 N 
ATOM     15  H   UNL     1       6.517  10.622   2.015  0.00  0.00    +0.145 HD
ATOM     16  H   UNL     1       7.936  10.322   1.167  0.00  0.00    +0.145 HD
ENDBRANCH   4  12
ENDBRANCH   1   3
BRANCH   1  17
ATOM     17  C   UNL     1       3.076   7.768   0.013  0.00  0.00    +0.141 C 
ATOM     18  S   UNL     1       1.486   8.404   0.031  0.00  0.00    -0.018 S 
BRANCH  17  21
ATOM     19  C   UNL     1       2.209   5.601   0.010  0.00  0.00    +0.256 C 
ATOM     20  O   UNL     1       1.084   6.051   0.023  0.00  0.00    -0.272 OA
ATOM     21  N   UNL     1       3.268   6.434   0.004  0.00  0.00    -0.265 N 
ATOM     22  H   UNL     1       4.169   6.074  -0.006  0.00  0.00    +0.157 HD
BRANCH  19  23
ATOM     23  C   UNL     1       2.425   4.109   0.001  0.00  0.00    +0.324 C 
BRANCH  23  24
ATOM     24  O   UNL     1       1.159   3.445   0.009  0.00  0.00    -0.483 OA
BRANCH  24  30
ATOM     25  C   UNL     1      -0.017   1.377   0.010  0.00  0.00    +0.047 A 
ATOM     26  C   UNL     1       0.002  -0.004   0.002  0.00  0.00    +0.019 A 
ATOM     27  C   UNL     1       1.209  -0.680  -0.013  0.00  0.00    +0.018 A 
ATOM     28  C   UNL     1       2.399   0.025  -0.020  0.00  0.00    +0.019 A 
ATOM     29  C   UNL     1       2.385   1.406  -0.012  0.00  0.00    +0.047 A 
ATOM     30  C   UNL     1       1.176   2.086   0.002  0.00  0.00    +0.121 A 
ATOM     31 BR   UNL     1       1.232  -2.571  -0.022  0.00  0.00    -0.050 Br
ENDBRANCH  24  30
ENDBRANCH  23  24
ENDBRANCH  19  23
ENDBRANCH  17  21
ENDBRANCH   1  17
TORSDOF 7
