REMARK  Name = ZINC66966615
REMARK  11 active torsions:
REMARK  status: ('A' for Active; 'I' for Inactive)
REMARK    1  A    between atoms: C_1  and  C_2
REMARK    2  A    between atoms: C_2  and  C_4
REMARK    3  A    between atoms: C_2  and  N_17
REMARK    4  A    between atoms: N_6  and  C_7
REMARK    5  A    between atoms: C_11  and  S_13
REMARK    6  A    between atoms: S_13  and  N_16
REMARK    7  A    between atoms: N_17  and  C_18
REMARK    8  A    between atoms: C_23  and  O_24
REMARK    9  A    between atoms: O_24  and  C_25
REMARK   10  A    between atoms: C_25  and  C_26
REMARK   11  A    between atoms: C_25  and  C_27
REMARK                            x       y       z     vdW  Elec       q    Type
REMARK                         _______ _______ _______ _____ _____    ______ ____
ROOT
ATOM      1  C   UNL     1       0.081  -0.519   1.064  0.00  0.00    +0.237 C 
ATOM      2  O   UNL     1       1.075  -1.214   1.097  0.00  0.00    -0.273 OA
ATOM      3  N   UNL     1      -0.550  -0.190   2.208  0.00  0.00    -0.284 N 
ATOM      4  H   UNL     1      -1.307   0.415   2.187  0.00  0.00    +0.155 HD
ENDROOT
BRANCH   3   5
ATOM      5  C   UNL     1      -0.112  -0.721   3.426  0.00  0.00    +0.035 A 
ATOM      6  C   UNL     1      -1.031  -1.036   4.419  0.00  0.00    +0.023 A 
ATOM      7  C   UNL     1      -0.595  -1.560   5.620  0.00  0.00    +0.004 A 
ATOM      8  C   UNL     1       0.755  -1.770   5.835  0.00  0.00    +0.028 A 
ATOM      9  C   UNL     1       1.672  -1.457   4.850  0.00  0.00    +0.107 A 
ATOM     10  C   UNL     1       1.242  -0.939   3.643  0.00  0.00    +0.051 A 
BRANCH   9  11
ATOM     11  S   UNL     1       3.391  -1.726   5.129  0.00  0.00    +0.056 S 
ATOM     12  O   UNL     1       4.087  -0.843   4.260  0.00  0.00    -0.153 OA
ATOM     13  O   UNL     1       3.580  -1.714   6.538  0.00  0.00    -0.153 OA
BRANCH  11  14
ATOM     14  N   UNL     1       3.736  -3.263   4.618  0.00  0.00    -0.204 NA
ATOM     15  H   UNL     1       3.033  -3.820   4.249  0.00  0.00    +0.144 HD
ATOM     16  H   UNL     1       4.640  -3.606   4.689  0.00  0.00    +0.144 HD
ENDBRANCH  11  14
ENDBRANCH   9  11
ENDBRANCH   3   5
BRANCH   1  18
ATOM     17  C   UNL     1      -0.451   1.506  -0.264  0.00  0.00    +0.038 C 
ATOM     18  C   UNL     1      -0.447  -0.024  -0.258  0.00  0.00    +0.154 C 
BRANCH  18  19
ATOM     19  N   UNL     1       0.408  -0.515  -1.341  0.00  0.00    -0.330 N 
ATOM     20  H   UNL     1       1.333  -0.743  -1.163  0.00  0.00    +0.147 HD
BRANCH  19  21
ATOM     21  C   UNL     1      -0.111  -0.655  -2.633  0.00  0.00    +0.073 A 
ATOM     22  C   UNL     1      -1.433  -0.324  -2.891  0.00  0.00    +0.065 A 
ATOM     23  C   UNL     1      -1.944  -0.464  -4.170  0.00  0.00    +0.125 A 
ATOM     24  C   UNL     1      -1.137  -0.933  -5.193  0.00  0.00    +0.042 A 
ATOM     25  C   UNL     1       0.181  -1.265  -4.941  0.00  0.00    +0.050 A 
ATOM     26  C   UNL     1       0.700  -1.122  -3.665  0.00  0.00    +0.142 A 
ATOM     27  F   UNL     1      -3.232  -0.141  -4.421  0.00  0.00    -0.205 F 
BRANCH  26  28
ATOM     28  O   UNL     1       1.999  -1.444  -3.417  0.00  0.00    -0.488 OA
BRANCH  28  29
ATOM     29  C   UNL     1       2.797  -1.828  -4.539  0.00  0.00    +0.167 C 
ATOM     30  C   UNL     1       3.342  -0.576  -5.230  0.00  0.00    +0.051 C 
ATOM     31  C   UNL     1       3.963  -2.696  -4.061  0.00  0.00    +0.051 C 
ENDBRANCH  28  29
ENDBRANCH  26  28
ENDBRANCH  19  21
ENDBRANCH  18  19
ENDBRANCH   1  18
TORSDOF 8
