REMARK  Name = ZINC40418923
REMARK  6 active torsions:
REMARK  status: ('A' for Active; 'I' for Inactive)
REMARK    1  A    between atoms: C_3  and  O_9
REMARK    2  A    between atoms: O_9  and  C_10
REMARK    3  A    between atoms: C_10  and  C_11
REMARK    4  A    between atoms: C_11  and  S_12
REMARK    5  A    between atoms: S_12  and  C_13
REMARK    6  A    between atoms: C_17  and  N_19
REMARK                            x       y       z     vdW  Elec       q    Type
REMARK                         _______ _______ _______ _____ _____    ______ ____
ROOT
ATOM      1  S   UNL     1       4.742   5.946  -0.013  0.00  0.00    -0.083 S 
ENDROOT
BRANCH   1   2
ATOM      2  C   UNL     1       6.420   6.483  -0.027  0.00  0.00    +0.192 A 
ATOM      3  N   UNL     1       7.387   5.578  -0.046  0.00  0.00    -0.207 NA
ATOM      4  C   UNL     1       8.666   5.947  -0.058  0.00  0.00    +0.122 A 
ATOM      5  C   UNL     1       8.980   7.303  -0.049  0.00  0.00    +0.086 A 
ATOM      6  C   UNL     1       7.937   8.225  -0.028  0.00  0.00    +0.122 A 
ATOM      7  N   UNL     1       6.681   7.782  -0.023  0.00  0.00    -0.207 NA
ATOM      8  N   UNL     1       9.672   4.994  -0.077  0.00  0.00    -0.343 N 
ATOM      9  H   UNL     1       9.446   4.051  -0.083  0.00  0.00    +0.144 HD
ATOM     10  H   UNL     1      10.602   5.270  -0.085  0.00  0.00    +0.144 HD
BRANCH   6  11
ATOM     11  N   UNL     1       8.202   9.585  -0.018  0.00  0.00    -0.343 N 
ATOM     12  H   UNL     1       9.119   9.901  -0.025  0.00  0.00    +0.144 HD
ATOM     13  H   UNL     1       7.470  10.222  -0.004  0.00  0.00    +0.144 HD
ENDBRANCH   6  11
ENDBRANCH   1   2
BRANCH   1  14
ATOM     14  C   UNL     1       4.861   4.136  -0.024  0.00  0.00    +0.118 C 
BRANCH  14  15
ATOM     15  C   UNL     1       3.455   3.532  -0.013  0.00  0.00    +0.240 C 
BRANCH  15  16
ATOM     16  O   UNL     1       3.548   2.106  -0.021  0.00  0.00    -0.490 OA
BRANCH  16  19
ATOM     17  C   UNL     1      -0.017   1.379   0.010  0.00  0.00    +0.023 A 
ATOM     18  C   UNL     1       1.170   2.087   0.002  0.00  0.00    +0.048 A 
ATOM     19  C   UNL     1       2.380   1.411  -0.013  0.00  0.00    +0.135 A 
ATOM     20  C   UNL     1       2.397   0.023  -0.021  0.00  0.00    +0.061 A 
ATOM     21  C   UNL     1       1.209  -0.681  -0.013  0.00  0.00    +0.039 A 
ATOM     22  C   UNL     1       0.002  -0.004   0.002  0.00  0.00    +0.042 A 
ATOM     23 CL   UNL     1      -1.490  -0.891   0.011  0.00  0.00    -0.084 Cl
ATOM     24 BR   UNL     1       4.046  -0.903  -0.042  0.00  0.00    -0.046 Br
ENDBRANCH  16  19
ENDBRANCH  15  16
ENDBRANCH  14  15
ENDBRANCH   1  14
TORSDOF 6
