REMARK  Name = ZINC33513669
REMARK  4 active torsions:
REMARK  status: ('A' for Active; 'I' for Inactive)
REMARK    1  A    between atoms: C_4  and  C_7
REMARK    2  A    between atoms: C_7  and  O_8
REMARK    3  A    between atoms: O_8  and  C_9
REMARK    4  A    between atoms: C_12  and  C_15
REMARK                            x       y       z     vdW  Elec       q    Type
REMARK                         _______ _______ _______ _____ _____    ______ ____
ROOT
ATOM      1  C   UNL     1       7.759  -1.900  -2.165  0.00  0.00    +0.090 C 
ATOM      2  C   UNL     1       8.873  -1.104  -1.553  0.00  0.00    +0.042 A 
ATOM      3  C   UNL     1       9.364   0.017  -2.190  0.00  0.00    +0.126 A 
ATOM      4  N   UNL     1      10.380   0.719  -1.599  0.00  0.00    -0.208 NA
ATOM      5  H   UNL     1      10.842  -1.076   1.165  0.00  0.00    +0.169 HD
ATOM      6  C   UNL     1      10.883   0.315  -0.418  0.00  0.00    +0.180 A 
ATOM      7  S   UNL     1      12.150   1.211   0.304  0.00  0.00    -0.011 S 
ATOM      8  N   UNL     1      10.415  -0.765   0.200  0.00  0.00    -0.322 N 
ATOM      9  C   UNL     1       9.430  -1.484  -0.329  0.00  0.00    +0.110 A 
ATOM     10  N   UNL     1       8.954  -2.605   0.317  0.00  0.00    -0.304 N 
ATOM     11  C   UNL     1       8.241  -3.554  -0.364  0.00  0.00    +0.017 C 
ATOM     12  C   UNL     1       7.663  -3.273  -1.549  0.00  0.00    +0.024 C 
ATOM     13  C   UNL     1       6.945  -4.256  -2.256  0.00  0.00    +0.162 C 
ATOM     14  O   UNL     1       6.430  -3.969  -3.318  0.00  0.00    -0.292 OA
ATOM     15  C   UNL     1       6.803  -5.655  -1.723  0.00  0.00    +0.080 C 
ATOM     16  C   UNL     1       8.018  -5.982  -0.849  0.00  0.00    +0.014 C 
ATOM     17  C   UNL     1       8.117  -4.926   0.254  0.00  0.00    +0.051 C 
ATOM     18  N   UNL     1       8.844   0.422  -3.395  0.00  0.00    -0.343 N 
ATOM     19  H   UNL     1       9.145  -2.744   1.391  0.00  0.00    +0.153 HD
ATOM     20  H   UNL     1       8.028  -0.150  -3.861  0.00  0.00    +0.144 HD
ATOM     21  H   UNL     1       9.243   1.317  -3.894  0.00  0.00    +0.144 HD
ENDROOT
BRANCH   1  25
ATOM     22  C   UNL     1       4.067   0.166  -1.561  0.00  0.00    +0.121 A 
ATOM     23  C   UNL     1       4.819  -0.248  -0.471  0.00  0.00    +0.046 A 
ATOM     24  C   UNL     1       6.009  -0.921  -0.669  0.00  0.00    +0.008 A 
ATOM     25  C   UNL     1       6.457  -1.172  -1.952  0.00  0.00    -0.035 A 
ATOM     26  C   UNL     1       5.713  -0.755  -3.041  0.00  0.00    +0.008 A 
ATOM     27  C   UNL     1       4.519  -0.087  -2.848  0.00  0.00    +0.046 A 
BRANCH  22  28
ATOM     28  O   UNL     1       2.893   0.823  -1.369  0.00  0.00    -0.487 OA
BRANCH  28  29
ATOM     29  C   UNL     1       2.490   1.049  -0.017  0.00  0.00    +0.264 C 
BRANCH  29  33
ATOM     30  C   UNL     1      -1.238   3.135   0.027  0.00  0.00    +0.000 A 
ATOM     31  C   UNL     1      -1.219   1.753   0.015  0.00  0.00    +0.000 A 
ATOM     32  C   UNL     1      -0.013   1.077   0.006  0.00  0.00    +0.007 A 
ATOM     33  C   UNL     1       1.175   1.785  -0.001  0.00  0.00    -0.010 A 
ATOM     34  C   UNL     1       1.156   3.167   0.006  0.00  0.00    +0.007 A 
ATOM     35  C   UNL     1      -0.050   3.842   0.020  0.00  0.00    +0.000 A 
ENDBRANCH  29  33
ENDBRANCH  28  29
ENDBRANCH  22  28
ENDBRANCH   1  25
TORSDOF 4
