REMARK  Name = ZINC39856190
REMARK  10 active torsions:
REMARK  status: ('A' for Active; 'I' for Inactive)
REMARK    1  A    between atoms: C_1  and  C_2
REMARK    2  A    between atoms: C_6  and  C_7
REMARK    3  A    between atoms: N_9  and  C_10
REMARK    4  A    between atoms: C_13  and  O_16
REMARK    5  A    between atoms: O_16  and  C_17
REMARK    6  A    between atoms: C_19  and  C_27
REMARK    7  A    between atoms: C_19  and  C_28
REMARK    8  A    between atoms: N_22  and  N_23
REMARK    9  A    between atoms: N_23  and  C_24
REMARK   10  A    between atoms: C_24  and  N_26
REMARK                            x       y       z     vdW  Elec       q    Type
REMARK                         _______ _______ _______ _____ _____    ______ ____
ROOT
ATOM      1  C   UNL     1      -0.014   1.502   0.010  0.00  0.00    +0.048 C 
ATOM      2  C   UNL     1      -0.004  -0.005   0.002  0.00  0.00    +0.009 A 
ATOM      3  C   UNL     1      -0.007  -0.839  -1.122  0.00  0.00    +0.042 A 
ATOM      4  C   UNL     1       0.004  -2.138  -0.672  0.00  0.00    +0.116 A 
ATOM      5  O   UNL     1       0.018  -2.112   0.658  0.00  0.00    -0.454 OA
ATOM      6  C   UNL     1       0.018  -0.831   1.091  0.00  0.00    +0.193 A 
ATOM      7  C   UNL     1      -0.001  -3.327  -1.599  0.00  0.00    +0.081 C 
ATOM      8  C   UNL     1      -0.528  -2.900  -2.971  0.00  0.00    -0.023 C 
ATOM      9  C   UNL     1       0.248  -1.688  -3.496  0.00  0.00    +0.064 C 
ATOM     10  C   UNL     1      -0.018  -0.513  -2.566  0.00  0.00    +0.070 C 
ATOM     11  N   UNL     1      -0.240   0.687  -3.007  0.00  0.00    -0.185 NA
ATOM     12  C   UNL     1      -0.373  -4.062  -3.955  0.00  0.00    +0.011 C 
ATOM     13  C   UNL     1      -2.010  -2.536  -2.852  0.00  0.00    +0.011 C 
ENDROOT
BRANCH   6  14
ATOM     14  C   UNL     1       0.034  -0.400   2.493  0.00  0.00    +0.284 C 
ATOM     15  O   UNL     1       0.029   0.786   2.765  0.00  0.00    -0.266 OA
ATOM     16  N   UNL     1       0.054  -1.318   3.480  0.00  0.00    -0.279 N 
ATOM     17  H   UNL     1      -0.010  -2.261   3.266  0.00  0.00    +0.155 HD
BRANCH  16  18
ATOM     18  C   UNL     1       0.167  -0.908   4.814  0.00  0.00    +0.034 A 
ATOM     19  C   UNL     1       0.888  -1.678   5.718  0.00  0.00    +0.027 A 
ATOM     20  C   UNL     1       0.999  -1.273   7.034  0.00  0.00    +0.047 A 
ATOM     21  C   UNL     1       0.391  -0.099   7.453  0.00  0.00    +0.120 A 
ATOM     22  C   UNL     1      -0.330   0.670   6.551  0.00  0.00    +0.047 A 
ATOM     23  C   UNL     1      -0.437   0.270   5.233  0.00  0.00    +0.027 A 
BRANCH  21  24
ATOM     24  O   UNL     1       0.501   0.299   8.748  0.00  0.00    -0.495 OA
ATOM     25  C   UNL     1      -0.150   1.518   9.110  0.00  0.00    +0.277 C 
ENDBRANCH  21  24
ENDBRANCH  16  18
ENDBRANCH   6  14
BRANCH  11  26
ATOM     26  N   UNL     1      -0.239   0.938  -4.385  0.00  0.00    -0.218 N 
ATOM     27  H   UNL     1      -0.073   0.215  -5.010  0.00  0.00    +0.176 HD
BRANCH  26  28
ATOM     28  C   UNL     1      -0.470   2.184  -4.843  0.00  0.00    +0.147 C 
ATOM     29  S   UNL     1      -0.468   2.491  -6.527  0.00  0.00    -0.017 S 
BRANCH  28  30
ATOM     30  N   UNL     1      -0.701   3.189  -3.975  0.00  0.00    -0.339 N 
ATOM     31  H   UNL     1      -0.702   3.015  -3.021  0.00  0.00    +0.144 HD
ATOM     32  H   UNL     1      -0.867   4.086  -4.305  0.00  0.00    +0.144 HD
ENDBRANCH  28  30
ENDBRANCH  26  28
ENDBRANCH  11  26
TORSDOF 6
