REMARK  Name = ZINC44749564
REMARK  5 active torsions:
REMARK  status: ('A' for Active; 'I' for Inactive)
REMARK    1  A    between atoms: C_1  and  C_2
REMARK    2  A    between atoms: C_4  and  N_21
REMARK    3  A    between atoms: C_7  and  C_8
REMARK    4  A    between atoms: N_12  and  C_13
REMARK    5  A    between atoms: C_13  and  C_14
REMARK                            x       y       z     vdW  Elec       q    Type
REMARK                         _______ _______ _______ _____ _____    ______ ____
ROOT
ATOM      1  C   UNL     1       0.036   0.131   2.642  0.00  0.00    +0.182 A 
ATOM      2  N   UNL     1       0.081   1.423   2.894  0.00  0.00    -0.108 NA
ATOM      3  N   UNL     1       0.022   1.635   4.160  0.00  0.00    -0.023 NA
ATOM      4  N   UNL     1      -0.064   0.520   4.799  0.00  0.00    -0.043 NA
ATOM      5  N   UNL     1      -0.064  -0.504   3.836  0.00  0.00    -0.221 N 
ENDROOT
BRANCH   1  12
ATOM      6  C   UNL     1       2.109   0.878   0.771  0.00  0.00    +0.044 C 
ATOM      7  C   UNL     1       1.075  -0.152   0.396  0.00  0.00    -0.038 A 
ATOM      8  C   UNL     1       1.117  -0.751  -0.844  0.00  0.00    +0.026 A 
ATOM      9  C   UNL     1       0.163  -1.702  -1.191  0.00  0.00    +0.025 A 
ATOM     10  C   UNL     1      -0.835  -2.052  -0.286  0.00  0.00    +0.023 A 
ATOM     11  C   UNL     1      -0.880  -1.457   0.955  0.00  0.00    +0.014 A 
ATOM     12  C   UNL     1       0.079  -0.505   1.307  0.00  0.00    +0.024 A 
BRANCH   9  13
ATOM     13  N   UNL     1       0.206  -2.306  -2.447  0.00  0.00    -0.358 N 
ATOM     14  H   UNL     1       0.901  -2.062  -3.078  0.00  0.00    +0.142 HD
ATOM     15  H   UNL     1      -0.459  -2.969  -2.689  0.00  0.00    +0.142 HD
ENDBRANCH   9  13
ENDBRANCH   1  12
BRANCH   5  16
ATOM     16  C   UNL     1      -0.151  -1.948   4.071  0.00  0.00    +0.183 C 
BRANCH  16  17
ATOM     17  C   UNL     1       1.225  -2.494   4.356  0.00  0.00    -0.012 A 
ATOM     18  C   UNL     1       1.984  -3.024   3.330  0.00  0.00    +0.006 A 
ATOM     19  C   UNL     1       3.246  -3.525   3.591  0.00  0.00    +0.000 A 
ATOM     20  C   UNL     1       3.749  -3.495   4.878  0.00  0.00    +0.001 A 
ATOM     21  C   UNL     1       2.991  -2.965   5.905  0.00  0.00    +0.015 A 
ATOM     22  C   UNL     1       1.730  -2.459   5.643  0.00  0.00    +0.023 A 
ATOM     23 BR   UNL     1       0.694  -1.727   7.046  0.00  0.00    -0.050 Br
ENDBRANCH  16  17
ENDBRANCH   5  16
TORSDOF 4
