REMARK  Name = ZINC04402433
REMARK  11 active torsions:
REMARK  status: ('A' for Active; 'I' for Inactive)
REMARK    1  A    between atoms: C_1  and  C_2
REMARK    2  A    between atoms: C_2  and  C_3
REMARK    3  A    between atoms: C_3  and  C_4
REMARK    4  A    between atoms: C_4  and  O_5
REMARK    5  A    between atoms: O_5  and  C_6
REMARK    6  A    between atoms: C_9  and  C_12
REMARK    7  A    between atoms: C_15  and  N_28
REMARK    8  A    between atoms: C_16  and  C_26
REMARK    9  A    between atoms: C_20  and  C_25
REMARK   10  A    between atoms: C_21  and  C_22
REMARK   11  A    between atoms: C_22  and  C_24
REMARK                            x       y       z     vdW  Elec       q    Type
REMARK                         _______ _______ _______ _____ _____    ______ ____
ROOT
ATOM      1  C   UNL     1       0.002  -0.004   0.002  0.00  0.00    +0.088 C 
ATOM      2  C   UNL     1      -0.721  -0.514  -1.238  0.00  0.00    +0.015 A 
ATOM      3  C   UNL     1      -0.217  -0.432  -2.526  0.00  0.00    +0.055 A 
ATOM      4  C   UNL     1      -0.974  -0.932  -3.584  0.00  0.00    +0.111 A 
ATOM      5  S   UNL     1      -2.432  -1.532  -2.744  0.00  0.00    -0.061 S 
ATOM      6  C   UNL     1      -1.961  -1.099  -1.096  0.00  0.00    +0.077 A 
ATOM      7  N   UNL     1      -2.622  -1.277   0.096  0.00  0.00    -0.312 N 
ATOM      8  C   UNL     1      -1.899  -1.096   1.246  0.00  0.00    +0.013 C 
ATOM      9  C   UNL     1      -0.682  -0.519   1.234  0.00  0.00    +0.023 C 
ATOM     10  C   UNL     1      -2.480  -1.553   2.559  0.00  0.00    +0.061 C 
ATOM     11  H   UNL     1      -3.561  -1.520   0.122  0.00  0.00    +0.152 HD
ENDROOT
BRANCH   1  15
ATOM     12  C   UNL     1      -0.056   4.269   0.025  0.00  0.00    +0.121 A 
ATOM     13  C   UNL     1       1.154   3.591   0.010  0.00  0.00    +0.046 A 
ATOM     14  C   UNL     1       1.170   2.209   0.003  0.00  0.00    +0.008 A 
ATOM     15  C   UNL     1      -0.018   1.503   0.010  0.00  0.00    -0.035 A 
ATOM     16  C   UNL     1      -1.226   2.177   0.020  0.00  0.00    +0.008 A 
ATOM     17  C   UNL     1      -1.247   3.558   0.033  0.00  0.00    +0.046 A 
BRANCH  12  18
ATOM     18  O   UNL     1      -0.074   5.628   0.032  0.00  0.00    -0.492 OA
BRANCH  18  19
ATOM     19  C   UNL     1      -1.356   6.259   0.047  0.00  0.00    +0.229 C 
BRANCH  19  20
ATOM     20  C   UNL     1      -1.176   7.779   0.053  0.00  0.00    +0.041 C 
BRANCH  20  22
ATOM     21  C   UNL     1      -2.369   9.974   0.075  0.00  0.00    +0.004 C 
ATOM     22  C   UNL     1      -2.549   8.454   0.070  0.00  0.00    -0.000 C 
ENDBRANCH  20  22
ENDBRANCH  19  20
ENDBRANCH  18  19
ENDBRANCH  12  18
ENDBRANCH   1  15
BRANCH   9  23
ATOM     23  C   UNL     1      -0.008  -0.393   2.456  0.00  0.00    +0.159 C 
ATOM     24  O   UNL     1      -0.524  -0.796   3.480  0.00  0.00    -0.293 OA
ATOM     25  C   UNL     1       1.357   0.244   2.501  0.00  0.00    +0.091 C 
ENDBRANCH   9  23
BRANCH   3  26
ATOM     26  N   UNL     1       1.032   0.143  -2.760  0.00  0.00    -0.356 N 
ATOM     27  H   UNL     1       1.553   0.489  -2.018  0.00  0.00    +0.142 HD
ATOM     28  H   UNL     1       1.379   0.197  -3.663  0.00  0.00    +0.142 HD
ENDBRANCH   3  26
BRANCH   4  29
ATOM     29  C   UNL     1      -0.663  -0.957  -4.982  0.00  0.00    +0.108 C 
ATOM     30  N   UNL     1      -0.416  -0.978  -6.090  0.00  0.00    -0.190 NA
ENDBRANCH   4  29
TORSDOF 8
