REMARK  Name = ZINC38705051
REMARK  12 active torsions:
REMARK  status: ('A' for Active; 'I' for Inactive)
REMARK    1  A    between atoms: C_1  and  C_2
REMARK    2  A    between atoms: C_2  and  O_3
REMARK    3  A    between atoms: O_3  and  C_4
REMARK    4  A    between atoms: C_6  and  C_11
REMARK    5  A    between atoms: C_9  and  O_10
REMARK    6  A    between atoms: C_14  and  C_30
REMARK    7  A    between atoms: N_21  and  C_22
REMARK    8  A    between atoms: C_22  and  C_23
REMARK    9  A    between atoms: C_26  and  C_29
REMARK   10  A    between atoms: C_31  and  C_38
REMARK   11  A    between atoms: C_33  and  C_37
REMARK   12  A    between atoms: C_35  and  O_36
REMARK                            x       y       z     vdW  Elec       q    Type
REMARK                         _______ _______ _______ _____ _____    ______ ____
ROOT
ATOM      1  C   UNL     1       0.280  -4.900   0.084  0.00  0.00    +0.142 C 
ATOM      2  C   UNL     1       0.806  -5.357   1.417  0.00  0.00    +0.035 A 
ATOM      3  C   UNL     1       1.329  -4.998   2.664  0.00  0.00    +0.102 A 
ATOM      4  N   UNL     1       1.558  -6.113   3.331  0.00  0.00    -0.173 NA
ATOM      5  N   UNL     1       1.232  -7.139   2.628  0.00  0.00    -0.272 N 
ATOM      6  H   UNL     1       1.314  -8.061   2.918  0.00  0.00    +0.189 HD
ATOM      7  C   UNL     1       0.752  -6.737   1.414  0.00  0.00    +0.126 A 
ATOM      8  C   UNL     1       0.209  -7.180   0.125  0.00  0.00    +0.266 C 
ATOM      9  O   UNL     1       0.035  -8.341  -0.193  0.00  0.00    -0.268 OA
ATOM     10  N   UNL     1      -0.068  -6.120  -0.657  0.00  0.00    -0.281 N 
ENDROOT
BRANCH   3  11
ATOM     11  C   UNL     1       1.580  -3.618   3.148  0.00  0.00    +0.047 A 
ATOM     12  C   UNL     1       1.145  -3.230   4.413  0.00  0.00    -0.037 A 
ATOM     13  C   UNL     1       1.381  -1.945   4.858  0.00  0.00    +0.007 A 
ATOM     14  C   UNL     1       2.048  -1.040   4.052  0.00  0.00    -0.047 A 
ATOM     15  C   UNL     1       2.483  -1.414   2.795  0.00  0.00    +0.049 A 
ATOM     16  C   UNL     1       2.259  -2.703   2.338  0.00  0.00    +0.127 A 
ATOM     17  C   UNL     1       2.301   0.361   4.547  0.00  0.00    +0.044 C 
ATOM     18  C   UNL     1       0.418  -4.213   5.294  0.00  0.00    +0.044 C 
BRANCH  16  19
ATOM     19  O   UNL     1       2.692  -3.075   1.105  0.00  0.00    -0.506 OA
ATOM     20  H   UNL     1       2.075  -2.862   0.391  0.00  0.00    +0.292 HD
ENDBRANCH  16  19
ENDBRANCH   3  11
BRANCH   1  23
ATOM     21  C   UNL     1      -2.003  -1.893   0.209  0.00  0.00    +0.162 A 
ATOM     22  C   UNL     1      -0.878  -2.683   0.034  0.00  0.00    +0.055 A 
ATOM     23  C   UNL     1      -0.944  -4.042   0.276  0.00  0.00    -0.019 A 
ATOM     24  C   UNL     1      -2.130  -4.617   0.692  0.00  0.00    +0.009 A 
ATOM     25  C   UNL     1      -3.256  -3.834   0.869  0.00  0.00    +0.049 A 
ATOM     26  C   UNL     1      -3.195  -2.470   0.635  0.00  0.00    +0.158 A 
BRANCH  26  27
ATOM     27  O   UNL     1      -4.300  -1.698   0.814  0.00  0.00    -0.503 OA
ATOM     28  H   UNL     1      -4.853  -1.612   0.025  0.00  0.00    +0.292 HD
ENDBRANCH  26  27
BRANCH  21  29
ATOM     29  O   UNL     1      -1.939  -0.555  -0.028  0.00  0.00    -0.489 OA
BRANCH  29  31
ATOM     30  C   UNL     1      -0.805   1.478  -0.675  0.00  0.00    +0.048 C 
ATOM     31  C   UNL     1      -0.682  -0.032  -0.462  0.00  0.00    +0.226 C 
ENDBRANCH  29  31
ENDBRANCH  21  29
ENDBRANCH   1  23
BRANCH  10  32
ATOM     32  C   UNL     1      -0.622  -6.172  -2.012  0.00  0.00    +0.144 C 
BRANCH  32  33
ATOM     33  C   UNL     1       0.503  -6.240  -3.013  0.00  0.00    -0.030 A 
ATOM     34  C   UNL     1       1.045  -5.075  -3.523  0.00  0.00    +0.005 A 
ATOM     35  C   UNL     1       2.077  -5.138  -4.440  0.00  0.00    +0.003 A 
ATOM     36  C   UNL     1       2.567  -6.365  -4.848  0.00  0.00    -0.050 A 
ATOM     37  C   UNL     1       2.025  -7.529  -4.337  0.00  0.00    +0.003 A 
ATOM     38  C   UNL     1       0.996  -7.467  -3.416  0.00  0.00    +0.005 A 
ATOM     39  C   UNL     1       3.691  -6.433  -5.849  0.00  0.00    +0.044 C 
ENDBRANCH  32  33
ENDBRANCH  10  32
TORSDOF 8
