REMARK  Name = ZINC19908118
REMARK  7 active torsions:
REMARK  status: ('A' for Active; 'I' for Inactive)
REMARK    1  A    between atoms: C_1  and  C_2
REMARK    2  A    between atoms: C_4  and  N_9
REMARK    3  A    between atoms: N_9  and  C_10
REMARK    4  A    between atoms: C_10  and  C_12
REMARK    5  A    between atoms: C_10  and  C_13
REMARK    6  A    between atoms: C_16  and  O_20
REMARK    7  A    between atoms: C_18  and  O_19
REMARK                            x       y       z     vdW  Elec       q    Type
REMARK                         _______ _______ _______ _____ _____    ______ ____
ROOT
ATOM      1  C   UNL     1       3.633   3.175  -0.017  0.00  0.00    +0.101 C 
ATOM      2  C   UNL     1       3.777   2.955  -1.524  0.00  0.00    +0.033 C 
ENDROOT
BRANCH   1   3
ATOM      3  C   UNL     1       4.727   4.094   0.464  0.00  0.00    +0.014 A 
ATOM      4  C   UNL     1       4.502   5.456   0.536  0.00  0.00    +0.012 A 
ATOM      5  C   UNL     1       5.500   6.301   0.981  0.00  0.00    +0.046 A 
ATOM      6  C   UNL     1       6.736   5.785   1.346  0.00  0.00    +0.120 A 
ATOM      7  C   UNL     1       6.966   4.420   1.268  0.00  0.00    +0.091 A 
ATOM      8  C   UNL     1       5.960   3.574   0.827  0.00  0.00    +0.125 A 
BRANCH   8   9
ATOM      9  O   UNL     1       6.183   2.235   0.750  0.00  0.00    -0.506 OA
ATOM     10  H   UNL     1       7.161   1.823   1.038  0.00  0.00    +0.292 HD
ENDBRANCH   8   9
BRANCH   6  11
ATOM     11  O   UNL     1       7.720   6.617   1.778  0.00  0.00    -0.507 OA
ATOM     12  H   UNL     1       8.699   6.208   2.067  0.00  0.00    +0.292 HD
ENDBRANCH   6  11
ENDBRANCH   1   3
BRANCH   1  13
ATOM     13  N   UNL     1       2.329   3.778   0.267  0.00  0.00    -0.337 N 
ATOM     14  H   UNL     1       2.236   4.871   0.355  0.00  0.00    +0.147 HD
BRANCH  13  18
ATOM     15  C   UNL     1      -2.489   3.349   1.138  0.00  0.00    +0.045 C 
ATOM     16  C   UNL     1      -1.146   2.731   0.847  0.00  0.00    -0.035 A 
ATOM     17  C   UNL     1      -0.035   3.536   0.692  0.00  0.00    +0.027 A 
ATOM     18  C   UNL     1       1.203   2.966   0.424  0.00  0.00    +0.028 A 
ATOM     19  C   UNL     1       1.319   1.586   0.312  0.00  0.00    +0.024 A 
ATOM     20  C   UNL     1       0.204   0.786   0.468  0.00  0.00    +0.017 A 
ATOM     21  C   UNL     1      -1.028   1.357   0.730  0.00  0.00    +0.021 A 
ATOM     22 BR   UNL     1      -2.554   0.259   0.935  0.00  0.00    -0.050 Br
ENDBRANCH  13  18
ENDBRANCH   1  13
TORSDOF 5
