REMARK  Name = ZINC23742678
REMARK  9 active torsions:
REMARK  status: ('A' for Active; 'I' for Inactive)
REMARK    1  A    between atoms: C_1  and  C_2
REMARK    2  A    between atoms: C_4  and  C_8
REMARK    3  A    between atoms: C_5  and  C_7
REMARK    4  A    between atoms: N_10  and  N_11
REMARK    5  A    between atoms: C_12  and  C_14
REMARK    6  A    between atoms: C_16  and  S_20
REMARK    7  A    between atoms: N_18  and  C_19
REMARK    8  A    between atoms: S_20  and  N_23
REMARK    9  A    between atoms: N_23  and  C_24
REMARK                            x       y       z     vdW  Elec       q    Type
REMARK                         _______ _______ _______ _____ _____    ______ ____
ROOT
ATOM      1  N   UNL     1      -3.479  -4.557  -0.645  0.00  0.00    -0.229 N 
ATOM      2  C   UNL     1      -4.813  -4.484  -0.467  0.00  0.00    +0.277 C 
ATOM      3  O   UNL     1      -5.363  -3.400  -0.426  0.00  0.00    -0.267 OA
ATOM      4  H   UNL     1      -3.029  -5.415  -0.596  0.00  0.00    +0.173 HD
ENDROOT
BRANCH   2   5
ATOM      5  C   UNL     1      -5.601  -5.713  -0.321  0.00  0.00    +0.108 A 
ATOM      6  C   UNL     1      -5.105  -6.997  -0.264  0.00  0.00    +0.061 A 
ATOM      7  C   UNL     1      -6.200  -7.855  -0.123  0.00  0.00    +0.123 A 
ATOM      8  C   UNL     1      -7.322  -7.096  -0.097  0.00  0.00    +0.114 A 
ATOM      9  N   UNL     1      -6.971  -5.792  -0.211  0.00  0.00    -0.344 N 
ATOM     10  C   UNL     1      -7.896  -4.656  -0.218  0.00  0.00    +0.149 C 
BRANCH   7  11
ATOM     11  S   UNL     1      -6.133  -9.612  -0.001  0.00  0.00    +0.060 S 
ATOM     12  O   UNL     1      -7.398 -10.097  -0.429  0.00  0.00    -0.153 OA
ATOM     13  O   UNL     1      -4.916 -10.015  -0.613  0.00  0.00    -0.153 OA
BRANCH  11  14
ATOM     14  N   UNL     1      -6.002  -9.987   1.607  0.00  0.00    -0.193 NA
ATOM     15  C   UNL     1      -7.098  -9.668   2.525  0.00  0.00    +0.127 C 
ATOM     16  H   UNL     1      -5.199 -10.417   1.940  0.00  0.00    +0.148 HD
ENDBRANCH  11  14
ENDBRANCH   7  11
ENDBRANCH   2   5
BRANCH   1  19
ATOM     17  C   UNL     1      -1.408  -3.466  -1.080  0.00  0.00    +0.263 C 
ATOM     18  O   UNL     1      -0.844  -4.541  -1.018  0.00  0.00    -0.269 OA
ATOM     19  N   UNL     1      -2.742  -3.393  -0.902  0.00  0.00    -0.230 N 
ATOM     20  H   UNL     1      -3.192  -2.535  -0.951  0.00  0.00    +0.173 HD
BRANCH  17  24
ATOM     21  C   UNL     1      -0.116   1.401  -1.901  0.00  0.00    +0.086 C 
ATOM     22  C   UNL     1      -0.084  -0.093  -1.710  0.00  0.00    +0.103 A 
ATOM     23  C   UNL     1      -1.149  -0.869  -1.458  0.00  0.00    +0.057 A 
ATOM     24  C   UNL     1      -0.633  -2.241  -1.350  0.00  0.00    +0.079 A 
ATOM     25  C   UNL     1       0.712  -2.145  -1.553  0.00  0.00    +0.114 A 
ATOM     26  O   UNL     1       1.015  -0.861  -1.769  0.00  0.00    -0.464 OA
ATOM     27  C   UNL     1       1.690  -3.292  -1.540  0.00  0.00    +0.087 C 
ENDBRANCH  17  24
ENDBRANCH   1  19
TORSDOF 5
