REMARK  Name = ZINC21317578
REMARK  8 active torsions:
REMARK  status: ('A' for Active; 'I' for Inactive)
REMARK    1  A    between atoms: C_4  and  C_7
REMARK    2  A    between atoms: C_8  and  C_9
REMARK    3  A    between atoms: N_10  and  N_11
REMARK    4  A    between atoms: C_15  and  S_18
REMARK    5  A    between atoms: N_16  and  N_17
REMARK    6  A    between atoms: S_18  and  C_19
REMARK    7  A    between atoms: C_19  and  C_20
REMARK    8  A    between atoms: N_22  and  C_23
REMARK                            x       y       z     vdW  Elec       q    Type
REMARK                         _______ _______ _______ _____ _____    ______ ____
ROOT
ATOM      1  N   UNL     1      -0.013   1.382   0.075  0.00  0.00    -0.204 N 
ATOM      2  C   UNL     1       0.005  -0.004   0.057  0.00  0.00    +0.254 A 
ATOM      3  N   UNL     1      -1.038  -0.796   0.065  0.00  0.00    -0.109 NA
ATOM      4  N   UNL     1      -0.660  -2.024   0.039  0.00  0.00    -0.119 NA
ATOM      5  C   UNL     1       0.649  -2.091   0.022  0.00  0.00    +0.210 A 
ATOM      6  N   UNL     1       1.119  -0.804   0.033  0.00  0.00    -0.211 N 
ATOM      7  H   UNL     1       0.933   1.944   0.075  0.00  0.00    +0.177 HD
ENDROOT
BRANCH   6   8
ATOM      8  N   UNL     1       2.425  -0.402   0.022  0.00  0.00    -0.294 N 
ATOM      9  H   UNL     1       3.231  -1.150   0.003  0.00  0.00    +0.163 HD
ATOM     10  H   UNL     1       2.670   0.670   0.033  0.00  0.00    +0.163 HD
ENDBRANCH   6   8
BRANCH   1  12
ATOM     11  C   UNL     1      -1.252   3.370   0.109  0.00  0.00    +0.130 C 
ATOM     12  N   UNL     1      -1.235   2.066   0.092  0.00  0.00    -0.188 NA
BRANCH  11  14
ATOM     13  C   UNL     1      -2.506   5.411   0.145  0.00  0.00    +0.009 C 
ATOM     14  C   UNL     1      -2.488   4.062   0.127  0.00  0.00    +0.022 C 
BRANCH  13  18
ATOM     15  C   UNL     1      -6.207   7.483   0.198  0.00  0.00    +0.000 A 
ATOM     16  C   UNL     1      -5.020   8.194   0.199  0.00  0.00    +0.001 A 
ATOM     17  C   UNL     1      -3.812   7.528   0.181  0.00  0.00    +0.008 A 
ATOM     18  C   UNL     1      -3.790   6.130   0.163  0.00  0.00    -0.025 A 
ATOM     19  C   UNL     1      -4.994   5.419   0.157  0.00  0.00    +0.008 A 
ATOM     20  C   UNL     1      -6.193   6.099   0.180  0.00  0.00    +0.001 A 
ENDBRANCH  13  18
ENDBRANCH  11  14
ENDBRANCH   1  12
BRANCH   5  21
ATOM     21  S   UNL     1       1.622  -3.560  -0.008  0.00  0.00    -0.075 S 
BRANCH  21  22
ATOM     22  C   UNL     1       0.309  -4.806  -0.009  0.00  0.00    +0.173 C 
BRANCH  22  23
ATOM     23  C   UNL     1       0.923  -6.182  -0.034  0.00  0.00    +0.228 C 
ATOM     24  O   UNL     1       2.129  -6.308  -0.050  0.00  0.00    -0.275 OA
ATOM     25  N   UNL     1       0.131  -7.273  -0.038  0.00  0.00    -0.284 N 
ATOM     26  H   UNL     1      -0.959  -7.162   0.051  0.00  0.00    +0.155 HD
BRANCH  25  27
ATOM     27  C   UNL     1       0.697  -8.548  -0.156  0.00  0.00    +0.053 A 
ATOM     28  C   UNL     1       1.931  -8.818   0.422  0.00  0.00    +0.025 A 
ATOM     29  C   UNL     1       2.487 -10.077   0.305  0.00  0.00    +0.003 A 
ATOM     30  C   UNL     1       1.817 -11.069  -0.388  0.00  0.00    +0.021 A 
ATOM     31  C   UNL     1       0.588 -10.805  -0.966  0.00  0.00    +0.061 A 
ATOM     32  C   UNL     1       0.023  -9.547  -0.847  0.00  0.00    +0.080 A 
ATOM     33 CL   UNL     1      -1.522  -9.217  -1.566  0.00  0.00    -0.080 Cl
ATOM     34 CL   UNL     1      -0.248 -12.053  -1.834  0.00  0.00    -0.082 Cl
ENDBRANCH  25  27
ENDBRANCH  22  23
ENDBRANCH  21  22
ENDBRANCH   5  21
TORSDOF 8
