REMARK  Name = ZINC08859972
REMARK  12 active torsions:
REMARK  status: ('A' for Active; 'I' for Inactive)
REMARK    1  A    between atoms: C_1  and  C_2
REMARK    2  A    between atoms: C_4  and  C_27
REMARK    3  A    between atoms: C_6  and  S_9
REMARK    4  A    between atoms: C_7  and  C_8
REMARK    5  A    between atoms: S_9  and  N_12
REMARK    6  A    between atoms: N_12  and  C_13
REMARK    7  A    between atoms: C_16  and  O_26
REMARK    8  A    between atoms: C_17  and  S_19
REMARK    9  A    between atoms: S_19  and  C_20
REMARK   10  A    between atoms: C_27  and  C_28
REMARK   11  A    between atoms: C_27  and  C_29
REMARK   12  A    between atoms: C_27  and  C_30
REMARK                            x       y       z     vdW  Elec       q    Type
REMARK                         _______ _______ _______ _____ _____    ______ ____
ROOT
ATOM      1  N   UNL     1       1.637  -2.829   3.546  0.00  0.00    -0.216 N 
ATOM      2  H   UNL     1       1.767  -2.427   4.419  0.00  0.00    +0.174 HD
ENDROOT
BRANCH   1   3
ATOM      3  C   UNL     1       2.743  -3.190   2.770  0.00  0.00    +0.049 A 
ATOM      4  C   UNL     1       2.780  -4.431   2.147  0.00  0.00    +0.028 A 
ATOM      5  C   UNL     1       3.872  -4.790   1.380  0.00  0.00    +0.048 A 
ATOM      6  C   UNL     1       4.934  -3.914   1.230  0.00  0.00    +0.131 A 
ATOM      7  C   UNL     1       4.902  -2.668   1.853  0.00  0.00    +0.059 A 
ATOM      8  C   UNL     1       3.802  -2.306   2.618  0.00  0.00    +0.043 A 
BRANCH   6   9
ATOM      9  O   UNL     1       6.009  -4.269   0.475  0.00  0.00    -0.506 OA
ATOM     10  H   UNL     1       5.933  -4.025  -0.458  0.00  0.00    +0.292 HD
ENDBRANCH   6   9
BRANCH   7  11
ATOM     11  S   UNL     1       6.252  -1.551   1.664  0.00  0.00    -0.047 S 
BRANCH  11  12
ATOM     12  C   UNL     1       7.508  -2.222   2.702  0.00  0.00    +0.189 A 
ATOM     13  H   UNL     1       9.047  -0.822   2.611  0.00  0.00    +0.191 HD
ATOM     14  N   UNL     1       7.444  -3.360   3.360  0.00  0.00    -0.209 NA
ATOM     15  C   UNL     1       8.574  -3.550   4.042  0.00  0.00    +0.245 A 
ATOM     16  N   UNL     1       9.375  -2.540   3.831  0.00  0.00    -0.160 NA
ATOM     17  N   UNL     1       8.710  -1.663   2.959  0.00  0.00    -0.254 N 
ENDBRANCH  11  12
ENDBRANCH   7  11
ENDBRANCH   1   3
BRANCH   1  18
ATOM     18  S   UNL     1       0.104  -3.089   2.974  0.00  0.00    +0.073 S 
ATOM     19  O   UNL     1      -0.786  -2.523   3.926  0.00  0.00    -0.150 OA
ATOM     20  O   UNL     1       0.040  -4.455   2.589  0.00  0.00    -0.150 OA
BRANCH  18  26
ATOM     21  C   UNL     1      -0.131   1.488   0.460  0.00  0.00    +0.044 C 
ATOM     22  C   UNL     1      -0.169  -0.017   0.398  0.00  0.00    -0.045 A 
ATOM     23  C   UNL     1      -0.340  -0.655  -0.817  0.00  0.00    +0.008 A 
ATOM     24  C   UNL     1      -0.376  -2.035  -0.874  0.00  0.00    -0.040 A 
ATOM     25  C   UNL     1      -0.240  -2.779   0.284  0.00  0.00    +0.033 A 
ATOM     26  C   UNL     1      -0.068  -2.141   1.498  0.00  0.00    +0.112 A 
ATOM     27  C   UNL     1      -0.028  -0.760   1.554  0.00  0.00    -0.021 A 
ATOM     28  C   UNL     1       0.164  -0.066   2.878  0.00  0.00    +0.046 C 
BRANCH  24  29
ATOM     29  C   UNL     1      -0.563  -2.730  -2.198  0.00  0.00    -0.013 C 
ATOM     30  C   UNL     1      -0.687  -1.686  -3.309  0.00  0.00    +0.015 C 
ATOM     31  C   UNL     1       0.642  -3.631  -2.476  0.00  0.00    +0.015 C 
ATOM     32  C   UNL     1      -1.835  -3.580  -2.152  0.00  0.00    +0.015 C 
ENDBRANCH  24  29
ENDBRANCH  18  26
ENDBRANCH   1  18
TORSDOF 7
