REMARK  Name = ZINC28631638
REMARK  10 active torsions:
REMARK  status: ('A' for Active; 'I' for Inactive)
REMARK    1  A    between atoms: C_1  and  C_2
REMARK    2  A    between atoms: C_2  and  C_3
REMARK    3  A    between atoms: C_2  and  C_4
REMARK    4  A    between atoms: C_4  and  C_5
REMARK    5  A    between atoms: C_4  and  N_18
REMARK    6  A    between atoms: N_7  and  N_8
REMARK    7  A    between atoms: N_8  and  C_9
REMARK    8  A    between atoms: C_9  and  N_11
REMARK    9  A    between atoms: N_11  and  C_12
REMARK   10  A    between atoms: C_19  and  C_21
REMARK                            x       y       z     vdW  Elec       q    Type
REMARK                         _______ _______ _______ _____ _____    ______ ____
ROOT
ATOM      1  C   UNL     1      -2.074  -0.231  -1.335  0.00  0.00    +0.250 C 
ATOM      2  O   UNL     1      -2.511  -1.081  -2.081  0.00  0.00    -0.272 OA
ATOM      3  N   UNL     1      -2.204   1.073  -1.649  0.00  0.00    -0.234 N 
ATOM      4  H   UNL     1      -1.924   1.754  -1.018  0.00  0.00    +0.173 HD
ENDROOT
BRANCH   3   5
ATOM      5  N   UNL     1      -2.744   1.445  -2.887  0.00  0.00    -0.246 N 
ATOM      6  H   UNL     1      -3.024   0.764  -3.518  0.00  0.00    +0.172 HD
BRANCH   5   7
ATOM      7  C   UNL     1      -2.873   2.749  -3.201  0.00  0.00    +0.147 C 
ATOM      8  S   UNL     1      -3.532   3.204  -4.715  0.00  0.00    -0.017 S 
BRANCH   7   9
ATOM      9  N   UNL     1      -2.484   3.696  -2.324  0.00  0.00    -0.323 N 
ATOM     10  H   UNL     1      -2.110   3.438  -1.467  0.00  0.00    +0.148 HD
BRANCH   9  11
ATOM     11  C   UNL     1      -2.625   5.113  -2.666  0.00  0.00    +0.072 C 
ATOM     12  C   UNL     1      -1.406   5.567  -3.472  0.00  0.00    +0.022 C 
ATOM     13  C   UNL     1      -1.554   7.048  -3.829  0.00  0.00    +0.002 C 
ATOM     14  C   UNL     1      -1.653   7.874  -2.545  0.00  0.00    +0.000 C 
ATOM     15  C   UNL     1      -2.871   7.420  -1.739  0.00  0.00    +0.002 C 
ATOM     16  C   UNL     1      -2.724   5.940  -1.382  0.00  0.00    +0.022 C 
ENDBRANCH   9  11
ENDBRANCH   7   9
ENDBRANCH   5   7
ENDBRANCH   3   5
BRANCH   1  17
ATOM     17  C   UNL     1      -1.387  -0.633  -0.055  0.00  0.00    +0.163 C 
BRANCH  17  18
ATOM     18  N   UNL     1      -1.704  -2.030   0.252  0.00  0.00    -0.300 N 
ATOM     19  C   UNL     1      -1.652  -2.469   1.525  0.00  0.00    +0.245 C 
ATOM     20  O   UNL     1      -1.341  -1.705   2.419  0.00  0.00    -0.270 OA
ATOM     21  H   UNL     1      -1.953  -2.639  -0.461  0.00  0.00    +0.150 HD
BRANCH  19  22
ATOM     22  C   UNL     1      -1.972  -3.877   1.835  0.00  0.00    +0.037 A 
ATOM     23  C   UNL     1      -2.325  -4.757   0.810  0.00  0.00    +0.016 A 
ATOM     24  C   UNL     1      -2.623  -6.070   1.104  0.00  0.00    +0.039 A 
ATOM     25  C   UNL     1      -2.574  -6.518   2.416  0.00  0.00    +0.123 A 
ATOM     26  C   UNL     1      -2.225  -5.648   3.438  0.00  0.00    +0.039 A 
ATOM     27  C   UNL     1      -1.919  -4.334   3.153  0.00  0.00    +0.016 A 
ATOM     28  F   UNL     1      -2.868  -7.805   2.699  0.00  0.00    -0.205 F 
ENDBRANCH  19  22
ENDBRANCH  17  18
BRANCH  17  30
ATOM     29  C   UNL     1       0.819  -0.804   1.106  0.00  0.00    +0.009 C 
ATOM     30  C   UNL     1       0.127  -0.478  -0.219  0.00  0.00    +0.012 C 
ATOM     31  C   UNL     1       0.623  -1.438  -1.303  0.00  0.00    +0.009 C 
ENDBRANCH  17  30
ENDBRANCH   1  17
TORSDOF 8
