REMARK  Name = ZINC52213040
REMARK  4 active torsions:
REMARK  status: ('A' for Active; 'I' for Inactive)
REMARK    1  A    between atoms: C_1  and  C_2
REMARK    2  A    between atoms: C_7  and  C_9
REMARK    3  A    between atoms: C_7  and  N_12
REMARK    4  A    between atoms: N_15  and  C_16
REMARK                            x       y       z     vdW  Elec       q    Type
REMARK                         _______ _______ _______ _____ _____    ______ ____
ROOT
ATOM      1  C   UNL     1      -0.275   1.522   0.049  0.00  0.00    +0.007 C 
ATOM      2  C   UNL     1      -0.254  -0.008   0.040  0.00  0.00    -0.012 C 
ATOM      3  C   UNL     1      -1.661  -0.538   0.325  0.00  0.00    +0.003 C 
ATOM      4  C   UNL     1      -2.126  -0.042   1.696  0.00  0.00    +0.003 C 
ATOM      5  C   UNL     1      -1.163  -0.545   2.773  0.00  0.00    +0.037 C 
ATOM      6  C   UNL     1       0.244  -0.015   2.489  0.00  0.00    +0.137 C 
ATOM      7  C   UNL     1       0.708  -0.511   1.118  0.00  0.00    +0.040 C 
ENDROOT
BRANCH   6   8
ATOM      8  N   UNL     1       0.224   1.450   2.497  0.00  0.00    -0.284 N 
ATOM      9  C   UNL     1       1.362   2.141   2.287  0.00  0.00    +0.301 C 
ATOM     10  O   UNL     1       2.405   1.548   2.091  0.00  0.00    -0.253 OA
ATOM     11  N   UNL     1       1.344   3.489   2.294  0.00  0.00    -0.297 N 
ATOM     12  H   UNL     1      -0.609   1.923   2.653  0.00  0.00    +0.151 HD
ATOM     13  H   UNL     1       0.511   3.961   2.451  0.00  0.00    +0.151 HD
BRANCH  11  14
ATOM     14  C   UNL     1       2.581   4.239   2.066  0.00  0.00    +0.074 C 
ATOM     15  C   UNL     1       3.134   4.915   3.332  0.00  0.00    +0.022 C 
ATOM     16  C   UNL     1       3.477   6.122   2.443  0.00  0.00    +0.004 C 
ATOM     17  C   UNL     1       2.349   5.653   1.508  0.00  0.00    +0.022 C 
ENDBRANCH  11  14
ENDBRANCH   6   8
BRANCH   6  18
ATOM     18  C   UNL     1       1.192  -0.510   3.550  0.00  0.00    +0.379 C 
ATOM     19  O   UNL     1       1.355  -1.707   3.711  0.00  0.00    -0.244 OA
ATOM     20  O   UNL     1       1.795   0.287   4.249  0.00  0.00    -0.244 OA
ENDBRANCH   6  18
TORSDOF 3
