REMARK  Name = ZINC04697875
REMARK  9 active torsions:
REMARK  status: ('A' for Active; 'I' for Inactive)
REMARK    1  A    between atoms: C_1  and  C_2
REMARK    2  A    between atoms: C_2  and  N_3
REMARK    3  A    between atoms: N_3  and  N_4
REMARK    4  A    between atoms: C_5  and  C_7
REMARK    5  A    between atoms: C_14  and  C_15
REMARK    6  A    between atoms: N_17  and  C_18
REMARK    7  A    between atoms: C_21  and  N_24
REMARK    8  A    between atoms: N_24  and  C_25
REMARK    9  A    between atoms: N_24  and  C_26
REMARK                            x       y       z     vdW  Elec       q    Type
REMARK                         _______ _______ _______ _____ _____    ______ ____
ROOT
ATOM      1  C   UNL     1      -0.038   1.555   0.038  0.00  0.00    +0.062 C 
ATOM      2  C   UNL     1      -0.804   1.729  -1.248  0.00  0.00    +0.024 C 
ATOM      3  C   UNL     1      -2.151   1.784  -1.228  0.00  0.00    +0.087 C 
ENDROOT
BRANCH   3   4
ATOM      4  C   UNL     1      -2.853   1.494  -0.035  0.00  0.00    +0.243 C 
ATOM      5  O   UNL     1      -2.240   1.212   0.979  0.00  0.00    -0.270 OA
ATOM      6  N   UNL     1      -4.200   1.532  -0.020  0.00  0.00    -0.282 N 
ATOM      7  H   UNL     1      -4.687   1.814  -0.810  0.00  0.00    +0.155 HD
BRANCH   6   8
ATOM      8  C   UNL     1      -4.899   1.162   1.137  0.00  0.00    +0.034 A 
ATOM      9  C   UNL     1      -4.378   1.464   2.388  0.00  0.00    +0.025 A 
ATOM     10  C   UNL     1      -5.066   1.100   3.529  0.00  0.00    +0.025 A 
ATOM     11  C   UNL     1      -6.279   0.431   3.424  0.00  0.00    +0.029 A 
ATOM     12  C   UNL     1      -6.799   0.129   2.172  0.00  0.00    +0.025 A 
ATOM     13  C   UNL     1      -6.114   0.498   1.032  0.00  0.00    +0.025 A 
BRANCH  11  14
ATOM     14  N   UNL     1      -6.976   0.062   4.580  0.00  0.00    -0.336 N 
ATOM     15  C   UNL     1      -6.495   0.493   5.894  0.00  0.00    +0.129 C 
ATOM     16  C   UNL     1      -8.187  -0.756   4.474  0.00  0.00    +0.129 C 
ENDBRANCH  11  14
ENDBRANCH   6   8
ENDBRANCH   3   4
BRANCH   2  17
ATOM     17  N   UNL     1      -0.133   1.831  -2.435  0.00  0.00    -0.268 N 
ATOM     18  H   UNL     1       0.836   1.792  -2.449  0.00  0.00    +0.170 HD
BRANCH  17  19
ATOM     19  N   UNL     1      -0.845   1.993  -3.630  0.00  0.00    -0.233 N 
ATOM     20  C   UNL     1      -0.183   2.094  -4.800  0.00  0.00    +0.260 C 
ATOM     21  O   UNL     1       1.031   2.044  -4.818  0.00  0.00    -0.269 OA
ATOM     22  H   UNL     1      -1.814   2.032  -3.616  0.00  0.00    +0.173 HD
BRANCH  20  23
ATOM     23  C   UNL     1      -0.935   2.264  -6.062  0.00  0.00    +0.038 A 
ATOM     24  C   UNL     1      -2.329   2.327  -6.044  0.00  0.00    +0.014 A 
ATOM     25  C   UNL     1      -3.025   2.486  -7.224  0.00  0.00    +0.021 A 
ATOM     26  C   UNL     1      -2.342   2.584  -8.425  0.00  0.00    +0.041 A 
ATOM     27  C   UNL     1      -0.959   2.522  -8.449  0.00  0.00    +0.021 A 
ATOM     28  C   UNL     1      -0.252   2.369  -7.275  0.00  0.00    +0.014 A 
ATOM     29 CL   UNL     1      -3.225   2.784  -9.907  0.00  0.00    -0.084 Cl
ENDBRANCH  20  23
ENDBRANCH  17  19
ENDBRANCH   2  17
TORSDOF 6
