REMARK  Name = ZINC39362118
REMARK  9 active torsions:
REMARK  status: ('A' for Active; 'I' for Inactive)
REMARK    1  A    between atoms: C_1  and  C_2
REMARK    2  A    between atoms: C_2  and  C_4
REMARK    3  A    between atoms: C_2  and  S_10
REMARK    4  A    between atoms: S_10  and  C_11
REMARK    5  A    between atoms: C_15  and  C_26
REMARK    6  A    between atoms: N_17  and  C_18
REMARK    7  A    between atoms: C_22  and  O_24
REMARK    8  A    between atoms: O_24  and  C_25
REMARK    9  A    between atoms: C_26  and  C_27
REMARK                            x       y       z     vdW  Elec       q    Type
REMARK                         _______ _______ _______ _____ _____    ______ ____
ROOT
ATOM      1  C   UNL     1      -0.178  -0.036  -3.018  0.00  0.00    +0.217 C 
ATOM      2  N   UNL     1      -0.137   1.440  -3.127  0.00  0.00    -0.226 NA
ATOM      3  N   UNL     1      -1.472   1.808  -3.623  0.00  0.00    -0.234 NA
ATOM      4  C   UNL     1      -2.366   0.854  -2.915  0.00  0.00    +0.163 C 
ATOM      5  N   UNL     1      -1.598  -0.409  -2.884  0.00  0.00    -0.287 N 
ATOM      6  H   UNL     1       0.582   1.735  -3.771  0.00  0.00    +0.143 HD
ATOM      7  H   UNL     1      -1.533   1.687  -4.623  0.00  0.00    +0.143 HD
ENDROOT
BRANCH   5   8
ATOM      8  C   UNL     1      -2.114  -1.700  -2.752  0.00  0.00    +0.036 A 
ATOM      9  C   UNL     1      -3.486  -1.893  -2.641  0.00  0.00    +0.023 A 
ATOM     10  C   UNL     1      -3.996  -3.169  -2.511  0.00  0.00    +0.005 A 
ATOM     11  C   UNL     1      -3.145  -4.258  -2.492  0.00  0.00    +0.046 A 
ATOM     12  C   UNL     1      -1.775  -4.072  -2.603  0.00  0.00    +0.122 A 
ATOM     13  C   UNL     1      -1.258  -2.793  -2.739  0.00  0.00    +0.068 A 
BRANCH  12  14
ATOM     14  O   UNL     1      -0.939  -5.144  -2.584  0.00  0.00    -0.495 OA
ATOM     15  C   UNL     1      -1.540  -6.433  -2.447  0.00  0.00    +0.277 C 
ENDBRANCH  12  14
ENDBRANCH   5   8
BRANCH   1  16
ATOM     16  S   UNL     1       0.748  -0.578  -1.556  0.00  0.00    -0.114 S 
BRANCH  16  18
ATOM     17  C   UNL     1       2.756  -1.542  -3.143  0.00  0.00    +0.024 C 
ATOM     18  C   UNL     1       2.483  -0.482  -2.074  0.00  0.00    +0.076 C 
BRANCH  18  19
ATOM     19  C   UNL     1       3.377  -0.724  -0.886  0.00  0.00    -0.035 A 
ATOM     20  C   UNL     1       3.305  -1.922  -0.200  0.00  0.00    +0.005 A 
ATOM     21  C   UNL     1       4.125  -2.145   0.891  0.00  0.00    +0.000 A 
ATOM     22  C   UNL     1       5.017  -1.170   1.295  0.00  0.00    +0.000 A 
ATOM     23  C   UNL     1       5.090   0.028   0.608  0.00  0.00    +0.000 A 
ATOM     24  C   UNL     1       4.274   0.248  -0.485  0.00  0.00    +0.005 A 
ENDBRANCH  18  19
ENDBRANCH  16  18
ENDBRANCH   1  16
BRANCH   4  25
ATOM     25  C   UNL     1      -2.655   1.343  -1.495  0.00  0.00    +0.093 C 
BRANCH  25  26
ATOM     26  C   UNL     1      -3.398   2.653  -1.557  0.00  0.00    +0.029 A 
ATOM     27  N   UNL     1      -2.710   3.829  -1.686  0.00  0.00    -0.311 N 
ATOM     28  C   UNL     1      -3.364   5.003  -1.743  0.00  0.00    +0.327 A 
ATOM     29  O   UNL     1      -2.732   6.036  -1.857  0.00  0.00    -0.247 OA
ATOM     30  N   UNL     1      -4.707   5.051  -1.675  0.00  0.00    -0.275 N 
ATOM     31  C   UNL     1      -5.422   3.914  -1.547  0.00  0.00    +0.254 A 
ATOM     32  O   UNL     1      -6.637   3.957  -1.485  0.00  0.00    -0.268 OA
ATOM     33  C   UNL     1      -4.746   2.671  -1.491  0.00  0.00    +0.091 A 
ATOM     34  H   UNL     1      -5.163   5.906  -1.717  0.00  0.00    +0.173 HD
ATOM     35  H   UNL     1      -1.741   3.815  -1.737  0.00  0.00    +0.170 HD
ENDBRANCH  25  26
ENDBRANCH   4  25
TORSDOF 7
