REMARK  Name = ZINC09904380
REMARK  5 active torsions:
REMARK  status: ('A' for Active; 'I' for Inactive)
REMARK    1  A    between atoms: C_6  and  C_7
REMARK    2  A    between atoms: C_8  and  C_9
REMARK    3  A    between atoms: N_11  and  C_12
REMARK    4  A    between atoms: C_14  and  C_23
REMARK    5  A    between atoms: C_17  and  N_18
REMARK                            x       y       z     vdW  Elec       q    Type
REMARK                         _______ _______ _______ _____ _____    ______ ____
ROOT
ATOM      1  C   UNL     1      -1.223  -0.675   0.107  0.00  0.00    +0.056 A 
ATOM      2  C   UNL     1      -2.405   0.040   0.114  0.00  0.00    +0.038 A 
ATOM      3  C   UNL     1      -3.626  -0.634   0.210  0.00  0.00    +0.038 A 
ATOM      4  C   UNL     1      -3.647  -2.029   0.299  0.00  0.00    +0.015 A 
ATOM      5  C   UNL     1      -2.466  -2.738   0.291  0.00  0.00    +0.026 A 
ATOM      6  C   UNL     1      -1.251  -2.070   0.190  0.00  0.00    +0.051 A 
ENDROOT
BRANCH   6   7
ATOM      7  N   UNL     1      -0.060  -2.792   0.177  0.00  0.00    -0.328 N 
ATOM      8  C   UNL     1      -0.323  -4.252   0.102  0.00  0.00    +0.105 C 
ATOM      9  C   UNL     1       1.016  -4.827  -0.424  0.00  0.00    +0.020 C 
ATOM     10  C   UNL     1       1.479  -3.753  -1.436  0.00  0.00    +0.020 C 
ATOM     11  C   UNL     1       0.745  -2.465  -1.020  0.00  0.00    +0.105 C 
ENDBRANCH   6   7
BRANCH   3  12
ATOM     12  C   UNL     1      -4.891   0.126   0.219  0.00  0.00    +0.242 C 
ATOM     13  O   UNL     1      -4.872   1.339   0.143  0.00  0.00    -0.270 OA
ATOM     14  N   UNL     1      -6.067  -0.525   0.312  0.00  0.00    -0.325 N 
ATOM     15  H   UNL     1      -6.082  -1.493   0.373  0.00  0.00    +0.145 HD
ATOM     16  H   UNL     1      -6.899  -0.026   0.318  0.00  0.00    +0.145 HD
ENDBRANCH   3  12
BRANCH   1  19
ATOM     17  C   UNL     1       0.059   1.215  -0.563  0.00  0.00    +0.241 C 
ATOM     18  O   UNL     1      -0.932   1.687  -1.088  0.00  0.00    -0.270 OA
ATOM     19  N   UNL     1       0.002  -0.004   0.010  0.00  0.00    -0.280 N 
ATOM     20  H   UNL     1       0.810  -0.415   0.355  0.00  0.00    +0.155 HD
BRANCH  17  22
ATOM     21  C   UNL     1       1.372   3.187  -1.133  0.00  0.00    +0.013 C 
ATOM     22  C   UNL     1       1.315   1.967  -0.559  0.00  0.00    +0.068 C 
BRANCH  21  28
ATOM     23  C   UNL     1       2.697   5.208  -1.723  0.00  0.00    +0.009 A 
ATOM     24  C   UNL     1       3.882   5.912  -1.716  0.00  0.00    +0.022 A 
ATOM     25  C   UNL     1       5.010   5.369  -1.123  0.00  0.00    +0.059 A 
ATOM     26  C   UNL     1       4.956   4.115  -0.532  0.00  0.00    +0.060 A 
ATOM     27  C   UNL     1       3.775   3.403  -0.527  0.00  0.00    +0.029 A 
ATOM     28  C   UNL     1       2.634   3.943  -1.129  0.00  0.00    -0.023 A 
ATOM     29 CL   UNL     1       6.376   3.445   0.208  0.00  0.00    -0.082 Cl
ATOM     30 CL   UNL     1       6.499   6.262  -1.121  0.00  0.00    -0.082 Cl
ENDBRANCH  21  28
ENDBRANCH  17  22
ENDBRANCH   1  19
TORSDOF 5
