REMARK  Name = ZINC33008175
REMARK  5 active torsions:
REMARK  status: ('A' for Active; 'I' for Inactive)
REMARK    1  A    between atoms: C_1  and  C_2
REMARK    2  A    between atoms: C_10  and  N_14
REMARK    3  A    between atoms: N_17  and  C_18
REMARK    4  A    between atoms: C_22  and  S_24
REMARK    5  A    between atoms: S_24  and  C_25
REMARK                            x       y       z     vdW  Elec       q    Type
REMARK                         _______ _______ _______ _____ _____    ______ ____
ROOT
ATOM      1  C   UNL     1      -1.115  18.301   2.992  0.00  0.00    +0.109 C 
ATOM      2  C   UNL     1      -1.439  16.855   3.264  0.00  0.00    +0.216 C 
ATOM      3  O   UNL     1      -2.446  16.564   3.875  0.00  0.00    -0.276 OA
ATOM      4  N   UNL     1      -0.611  15.885   2.829  0.00  0.00    -0.265 N 
ATOM      5  C   UNL     1      -0.909  14.555   3.079  0.00  0.00    +0.165 A 
ATOM      6  N   UNL     1      -1.939  14.048   3.716  0.00  0.00    -0.225 NA
ATOM      7  C   UNL     1      -2.104  12.717   3.888  0.00  0.00    +0.080 A 
ATOM      8  C   UNL     1      -3.159  12.047   4.548  0.00  0.00    +0.031 A 
ATOM      9  C   UNL     1      -3.180  10.691   4.636  0.00  0.00    +0.025 A 
ATOM     10  C   UNL     1      -2.170   9.908   4.082  0.00  0.00    +0.036 A 
ATOM     11  C   UNL     1      -1.113  10.530   3.429  0.00  0.00    +0.040 A 
ATOM     12  C   UNL     1      -1.092  11.899   3.335  0.00  0.00    +0.043 A 
ATOM     13  S   UNL     1       0.010  13.094   2.617  0.00  0.00    -0.052 S 
ATOM     14  H   UNL     1       0.302  16.149   2.275  0.00  0.00    +0.157 HD
ENDROOT
BRANCH  10  15
ATOM     15  N   UNL     1      -2.215   8.512   4.187  0.00  0.00    -0.269 N 
ATOM     16  C   UNL     1      -1.754   7.745   3.179  0.00  0.00    +0.308 C 
ATOM     17  O   UNL     1      -1.222   8.262   2.216  0.00  0.00    -0.252 OA
ATOM     18  N   UNL     1      -1.884   6.405   3.239  0.00  0.00    -0.269 N 
ATOM     19  H   UNL     1      -2.627   8.042   5.092  0.00  0.00    +0.156 HD
ATOM     20  H   UNL     1      -2.432   5.942   4.072  0.00  0.00    +0.156 HD
BRANCH  18  21
ATOM     21  C   UNL     1      -1.320   5.602   2.240  0.00  0.00    +0.036 A 
ATOM     22  C   UNL     1      -0.792   4.359   2.563  0.00  0.00    +0.023 A 
ATOM     23  C   UNL     1      -0.236   3.565   1.578  0.00  0.00    +0.003 A 
ATOM     24  C   UNL     1      -0.208   4.003   0.268  0.00  0.00    +0.015 A 
ATOM     25  C   UNL     1      -0.731   5.248  -0.061  0.00  0.00    +0.009 A 
ATOM     26  C   UNL     1      -1.290   6.048   0.927  0.00  0.00    +0.038 A 
BRANCH  25  27
ATOM     27  S   UNL     1      -0.690   5.808  -1.731  0.00  0.00    -0.129 S 
ATOM     28  C   UNL     1       0.116   4.453  -2.629  0.00  0.00    +0.090 C 
ENDBRANCH  25  27
ENDBRANCH  18  21
ENDBRANCH  10  15
TORSDOF 3
