REMARK  Name = ZINC37614977
REMARK  9 active torsions:
REMARK  status: ('A' for Active; 'I' for Inactive)
REMARK    1  A    between atoms: C_1  and  C_2
REMARK    2  A    between atoms: C_2  and  O_3
REMARK    3  A    between atoms: O_3  and  C_4
REMARK    4  A    between atoms: C_4  and  C_6
REMARK    5  A    between atoms: C_9  and  N_13
REMARK    6  A    between atoms: C_14  and  C_16
REMARK    7  A    between atoms: C_16  and  C_17
REMARK    8  A    between atoms: C_16  and  C_18
REMARK    9  A    between atoms: C_16  and  N_21
REMARK                            x       y       z     vdW  Elec       q    Type
REMARK                         _______ _______ _______ _____ _____    ______ ____
ROOT
ATOM      1  N   UNL     1       3.368  -3.893  -5.886  0.00  0.00    -0.286 N 
ATOM      2  C   UNL     1       3.797  -3.064  -6.858  0.00  0.00    +0.206 C 
ATOM      3  O   UNL     1       3.708  -1.863  -6.714  0.00  0.00    -0.277 OA
ATOM      4  H   UNL     1       3.498  -4.850  -5.973  0.00  0.00    +0.155 HD
ENDROOT
BRANCH   1   8
ATOM      5  C   UNL     1       1.480  -2.344  -2.511  0.00  0.00    +0.060 A 
ATOM      6  C   UNL     1       2.515  -1.631  -3.124  0.00  0.00    +0.017 A 
ATOM      7  C   UNL     1       3.136  -2.147  -4.239  0.00  0.00    +0.025 A 
ATOM      8  C   UNL     1       2.736  -3.375  -4.756  0.00  0.00    +0.047 A 
ATOM      9  C   UNL     1       1.706  -4.087  -4.148  0.00  0.00    +0.040 A 
ATOM     10  C   UNL     1       1.084  -3.580  -3.029  0.00  0.00    +0.032 A 
ATOM     11 BR   UNL     1       1.166  -5.755  -4.855  0.00  0.00    -0.048 Br
BRANCH   5  12
ATOM     12  C   UNL     1       0.812  -1.795  -1.316  0.00  0.00    +0.339 C 
ATOM     13  O   UNL     1      -0.083  -2.417  -0.781  0.00  0.00    -0.245 OA
BRANCH  12  14
ATOM     14  O   UNL     1       1.196  -0.603  -0.818  0.00  0.00    -0.461 OA
BRANCH  14  16
ATOM     15  C   UNL     1       1.074   1.226   0.757  0.00  0.00    +0.048 C 
ATOM     16  C   UNL     1       0.505  -0.132   0.341  0.00  0.00    +0.229 C 
ENDBRANCH  14  16
ENDBRANCH  12  14
ENDBRANCH   5  12
ENDBRANCH   1   8
BRANCH   2  17
ATOM     17  C   UNL     1       4.387  -3.629  -8.124  0.00  0.00    +0.007 C 
ATOM     18  C   UNL     1       3.263  -3.961  -9.107  0.00  0.00    -0.001 C 
BRANCH  17  19
ATOM     19  N   UNL     1       5.140  -4.851  -7.811  0.00  0.00    +0.388 N 
ATOM     20  H   UNL     1       4.521  -5.531  -7.396  0.00  0.00    -0.089 HD
ATOM     21  H   UNL     1       5.535  -5.229  -8.659  0.00  0.00    -0.089 HD
ATOM     22  H   UNL     1       5.882  -4.632  -7.163  0.00  0.00    -0.089 HD
ENDBRANCH  17  19
BRANCH  17  23
ATOM     23  C   UNL     1       5.326  -2.598  -8.754  0.00  0.00    -0.014 C 
ATOM     24  C   UNL     1       4.841  -1.876 -10.012  0.00  0.00    +0.003 C 
ATOM     25  C   UNL     1       5.938  -2.938 -10.115  0.00  0.00    +0.003 C 
ENDBRANCH  17  23
ENDBRANCH   2  17
TORSDOF 7
