REMARK  Name = ZINC67478697
REMARK  5 active torsions:
REMARK  status: ('A' for Active; 'I' for Inactive)
REMARK    1  A    between atoms: C_1  and  O_2
REMARK    2  A    between atoms: O_2  and  C_3
REMARK    3  A    between atoms: C_8  and  C_9
REMARK    4  A    between atoms: N_11  and  N_12
REMARK    5  A    between atoms: N_15  and  C_16
REMARK                            x       y       z     vdW  Elec       q    Type
REMARK                         _______ _______ _______ _____ _____    ______ ____
ROOT
ATOM      1  N   UNL     1      -0.435  -4.947  -0.933  0.00  0.00    -0.218 N 
ATOM      2  C   UNL     1      -0.377  -6.292  -0.873  0.00  0.00    +0.316 C 
ATOM      3  O   UNL     1      -0.863  -6.962  -1.764  0.00  0.00    -0.251 OA
ATOM      4  N   UNL     1       0.220  -6.894   0.175  0.00  0.00    -0.291 N 
ATOM      5  H   UNL     1      -0.865  -4.513  -1.687  0.00  0.00    +0.174 HD
ATOM      6  H   UNL     1       0.607  -6.360   0.885  0.00  0.00    +0.151 HD
ENDROOT
BRANCH   4   7
ATOM      7  C   UNL     1       0.283  -8.357   0.240  0.00  0.00    +0.105 C 
ATOM      8  C   UNL     1       0.587  -8.795   1.675  0.00  0.00    +0.027 C 
ATOM      9  C   UNL     1       1.502  -7.801   2.363  0.00  0.00    +0.002 C 
ATOM     10  C   UNL     1       2.911  -7.755   1.805  0.00  0.00    +0.005 C 
ATOM     11  C   UNL     1       2.920  -7.177   0.388  0.00  0.00    +0.035 C 
ATOM     12  C   UNL     1       2.642  -8.300  -0.590  0.00  0.00    -0.042 A 
ATOM     13  C   UNL     1       1.389  -8.859  -0.664  0.00  0.00    -0.024 A 
ATOM     14  C   UNL     1       1.128  -9.885  -1.555  0.00  0.00    +0.006 A 
ATOM     15  C   UNL     1       2.138 -10.345  -2.382  0.00  0.00    +0.000 A 
ATOM     16  C   UNL     1       3.398  -9.783  -2.315  0.00  0.00    +0.000 A 
ATOM     17  C   UNL     1       3.659  -8.756  -1.410  0.00  0.00    +0.004 A 
ENDBRANCH   4   7
BRANCH   1  20
ATOM     18  C   UNL     1       0.067  -2.830   0.033  0.00  0.00    +0.264 C 
ATOM     19  O   UNL     1      -0.472  -2.286  -0.912  0.00  0.00    -0.269 OA
ATOM     20  N   UNL     1       0.125  -4.175   0.093  0.00  0.00    -0.229 N 
ATOM     21  H   UNL     1       0.554  -4.608   0.847  0.00  0.00    +0.173 HD
BRANCH  18  27
ATOM     22  C   UNL     1       0.598  -0.618   1.055  0.00  0.00    +0.132 A 
ATOM     23  C   UNL     1       1.150   0.137   2.080  0.00  0.00    +0.046 A 
ATOM     24  C   UNL     1       1.760  -0.489   3.149  0.00  0.00    +0.004 A 
ATOM     25  C   UNL     1       1.824  -1.872   3.208  0.00  0.00    +0.001 A 
ATOM     26  C   UNL     1       1.280  -2.637   2.199  0.00  0.00    +0.017 A 
ATOM     27  C   UNL     1       0.656  -2.017   1.114  0.00  0.00    +0.080 A 
BRANCH  22  29
ATOM     28  C   UNL     1      -0.022   1.425   0.013  0.00  0.00    +0.277 C 
ATOM     29  O   UNL     1      -0.001  -0.004   0.004  0.00  0.00    -0.494 OA
ENDBRANCH  22  29
ENDBRANCH  18  27
ENDBRANCH   1  20
TORSDOF 4
