REMARK  Name = ZINC40116371
REMARK  5 active torsions:
REMARK  status: ('A' for Active; 'I' for Inactive)
REMARK    1  A    between atoms: C_1  and  C_2
REMARK    2  A    between atoms: C_5  and  C_7
REMARK    3  A    between atoms: C_7  and  C_9
REMARK    4  A    between atoms: C_14  and  C_16
REMARK    5  A    between atoms: C_19  and  O_22
REMARK                            x       y       z     vdW  Elec       q    Type
REMARK                         _______ _______ _______ _____ _____    ______ ____
ROOT
ATOM      1  C   UNL     1       3.269  -3.168  -0.008  0.00  0.00    +0.079 C 
ATOM      2  C   UNL     1       4.259  -4.080  -0.137  0.00  0.00    +0.249 C 
ATOM      3  C   UNL     1       5.552  -3.378  -0.270  0.00  0.00    +0.285 C 
ATOM      4  O   UNL     1       6.630  -3.922  -0.402  0.00  0.00    -0.267 OA
ATOM      5  N   UNL     1       5.359  -2.047  -0.222  0.00  0.00    -0.298 N 
ATOM      6  C   UNL     1       3.920  -1.806  -0.061  0.00  0.00    +0.142 C 
ATOM      7  O   UNL     1       4.092  -5.423  -0.144  0.00  0.00    -0.282 OA
ATOM      8  H   UNL     1       6.049  -1.368  -0.287  0.00  0.00    +0.150 HD
ENDROOT
BRANCH   6   9
ATOM      9  C   UNL     1       3.664  -1.057   1.221  0.00  0.00    -0.022 A 
ATOM     10  C   UNL     1       4.395  -1.360   2.355  0.00  0.00    +0.009 A 
ATOM     11  C   UNL     1       4.162  -0.676   3.532  0.00  0.00    +0.046 A 
ATOM     12  C   UNL     1       3.192   0.316   3.576  0.00  0.00    +0.117 A 
ATOM     13  C   UNL     1       2.460   0.618   2.437  0.00  0.00    +0.046 A 
ATOM     14  C   UNL     1       2.701  -0.066   1.261  0.00  0.00    +0.009 A 
BRANCH  12  15
ATOM     15  O   UNL     1       2.960   0.990   4.733  0.00  0.00    -0.507 OA
ATOM     16  H   UNL     1       3.498   1.787   4.838  0.00  0.00    +0.292 HD
ENDBRANCH  12  15
ENDBRANCH   6   9
BRANCH   1  17
ATOM     17  C   UNL     1       1.836  -3.447   0.149  0.00  0.00    +0.230 C 
ATOM     18  O   UNL     1       1.429  -3.995   1.158  0.00  0.00    -0.283 OA
BRANCH  17  23
ATOM     19  C   UNL     1       0.010  -1.491  -4.083  0.00  0.00    +0.086 C 
ATOM     20  C   UNL     1       0.087  -2.212  -2.762  0.00  0.00    +0.103 A 
ATOM     21  C   UNL     1      -0.952  -2.801  -2.127  0.00  0.00    +0.045 A 
ATOM     22  C   UNL     1      -0.452  -3.353  -0.939  0.00  0.00    +0.053 A 
ATOM     23  C   UNL     1       0.896  -3.067  -0.909  0.00  0.00    +0.175 A 
ATOM     24  O   UNL     1       1.196  -2.379  -2.031  0.00  0.00    -0.457 OA
ENDBRANCH  17  23
ENDBRANCH   1  17
TORSDOF 4
