REMARK  Name = ZINC16260566
REMARK  5 active torsions:
REMARK  status: ('A' for Active; 'I' for Inactive)
REMARK    1  A    between atoms: C_1  and  C_2
REMARK    2  A    between atoms: C_5  and  C_7
REMARK    3  A    between atoms: C_10  and  C_12
REMARK    4  A    between atoms: C_13  and  C_14
REMARK    5  A    between atoms: N_16  and  C_17
REMARK                            x       y       z     vdW  Elec       q    Type
REMARK                         _______ _______ _______ _____ _____    ______ ____
ROOT
ATOM      1  C   UNL     1       0.154   0.019  -0.176  0.00  0.00    +0.241 C 
ATOM      2  O   UNL     1       1.259  -0.421  -0.441  0.00  0.00    -0.270 OA
ATOM      3  N   UNL     1      -0.016   1.344   0.009  0.00  0.00    -0.282 N 
ATOM      4  H   UNL     1      -0.907   1.704   0.140  0.00  0.00    +0.155 HD
ENDROOT
BRANCH   3   5
ATOM      5  C   UNL     1       1.092   2.199   0.007  0.00  0.00    +0.036 A 
ATOM      6  C   UNL     1       2.312   1.755   0.504  0.00  0.00    +0.025 A 
ATOM      7  C   UNL     1       3.410   2.592   0.499  0.00  0.00    +0.029 A 
ATOM      8  C   UNL     1       3.293   3.884   0.008  0.00  0.00    +0.067 A 
ATOM      9  C   UNL     1       2.067   4.335  -0.486  0.00  0.00    +0.069 A 
ATOM     10  C   UNL     1       0.968   3.490  -0.485  0.00  0.00    +0.051 A 
ATOM     11  N   UNL     1       2.260   5.650  -0.902  0.00  0.00    -0.306 N 
ATOM     12  H   UNL     1       1.584   6.227  -1.292  0.00  0.00    +0.170 HD
ATOM     13  C   UNL     1       3.543   5.985  -0.671  0.00  0.00    +0.325 A 
ATOM     14  O   UNL     1       4.040   7.067  -0.921  0.00  0.00    -0.247 OA
ATOM     15  N   UNL     1       4.193   4.941  -0.123  0.00  0.00    -0.306 N 
ATOM     16  H   UNL     1       5.128   4.927   0.137  0.00  0.00    +0.170 HD
ENDBRANCH   3   5
BRANCH   1  18
ATOM     17  C   UNL     1      -0.777  -2.191  -0.249  0.00  0.00    +0.051 C 
ATOM     18  C   UNL     1      -0.949  -0.859  -0.063  0.00  0.00    +0.071 C 
BRANCH  17  22
ATOM     19  C   UNL     1      -3.082  -4.909  -0.114  0.00  0.00    +0.109 A 
ATOM     20  C   UNL     1      -3.931  -3.896   0.168  0.00  0.00    +0.045 A 
ATOM     21  C   UNL     1      -3.180  -2.711   0.163  0.00  0.00    +0.049 A 
ATOM     22  C   UNL     1      -1.882  -3.070  -0.136  0.00  0.00    +0.128 A 
ATOM     23  O   UNL     1      -1.852  -4.410  -0.296  0.00  0.00    -0.460 OA
BRANCH  19  27
ATOM     24  C   UNL     1      -3.590  -8.517   1.274  0.00  0.00    +0.008 C 
ATOM     25  C   UNL     1      -2.768  -7.337   0.751  0.00  0.00    -0.003 C 
ATOM     26  C   UNL     1      -2.400  -7.336  -0.734  0.00  0.00    +0.015 C 
ATOM     27  C   UNL     1      -3.459  -6.365  -0.208  0.00  0.00    +0.058 C 
ENDBRANCH  19  27
ENDBRANCH  17  22
ENDBRANCH   1  18
TORSDOF 4
