REMARK  Name = ZINC04828956
REMARK  6 active torsions:
REMARK  status: ('A' for Active; 'I' for Inactive)
REMARK    1  A    between atoms: C_1  and  O_2
REMARK    2  A    between atoms: O_2  and  C_3
REMARK    3  A    between atoms: C_8  and  C_9
REMARK    4  A    between atoms: N_11  and  N_12
REMARK    5  A    between atoms: C_13  and  C_15
REMARK    6  A    between atoms: C_18  and  O_21
REMARK                            x       y       z     vdW  Elec       q    Type
REMARK                         _______ _______ _______ _____ _____    ______ ____
ROOT
ATOM      1  C   UNL     1       2.417   3.950  -0.000  0.00  0.00    +0.264 C 
ATOM      2  O   UNL     1       3.482   3.364  -0.014  0.00  0.00    -0.269 OA
ATOM      3  N   UNL     1       2.389   5.297   0.007  0.00  0.00    -0.230 N 
ATOM      4  H   UNL     1       1.539   5.765   0.018  0.00  0.00    +0.173 HD
ENDROOT
BRANCH   1  10
ATOM      5  C   UNL     1       1.180   1.785   0.000  0.00  0.00    +0.132 A 
ATOM      6  C   UNL     1      -0.013   1.076   0.008  0.00  0.00    +0.047 A 
ATOM      7  C   UNL     1      -1.218   1.749   0.017  0.00  0.00    +0.019 A 
ATOM      8  C   UNL     1      -1.247   3.135   0.031  0.00  0.00    +0.019 A 
ATOM      9  C   UNL     1      -0.071   3.855   0.023  0.00  0.00    +0.032 A 
ATOM     10  C   UNL     1       1.155   3.186   0.008  0.00  0.00    +0.081 A 
ATOM     11 BR   UNL     1      -2.906   4.041   0.051  0.00  0.00    -0.050 Br
BRANCH   5  13
ATOM     12  C   UNL     1       2.312  -0.304  -0.023  0.00  0.00    +0.277 C 
ATOM     13  O   UNL     1       2.365   1.124  -0.015  0.00  0.00    -0.494 OA
ENDBRANCH   5  13
ENDBRANCH   1  10
BRANCH   3  14
ATOM     14  N   UNL     1       3.587   6.023  -0.001  0.00  0.00    -0.230 N 
ATOM     15  C   UNL     1       3.559   7.370   0.007  0.00  0.00    +0.260 C 
ATOM     16  O   UNL     1       2.494   7.956   0.020  0.00  0.00    -0.269 OA
ATOM     17  H   UNL     1       4.437   5.556  -0.012  0.00  0.00    +0.173 HD
BRANCH  15  18
ATOM     18  C   UNL     1       4.822   8.135  -0.002  0.00  0.00    +0.038 A 
ATOM     19  C   UNL     1       6.047   7.464  -0.012  0.00  0.00    +0.016 A 
ATOM     20  C   UNL     1       7.223   8.181  -0.026  0.00  0.00    +0.046 A 
ATOM     21  C   UNL     1       7.191   9.570  -0.018  0.00  0.00    +0.117 A 
ATOM     22  C   UNL     1       5.974  10.242  -0.002  0.00  0.00    +0.046 A 
ATOM     23  C   UNL     1       4.795   9.532   0.006  0.00  0.00    +0.016 A 
BRANCH  21  24
ATOM     24  O   UNL     1       8.352  10.273  -0.025  0.00  0.00    -0.507 OA
ATOM     25  H   UNL     1       8.697  10.472   0.856  0.00  0.00    +0.292 HD
ENDBRANCH  21  24
ENDBRANCH  15  18
ENDBRANCH   3  14
TORSDOF 5
