REMARK  Name = ZINC00469956
REMARK  6 active torsions:
REMARK  status: ('A' for Active; 'I' for Inactive)
REMARK    1  A    between atoms: C_1  and  O_2
REMARK    2  A    between atoms: O_2  and  C_3
REMARK    3  A    between atoms: C_6  and  C_11
REMARK    4  A    between atoms: C_8  and  O_9
REMARK    5  A    between atoms: C_13  and  C_24
REMARK    6  A    between atoms: C_14  and  N_23
REMARK                            x       y       z     vdW  Elec       q    Type
REMARK                         _______ _______ _______ _____ _____    ______ ____
ROOT
ATOM      1  C   UNL     1      -2.512   1.056   0.045  0.00  0.00    +0.102 C 
ATOM      2  C   UNL     1      -3.687   1.889  -0.386  0.00  0.00    +0.098 C 
ATOM      3  C   UNL     1      -3.610   3.242  -0.373  0.00  0.00    +0.198 C 
ATOM      4  O   UNL     1      -2.495   3.875   0.036  0.00  0.00    -0.445 OA
ATOM      5  C   UNL     1      -1.314   3.229   0.008  0.00  0.00    +0.115 C 
ATOM      6  C   UNL     1      -1.250   1.885   0.018  0.00  0.00    +0.046 C 
ATOM      7  C   UNL     1      -0.014   1.210   0.009  0.00  0.00    +0.163 C 
ATOM      8  O   UNL     1       0.002  -0.004   0.002  0.00  0.00    -0.292 OA
ATOM      9  C   UNL     1       1.286   1.967   0.000  0.00  0.00    +0.080 C 
ATOM     10  C   UNL     1       1.076   3.322   0.684  0.00  0.00    +0.016 C 
ATOM     11  C   UNL     1      -0.053   4.059  -0.039  0.00  0.00    +0.075 C 
ENDROOT
BRANCH   1  15
ATOM     12  C   UNL     1      -3.179  -0.378   4.019  0.00  0.00    +0.163 A 
ATOM     13  C   UNL     1      -3.126   0.985   3.771  0.00  0.00    +0.050 A 
ATOM     14  C   UNL     1      -2.910   1.445   2.485  0.00  0.00    +0.010 A 
ATOM     15  C   UNL     1      -2.747   0.549   1.445  0.00  0.00    -0.012 A 
ATOM     16  C   UNL     1      -2.804  -0.812   1.685  0.00  0.00    +0.090 A 
ATOM     17  C   UNL     1      -3.015  -1.280   2.974  0.00  0.00    +0.177 A 
ATOM     18 CL   UNL     1      -2.605  -1.934   0.376  0.00  0.00    -0.079 Cl
BRANCH  12  20
ATOM     19  C   UNL     1      -3.554   0.152   6.308  0.00  0.00    +0.277 C 
ATOM     20  O   UNL     1      -3.393  -0.831   5.284  0.00  0.00    -0.491 OA
ENDBRANCH  12  20
BRANCH  17  21
ATOM     21  O   UNL     1      -3.066  -2.618   3.213  0.00  0.00    -0.502 OA
ATOM     22  H   UNL     1      -3.952  -2.997   3.138  0.00  0.00    +0.292 HD
ENDBRANCH  17  21
ENDBRANCH   1  15
BRANCH   3  23
ATOM     23  N   UNL     1      -4.694   3.981  -0.775  0.00  0.00    -0.328 N 
ATOM     24  H   UNL     1      -5.505   3.534  -1.065  0.00  0.00    +0.145 HD
ATOM     25  H   UNL     1      -4.650   4.950  -0.770  0.00  0.00    +0.145 HD
ENDBRANCH   3  23
BRANCH   2  26
ATOM     26  C   UNL     1      -4.894   1.249  -0.813  0.00  0.00    +0.101 C 
ATOM     27  N   UNL     1      -5.852   0.742  -1.152  0.00  0.00    -0.191 NA
ENDBRANCH   2  26
TORSDOF 5
