REMARK  Name = ZINC17107035
REMARK  11 active torsions:
REMARK  status: ('A' for Active; 'I' for Inactive)
REMARK    1  A    between atoms: C_1  and  N_2
REMARK    2  A    between atoms: N_7  and  C_10
REMARK    3  A    between atoms: N_11  and  C_20
REMARK    4  A    between atoms: C_20  and  C_21
REMARK    5  A    between atoms: C_21  and  C_22
REMARK    6  A    between atoms: C_22  and  N_62
REMARK    7  A    between atoms: C_23  and  C_24
REMARK    8  A    between atoms: C_23  and  N_62
REMARK    9  A    between atoms: C_24  and  C_26
REMARK   10  A    between atoms: C_24  and  O_33
REMARK   11  A    between atoms: C_29  and  O_32
REMARK                            x       y       z     vdW  Elec       q    Type
REMARK                         _______ _______ _______ _____ _____    ______ ____
ROOT
ATOM      1  C   UNL     1       4.112   0.433  -3.155  0.00  0.00    +0.155 C 
ATOM      2  N   UNL     1       3.079   1.430  -3.446  0.00  0.00    -0.280 N 
ATOM      3  C   UNL     1       1.740   1.075  -3.395  0.00  0.00    +0.170 A 
ATOM      4  C   UNL     1       0.780   2.040  -3.680  0.00  0.00    +0.153 A 
ATOM      5  C   UNL     1       1.192   3.342  -4.012  0.00  0.00    +0.282 A 
ATOM      6  O   UNL     1       0.368   4.204  -4.263  0.00  0.00    -0.265 OA
ATOM      7  N   UNL     1       2.510   3.628  -4.050  0.00  0.00    -0.262 N 
ATOM      8  C   UNL     1       3.430   2.687  -3.776  0.00  0.00    +0.333 A 
ATOM      9  O   UNL     1       4.610   2.981  -3.820  0.00  0.00    -0.246 OA
ATOM     10  C   UNL     1       2.945   4.984  -4.396  0.00  0.00    +0.157 C 
ATOM     11  N   UNL     1      -0.453   1.414  -3.550  0.00  0.00    -0.306 N 
ATOM     12  C   UNL     1      -0.203   0.123  -3.208  0.00  0.00    +0.201 A 
ATOM     13  N   UNL     1       1.099  -0.062  -3.120  0.00  0.00    -0.196 NA
ATOM     14  N   UNL     1      -1.159  -0.842  -2.988  0.00  0.00    -0.297 N 
ATOM     15  C   UNL     1      -1.098  -1.338  -1.605  0.00  0.00    +0.136 C 
ATOM     16  C   UNL     1      -2.215  -2.362  -1.387  0.00  0.00    +0.179 C 
ATOM     17  O   UNL     1      -2.084  -3.415  -2.347  0.00  0.00    -0.377 OA
ATOM     18  C   UNL     1      -2.139  -2.967  -3.704  0.00  0.00    +0.179 C 
ATOM     19  C   UNL     1      -1.022  -1.948  -3.946  0.00  0.00    +0.136 C 
ENDROOT
BRANCH  11  20
ATOM     20  C   UNL     1      -1.769   2.026  -3.750  0.00  0.00    +0.123 C 
BRANCH  20  21
ATOM     21  C   UNL     1      -2.260   2.622  -2.429  0.00  0.00    +0.003 C 
BRANCH  21  22
ATOM     22  C   UNL     1      -3.686   3.148  -2.606  0.00  0.00    -0.081 C 
BRANCH  22  23
ATOM     23  N   UNL     1      -4.152   3.721  -1.329  0.00  0.00    +0.381 N 
ATOM     24  H   UNL     1      -3.528   4.489  -1.054  0.00  0.00    -0.086 HD
ATOM     25  H   UNL     1      -4.136   2.992  -0.605  0.00  0.00    -0.086 HD
BRANCH  23  26
ATOM     26  C   UNL     1      -5.526   4.237  -1.470  0.00  0.00    -0.046 C 
BRANCH  26  27
ATOM     27  C   UNL     1      -5.981   4.824  -0.132  0.00  0.00    +0.128 C 
BRANCH  27  28
ATOM     28  C   UNL     1      -7.385   5.354  -0.268  0.00  0.00    -0.021 A 
ATOM     29  C   UNL     1      -8.463   4.501  -0.116  0.00  0.00    +0.009 A 
ATOM     30  C   UNL     1      -9.751   4.986  -0.234  0.00  0.00    +0.046 A 
ATOM     31  C   UNL     1      -9.963   6.328  -0.517  0.00  0.00    +0.117 A 
ATOM     32  C   UNL     1      -8.880   7.180  -0.674  0.00  0.00    +0.046 A 
ATOM     33  C   UNL     1      -7.593   6.692  -0.549  0.00  0.00    +0.009 A 
BRANCH  31  34
ATOM     34  O   UNL     1     -11.229   6.806  -0.640  0.00  0.00    -0.507 OA
ATOM     35  H   UNL     1     -11.579   6.764  -1.541  0.00  0.00    +0.292 HD
ENDBRANCH  31  34
ENDBRANCH  27  28
BRANCH  27  36
ATOM     36  O   UNL     1      -5.952   3.804   0.869  0.00  0.00    -0.389 OA
ATOM     37  H   UNL     1      -6.525   3.049   0.679  0.00  0.00    +0.210 HD
ENDBRANCH  27  36
ENDBRANCH  26  27
ENDBRANCH  23  26
ENDBRANCH  22  23
ENDBRANCH  21  22
ENDBRANCH  20  21
ENDBRANCH  11  20
TORSDOF 9
