REMARK  Name = ZINC36597493
REMARK  11 active torsions:
REMARK  status: ('A' for Active; 'I' for Inactive)
REMARK    1  A    between atoms: C_1  and  C_2
REMARK    2  A    between atoms: C_5  and  C_7
REMARK    3  A    between atoms: C_7  and  N_8
REMARK    4  A    between atoms: N_8  and  C_9
REMARK    5  A    between atoms: C_9  and  C_11
REMARK    6  A    between atoms: C_9  and  C_18
REMARK    7  A    between atoms: C_16  and  O_17
REMARK    8  A    between atoms: N_20  and  C_21
REMARK    9  A    between atoms: C_27  and  C_29
REMARK   10  A    between atoms: C_30  and  O_36
REMARK   11  A    between atoms: C_34  and  O_35
REMARK                            x       y       z     vdW  Elec       q    Type
REMARK                         _______ _______ _______ _____ _____    ______ ____
ROOT
ATOM      1  N   UNL     1       2.013  -3.916  -1.460  0.00  0.00    -0.274 N 
ATOM      2  C   UNL     1       1.045  -4.597  -2.105  0.00  0.00    +0.255 C 
ATOM      3  O   UNL     1       0.982  -4.561  -3.319  0.00  0.00    -0.270 OA
ENDROOT
BRANCH   2   4
ATOM      4  C   UNL     1       0.065  -5.385  -1.339  0.00  0.00    +0.119 A 
ATOM      5  C   UNL     1      -1.134  -4.797  -0.910  0.00  0.00    +0.133 A 
ATOM      6  C   UNL     1      -2.049  -5.548  -0.191  0.00  0.00    +0.046 A 
ATOM      7  C   UNL     1      -1.785  -6.872   0.104  0.00  0.00    +0.007 A 
ATOM      8  C   UNL     1      -0.606  -7.462  -0.314  0.00  0.00    +0.046 A 
ATOM      9  C   UNL     1       0.321  -6.731  -1.039  0.00  0.00    +0.133 A 
BRANCH   9  10
ATOM     10  O   UNL     1       1.474  -7.314  -1.453  0.00  0.00    -0.506 OA
ATOM     11  H   UNL     1       2.201  -7.240  -0.820  0.00  0.00    +0.292 HD
ENDBRANCH   9  10
BRANCH   5  12
ATOM     12  O   UNL     1      -1.395  -3.497  -1.198  0.00  0.00    -0.506 OA
ATOM     13  H   UNL     1      -1.861  -3.365  -2.034  0.00  0.00    +0.292 HD
ENDBRANCH   5  12
ENDBRANCH   2   4
BRANCH   1  14
ATOM     14  C   UNL     1       2.034  -3.882   0.004  0.00  0.00    +0.183 C 
BRANCH  14  19
ATOM     15  C   UNL     1       1.069   0.867   1.407  0.00  0.00    +0.086 C 
ATOM     16  C   UNL     1       0.876  -0.596   1.099  0.00  0.00    +0.102 A 
ATOM     17  C   UNL     1      -0.275  -1.280   1.224  0.00  0.00    +0.045 A 
ATOM     18  C   UNL     1      -0.005  -2.611   0.831  0.00  0.00    +0.046 A 
ATOM     19  C   UNL     1       1.295  -2.660   0.489  0.00  0.00    +0.122 A 
ATOM     20  O   UNL     1       1.822  -1.435   0.648  0.00  0.00    -0.463 OA
ENDBRANCH  14  19
ENDBRANCH   1  14
BRANCH   1  21
ATOM     21  C   UNL     1       3.045  -3.210  -2.224  0.00  0.00    +0.196 C 
BRANCH  21  22
ATOM     22  C   UNL     1       2.390  -2.308  -3.238  0.00  0.00    +0.023 A 
ATOM     23  C   UNL     1       2.183  -2.754  -4.529  0.00  0.00    +0.009 A 
ATOM     24  C   UNL     1       1.583  -1.927  -5.460  0.00  0.00    +0.001 A 
ATOM     25  C   UNL     1       1.188  -0.651  -5.101  0.00  0.00    +0.004 A 
ATOM     26  C   UNL     1       1.391  -0.200  -3.812  0.00  0.00    +0.046 A 
ATOM     27  C   UNL     1       1.989  -1.030  -2.874  0.00  0.00    +0.122 A 
BRANCH  27  28
ATOM     28  O   UNL     1       2.185  -0.591  -1.603  0.00  0.00    -0.506 OA
ATOM     29  H   UNL     1       2.999  -0.083  -1.484  0.00  0.00    +0.292 HD
ENDBRANCH  27  28
ENDBRANCH  21  22
BRANCH  21  30
ATOM     30  C   UNL     1       3.919  -4.212  -2.933  0.00  0.00    +0.238 C 
ATOM     31  O   UNL     1       3.630  -5.389  -2.913  0.00  0.00    -0.273 OA
ATOM     32  N   UNL     1       5.021  -3.799  -3.589  0.00  0.00    -0.311 N 
ATOM     33  H   UNL     1       5.293  -2.868  -3.544  0.00  0.00    +0.149 HD
BRANCH  32  34
ATOM     34  C   UNL     1       5.810  -4.755  -4.370  0.00  0.00    +0.073 C 
ATOM     35  C   UNL     1       6.803  -5.468  -3.450  0.00  0.00    +0.022 C 
ATOM     36  C   UNL     1       7.627  -6.467  -4.265  0.00  0.00    +0.002 C 
ATOM     37  C   UNL     1       8.392  -5.722  -5.362  0.00  0.00    +0.000 C 
ATOM     38  C   UNL     1       7.399  -5.009  -6.281  0.00  0.00    +0.002 C 
ATOM     39  C   UNL     1       6.575  -4.011  -5.466  0.00  0.00    +0.022 C 
ENDBRANCH  32  34
ENDBRANCH  21  30
ENDBRANCH   1  21
TORSDOF 10
