REMARK  Name = ZINC39267674
REMARK  8 active torsions:
REMARK  status: ('A' for Active; 'I' for Inactive)
REMARK    1  A    between atoms: C_1  and  O_2
REMARK    2  A    between atoms: O_2  and  C_3
REMARK    3  A    between atoms: C_7  and  N_9
REMARK    4  A    between atoms: C_12  and  N_17
REMARK    5  A    between atoms: C_21  and  C_23
REMARK    6  A    between atoms: N_25  and  C_26
REMARK    7  A    between atoms: C_26  and  C_27
REMARK    8  A    between atoms: C_27  and  C_28
REMARK                            x       y       z     vdW  Elec       q    Type
REMARK                         _______ _______ _______ _____ _____    ______ ____
ROOT
ATOM      1  N   UNL     1      -2.543  -4.063   0.016  0.00  0.00    -0.299 N 
ATOM      2  C   UNL     1      -3.771  -4.702  -0.080  0.00  0.00    +0.130 A 
ATOM      3  C   UNL     1      -4.945  -3.961  -0.181  0.00  0.00    +0.087 A 
ATOM      4  C   UNL     1      -6.153  -4.645  -0.275  0.00  0.00    +0.129 A 
ATOM      5  N   UNL     1      -6.147  -5.976  -0.265  0.00  0.00    -0.200 NA
ATOM      6  C   UNL     1      -5.010  -6.648  -0.167  0.00  0.00    +0.216 A 
ATOM      7  N   UNL     1      -3.841  -6.031  -0.081  0.00  0.00    -0.199 NA
ATOM      8  N   UNL     1      -5.043  -8.032  -0.160  0.00  0.00    -0.327 N 
ATOM      9  H   UNL     1      -2.504  -3.097   0.097  0.00  0.00    +0.154 HD
ATOM     10  H   UNL     1      -5.891  -8.497  -0.226  0.00  0.00    +0.145 HD
ATOM     11  H   UNL     1      -4.217  -8.536  -0.089  0.00  0.00    +0.145 HD
ENDROOT
BRANCH   1  16
ATOM     12  C   UNL     1      -0.120  -6.718  -0.767  0.00  0.00    +0.122 A 
ATOM     13  C   UNL     1       0.980  -6.289  -0.037  0.00  0.00    +0.046 A 
ATOM     14  C   UNL     1       0.908  -5.127   0.706  0.00  0.00    +0.005 A 
ATOM     15  C   UNL     1      -0.258  -4.387   0.725  0.00  0.00    +0.023 A 
ATOM     16  C   UNL     1      -1.363  -4.811  -0.004  0.00  0.00    +0.036 A 
ATOM     17  C   UNL     1      -1.290  -5.976  -0.755  0.00  0.00    +0.069 A 
BRANCH  12  19
ATOM     18  C   UNL     1       1.189  -8.576  -1.463  0.00  0.00    +0.277 C 
ATOM     19  O   UNL     1      -0.048  -7.862  -1.497  0.00  0.00    -0.495 OA
ENDBRANCH  12  19
ENDBRANCH   1  16
BRANCH   4  20
ATOM     20  N   UNL     1      -7.348  -3.950  -0.377  0.00  0.00    -0.303 N 
ATOM     21  C   UNL     1      -8.695  -4.550  -0.372  0.00  0.00    +0.107 C 
ATOM     22  C   UNL     1      -9.632  -3.416   0.112  0.00  0.00    +0.021 C 
ATOM     23  C   UNL     1      -8.991  -2.173  -0.560  0.00  0.00    +0.033 C 
ATOM     24  C   UNL     1      -7.482  -2.491  -0.502  0.00  0.00    +0.161 C 
BRANCH  24  25
ATOM     25  C   UNL     1      -6.859  -1.815   0.691  0.00  0.00    +0.234 C 
ATOM     26  O   UNL     1      -6.349  -2.480   1.568  0.00  0.00    -0.274 OA
ATOM     27  N   UNL     1      -6.868  -0.470   0.785  0.00  0.00    -0.313 N 
ATOM     28  H   UNL     1      -7.276   0.062   0.084  0.00  0.00    +0.149 HD
BRANCH  27  29
ATOM     29  C   UNL     1      -6.262   0.187   1.946  0.00  0.00    +0.109 C 
BRANCH  29  30
ATOM     30  C   UNL     1      -6.407   1.704   1.806  0.00  0.00    +0.061 C 
BRANCH  30  31
ATOM     31  C   UNL     1      -5.783   2.380   2.999  0.00  0.00    -0.009 A 
ATOM     32  C   UNL     1      -4.509   2.810   3.168  0.00  0.00    +0.011 A 
ATOM     33  C   UNL     1      -4.156   3.411   4.362  0.00  0.00    +0.008 A 
ATOM     34  C   UNL     1      -5.096   3.553   5.329  0.00  0.00    +0.045 A 
ATOM     35  S   UNL     1      -6.534   2.831   4.555  0.00  0.00    -0.102 S 
ENDBRANCH  30  31
ENDBRANCH  29  30
ENDBRANCH  27  29
ENDBRANCH  24  25
ENDBRANCH   4  20
TORSDOF 7
