REMARK  Name = ZINC66664721
REMARK  13 active torsions:
REMARK  status: ('A' for Active; 'I' for Inactive)
REMARK    1  A    between atoms: C_1  and  C_2
REMARK    2  A    between atoms: C_2  and  C_3
REMARK    3  A    between atoms: C_2  and  C_4
REMARK    4  A    between atoms: C_2  and  C_5
REMARK    5  A    between atoms: C_7  and  N_14
REMARK    6  A    between atoms: N_8  and  C_10
REMARK    7  A    between atoms: C_10  and  C_11
REMARK    8  A    between atoms: C_10  and  C_12
REMARK    9  A    between atoms: C_10  and  C_13
REMARK   10  A    between atoms: C_15  and  C_17
REMARK   11  A    between atoms: C_17  and  C_18
REMARK   12  A    between atoms: C_18  and  C_20
REMARK   13  A    between atoms: C_18  and  N_25
REMARK                            x       y       z     vdW  Elec       q    Type
REMARK                         _______ _______ _______ _____ _____    ______ ____
ROOT
ATOM      1  N   UNL     1       3.571  -1.156  -3.291  0.00  0.00    -0.271 N 
ATOM      2  C   UNL     1       4.688  -0.778  -2.639  0.00  0.00    +0.220 C 
ATOM      3  O   UNL     1       4.609  -0.297  -1.528  0.00  0.00    -0.275 OA
ATOM      4  H   UNL     1       3.635  -1.541  -4.179  0.00  0.00    +0.156 HD
ENDROOT
BRANCH   1   7
ATOM      5  C   UNL     1       0.707  -0.490  -1.238  0.00  0.00    +0.070 A 
ATOM      6  C   UNL     1       2.088  -0.472  -1.454  0.00  0.00    +0.069 A 
ATOM      7  C   UNL     1       2.323  -0.995  -2.689  0.00  0.00    +0.124 A 
ATOM      8  N   UNL     1       1.128  -1.329  -3.225  0.00  0.00    -0.245 N 
ATOM      9  N   UNL     1       0.133  -1.007  -2.294  0.00  0.00    -0.174 NA
BRANCH   5  11
ATOM     10  C   UNL     1      -0.019   1.526   0.010  0.00  0.00    +0.017 C 
ATOM     11  C   UNL     1       0.002  -0.004   0.002  0.00  0.00    +0.006 C 
ATOM     12  C   UNL     1       0.742  -0.511   1.242  0.00  0.00    +0.017 C 
ATOM     13  C   UNL     1      -1.433  -0.534   0.013  0.00  0.00    +0.017 C 
ENDBRANCH   5  11
BRANCH   8  14
ATOM     14  C   UNL     1       0.912  -1.927  -4.545  0.00  0.00    +0.057 C 
ATOM     15  C   UNL     1       1.642  -3.269  -4.622  0.00  0.00    +0.036 C 
ATOM     16  C   UNL     1      -0.586  -2.147  -4.766  0.00  0.00    +0.036 C 
ATOM     17  C   UNL     1       1.454  -0.988  -5.625  0.00  0.00    +0.036 C 
ENDBRANCH   8  14
ENDBRANCH   1   7
BRANCH   2  18
ATOM     18  C   UNL     1       6.036  -0.952  -3.290  0.00  0.00    +0.123 C 
BRANCH  18  19
ATOM     19  C   UNL     1       7.128  -0.447  -2.344  0.00  0.00    +0.120 C 
BRANCH  19  20
ATOM     20  N   UNL     1       7.164  -1.289  -1.146  0.00  0.00    -0.292 N 
ATOM     21  C   UNL     1       7.415  -2.609  -1.257  0.00  0.00    +0.298 C 
ATOM     22  O   UNL     1       7.610  -3.101  -2.351  0.00  0.00    -0.253 OA
ATOM     23  N   UNL     1       7.448  -3.383  -0.154  0.00  0.00    -0.313 N 
ATOM     24  H   UNL     1       7.008  -0.897  -0.273  0.00  0.00    +0.151 HD
ATOM     25  H   UNL     1       7.292  -2.991   0.719  0.00  0.00    +0.146 HD
ATOM     26  H   UNL     1       7.628  -4.333  -0.234  0.00  0.00    +0.146 HD
ENDBRANCH  19  20
BRANCH  19  27
ATOM     27  C   UNL     1       8.463  -0.508  -3.041  0.00  0.00    +0.010 A 
ATOM     28  C   UNL     1       9.162   0.491  -3.634  0.00  0.00    +0.013 A 
ATOM     29  C   UNL     1      10.381   0.201  -4.218  0.00  0.00    +0.008 A 
ATOM     30  C   UNL     1      10.841  -1.074  -4.179  0.00  0.00    +0.045 A 
ATOM     31  S   UNL     1       9.538  -1.911  -3.293  0.00  0.00    -0.100 S 
ENDBRANCH  19  27
ENDBRANCH  18  19
ENDBRANCH   2  18
TORSDOF 7
