REMARK  Name = ZINC09624822
REMARK  14 active torsions:
REMARK  status: ('A' for Active; 'I' for Inactive)
REMARK    1  A    between atoms: C_1  and  C_2
REMARK    2  A    between atoms: C_2  and  N_3
REMARK    3  A    between atoms: N_3  and  C_4
REMARK    4  A    between atoms: N_3  and  S_6
REMARK    5  A    between atoms: C_4  and  C_5
REMARK    6  A    between atoms: S_6  and  C_9
REMARK    7  A    between atoms: C_12  and  C_15
REMARK    8  A    between atoms: C_15  and  N_17
REMARK    9  A    between atoms: N_19  and  C_28
REMARK   10  A    between atoms: C_28  and  C_29
REMARK   11  A    between atoms: C_29  and  C_30
REMARK   12  A    between atoms: C_30  and  O_32
REMARK   13  A    between atoms: O_32  and  C_33
REMARK   14  A    between atoms: C_33  and  C_34
REMARK                            x       y       z     vdW  Elec       q    Type
REMARK                         _______ _______ _______ _____ _____    ______ ____
ROOT
ATOM      1  N   UNL     1      -2.914   1.425  -0.132  0.00  0.00    -0.152 NA
ATOM      2  C   UNL     1      -2.085   1.724  -1.126  0.00  0.00    +0.167 A 
ATOM      3  N   UNL     1      -0.731   1.604  -1.159  0.00  0.00    -0.319 N 
ATOM      4  C   UNL     1      -0.031   1.964  -2.296  0.00  0.00    +0.076 A 
ATOM      5  C   UNL     1      -0.822   2.446  -3.349  0.00  0.00    +0.040 A 
ATOM      6  S   UNL     1      -2.469   2.365  -2.691  0.00  0.00    -0.052 S 
ATOM      7  C   UNL     1      -0.288   2.848  -4.550  0.00  0.00    +0.017 A 
ATOM      8  C   UNL     1       1.081   2.781  -4.746  0.00  0.00    +0.003 A 
ATOM      9  C   UNL     1       1.888   2.310  -3.725  0.00  0.00    +0.022 A 
ATOM     10  C   UNL     1       1.354   1.907  -2.522  0.00  0.00    +0.066 A 
ATOM     11 CL   UNL     1       2.405   1.323  -1.269  0.00  0.00    -0.081 Cl
ENDROOT
BRANCH   1  12
ATOM     12  C   UNL     1      -4.230   1.611  -0.280  0.00  0.00    +0.269 C 
ATOM     13  O   UNL     1      -4.668   2.055  -1.326  0.00  0.00    -0.268 OA
BRANCH  12  17
ATOM     14  C   UNL     1      -6.883   0.653   2.900  0.00  0.00    +0.106 A 
ATOM     15  C   UNL     1      -7.383   1.157   1.713  0.00  0.00    +0.029 A 
ATOM     16  C   UNL     1      -6.527   1.470   0.677  0.00  0.00    +0.015 A 
ATOM     17  C   UNL     1      -5.154   1.277   0.829  0.00  0.00    +0.039 A 
ATOM     18  C   UNL     1      -4.656   0.763   2.026  0.00  0.00    +0.015 A 
ATOM     19  C   UNL     1      -5.522   0.459   3.056  0.00  0.00    +0.029 A 
BRANCH  14  20
ATOM     20  S   UNL     1      -7.983   0.255   4.217  0.00  0.00    +0.061 S 
ATOM     21  O   UNL     1      -7.220   0.313   5.415  0.00  0.00    -0.153 OA
ATOM     22  O   UNL     1      -9.152   1.038   4.020  0.00  0.00    -0.153 OA
BRANCH  20  23
ATOM     23  N   UNL     1      -8.432  -1.326   4.019  0.00  0.00    -0.177 NA
BRANCH  23  25
ATOM     24  C   UNL     1      -8.270  -2.767   5.989  0.00  0.00    +0.022 C 
ATOM     25  C   UNL     1      -7.647  -2.395   4.642  0.00  0.00    +0.106 C 
ENDBRANCH  23  25
BRANCH  23  26
ATOM     26  C   UNL     1      -9.616  -1.657   3.221  0.00  0.00    +0.106 C 
ATOM     27  C   UNL     1      -9.190  -1.979   1.787  0.00  0.00    +0.022 C 
ENDBRANCH  23  26
ENDBRANCH  20  23
ENDBRANCH  14  20
ENDBRANCH  12  17
ENDBRANCH   1  12
BRANCH   3  28
ATOM     28  C   UNL     1      -0.013   1.086   0.008  0.00  0.00    +0.135 C 
BRANCH  28  29
ATOM     29  C   UNL     1      -0.854   1.312   1.266  0.00  0.00    +0.142 C 
BRANCH  29  30
ATOM     30  C   UNL     1      -0.056   0.917   2.482  0.00  0.00    +0.309 C 
ATOM     31  O   UNL     1       1.070   0.498   2.355  0.00  0.00    -0.251 OA
BRANCH  30  32
ATOM     32  O   UNL     1      -0.596   1.032   3.705  0.00  0.00    -0.465 OA
BRANCH  32  33
ATOM     33  C   UNL     1       0.230   0.633   4.830  0.00  0.00    +0.229 C 
ATOM     34  C   UNL     1      -0.549   0.833   6.132  0.00  0.00    +0.048 C 
ENDBRANCH  32  33
ENDBRANCH  30  32
ENDBRANCH  29  30
ENDBRANCH  28  29
ENDBRANCH   3  28
TORSDOF 11
