REMARK  Name = ZINC03294447
REMARK  6 active torsions:
REMARK  status: ('A' for Active; 'I' for Inactive)
REMARK    1  A    between atoms: C_1  and  C_2
REMARK    2  A    between atoms: N_11  and  C_15
REMARK    3  A    between atoms: C_15  and  C_16
REMARK    4  A    between atoms: N_18  and  C_19
REMARK    5  A    between atoms: C_22  and  O_25
REMARK    6  A    between atoms: O_25  and  C_26
REMARK                            x       y       z     vdW  Elec       q    Type
REMARK                         _______ _______ _______ _____ _____    ______ ____
ROOT
ATOM      1  C   UNL     1       1.280   1.980   0.007  0.00  0.00    +0.214 C 
ENDROOT
BRANCH   1  11
ATOM      2  C   UNL     1       5.654   1.583   0.615  0.00  0.00    +0.010 C 
ATOM      3  C   UNL     1       5.457   0.134   1.063  0.00  0.00    +0.018 C 
ATOM      4  C   UNL     1       5.529   0.057   2.590  0.00  0.00    +0.006 C 
ATOM      5  C   UNL     1       5.311  -1.389   3.038  0.00  0.00    +0.000 C 
ATOM      6  C   UNL     1       3.932  -1.865   2.577  0.00  0.00    +0.003 C 
ATOM      7  C   UNL     1       3.854  -1.797   1.050  0.00  0.00    +0.035 C 
ATOM      8  C   UNL     1       4.096  -0.363   0.589  0.00  0.00    +0.115 C 
ATOM      9  C   UNL     1       3.001   0.549   1.093  0.00  0.00    +0.247 C 
ATOM     10  O   UNL     1       2.716   0.785   2.248  0.00  0.00    -0.273 OA
ATOM     11  N   UNL     1       2.407   1.044  -0.012  0.00  0.00    -0.215 N 
ATOM     12  C   UNL     1       2.978   0.577  -1.130  0.00  0.00    +0.310 C 
ATOM     13  O   UNL     1       2.619   0.882  -2.250  0.00  0.00    -0.252 OA
ATOM     14  N   UNL     1       3.994  -0.269  -0.873  0.00  0.00    -0.285 N 
ATOM     15  H   UNL     1       4.548  -0.725  -1.524  0.00  0.00    +0.151 HD
ENDBRANCH   1  11
BRANCH   1  16
ATOM     16  C   UNL     1      -0.014   1.209   0.007  0.00  0.00    +0.235 C 
ATOM     17  O   UNL     1       0.002  -0.004  -0.008  0.00  0.00    -0.274 OA
ATOM     18  N   UNL     1      -1.191   1.867   0.018  0.00  0.00    -0.284 N 
ATOM     19  H   UNL     1      -1.205   2.833   0.098  0.00  0.00    +0.155 HD
BRANCH  18  20
ATOM     20  C   UNL     1      -2.393   1.154  -0.086  0.00  0.00    +0.034 A 
ATOM     21  C   UNL     1      -3.469   1.704  -0.770  0.00  0.00    +0.027 A 
ATOM     22  C   UNL     1      -4.652   0.999  -0.876  0.00  0.00    +0.047 A 
ATOM     23  C   UNL     1      -4.768  -0.253  -0.291  0.00  0.00    +0.127 A 
ATOM     24  C   UNL     1      -3.695  -0.801   0.397  0.00  0.00    +0.047 A 
ATOM     25  C   UNL     1      -2.510  -0.099   0.499  0.00  0.00    +0.027 A 
BRANCH  23  26
ATOM     26  O   UNL     1      -5.935  -0.944  -0.391  0.00  0.00    -0.434 OA
BRANCH  26  27
ATOM     27  C   UNL     1      -6.998  -0.320  -1.113  0.00  0.00    +0.541 C 
ATOM     28  F   UNL     1      -7.331   0.892  -0.499  0.00  0.00    -0.166 F 
ATOM     29  F   UNL     1      -6.590  -0.079  -2.429  0.00  0.00    -0.166 F 
ENDBRANCH  26  27
ENDBRANCH  23  26
ENDBRANCH  18  20
ENDBRANCH   1  16
TORSDOF 5
