REMARK  Name = ZINC04368682
REMARK  10 active torsions:
REMARK  status: ('A' for Active; 'I' for Inactive)
REMARK    1  A    between atoms: C_1  and  C_2
REMARK    2  A    between atoms: C_2  and  O_3
REMARK    3  A    between atoms: O_3  and  C_4
REMARK    4  A    between atoms: C_6  and  C_19
REMARK    5  A    between atoms: C_9  and  O_10
REMARK    6  A    between atoms: O_10  and  C_11
REMARK    7  A    between atoms: C_11  and  C_12
REMARK    8  A    between atoms: C_17  and  C_18
REMARK    9  A    between atoms: C_21  and  C_30
REMARK   10  A    between atoms: C_22  and  C_29
REMARK                            x       y       z     vdW  Elec       q    Type
REMARK                         _______ _______ _______ _____ _____    ______ ____
ROOT
ATOM      1  C   UNL     1      -2.186  -2.204   0.836  0.00  0.00    +0.162 A 
ATOM      2  C   UNL     1      -1.006  -2.869   0.542  0.00  0.00    +0.055 A 
ATOM      3  C   UNL     1      -0.983  -4.251   0.501  0.00  0.00    -0.017 A 
ATOM      4  C   UNL     1      -2.135  -4.972   0.753  0.00  0.00    +0.009 A 
ATOM      5  C   UNL     1      -3.315  -4.316   1.047  0.00  0.00    +0.050 A 
ATOM      6  C   UNL     1      -3.344  -2.931   1.095  0.00  0.00    +0.162 A 
ENDROOT
BRANCH   3   7
ATOM      7  C   UNL     1       0.301  -4.972   0.181  0.00  0.00    +0.164 C 
ATOM      8  C   UNL     1       0.959  -5.372   1.491  0.00  0.00    +0.061 C 
ATOM      9  C   UNL     1       1.201  -6.702   1.686  0.00  0.00    +0.052 C 
ATOM     10  N   UNL     1       0.881  -7.614   0.779  0.00  0.00    -0.218 NA
ATOM     11  C   UNL     1       0.308  -7.353  -0.383  0.00  0.00    +0.237 C 
ATOM     12  N   UNL     1      -0.009  -6.069  -0.742  0.00  0.00    -0.208 N 
ATOM     13  N   UNL     1      -0.595  -6.142  -2.008  0.00  0.00    -0.251 N 
ATOM     14  C   UNL     1      -0.608  -7.451  -2.350  0.00  0.00    +0.203 C 
ATOM     15  N   UNL     1      -0.075  -8.153  -1.397  0.00  0.00    -0.205 NA
ATOM     16  C   UNL     1       1.852  -7.145   2.971  0.00  0.00    +0.066 C 
ATOM     17  H   UNL     1      -0.928  -5.400  -2.537  0.00  0.00    +0.171 HD
BRANCH   8  18
ATOM     18  C   UNL     1       1.304  -4.413   2.461  0.00  0.00    +0.241 C 
ATOM     19  O   UNL     1       2.320  -3.752   2.331  0.00  0.00    -0.271 OA
ATOM     20  N   UNL     1       0.511  -4.224   3.535  0.00  0.00    -0.325 N 
ATOM     21  H   UNL     1      -0.332  -4.699   3.604  0.00  0.00    +0.145 HD
ATOM     22  H   UNL     1       0.784  -3.615   4.238  0.00  0.00    +0.145 HD
ENDBRANCH   8  18
ENDBRANCH   3   7
BRANCH   1  23
ATOM     23  O   UNL     1      -2.211  -0.845   0.876  0.00  0.00    -0.489 OA
BRANCH  23  25
ATOM     24  C   UNL     1      -1.207   1.345   0.692  0.00  0.00    +0.048 C 
ATOM     25  C   UNL     1      -0.985  -0.166   0.600  0.00  0.00    +0.226 C 
ENDBRANCH  23  25
ENDBRANCH   1  23
BRANCH   6  26
ATOM     26  O   UNL     1      -4.503  -2.283   1.390  0.00  0.00    -0.484 OA
BRANCH  26  27
ATOM     27  C   UNL     1      -5.652  -3.094   1.645  0.00  0.00    +0.265 C 
BRANCH  27  28
ATOM     28  C   UNL     1      -6.833  -2.209   1.950  0.00  0.00    -0.007 A 
ATOM     29  C   UNL     1      -6.687  -0.834   1.944  0.00  0.00    +0.007 A 
ATOM     30  C   UNL     1      -7.770  -0.022   2.225  0.00  0.00    +0.000 A 
ATOM     31  C   UNL     1      -9.000  -0.585   2.511  0.00  0.00    +0.000 A 
ATOM     32  C   UNL     1      -9.146  -1.960   2.516  0.00  0.00    +0.004 A 
ATOM     33  C   UNL     1      -8.064  -2.771   2.231  0.00  0.00    -0.044 A 
ATOM     34  C   UNL     1      -8.225  -4.270   2.232  0.00  0.00    +0.044 C 
ENDBRANCH  27  28
ENDBRANCH  26  27
ENDBRANCH   6  26
TORSDOF 7
