REMARK  Name = ZINC12698184
REMARK  7 active torsions:
REMARK  status: ('A' for Active; 'I' for Inactive)
REMARK    1  A    between atoms: C_3  and  S_26
REMARK    2  A    between atoms: C_6  and  C_7
REMARK    3  A    between atoms: C_7  and  C_8
REMARK    4  A    between atoms: C_8  and  C_9
REMARK    5  A    between atoms: N_11  and  N_12
REMARK    6  A    between atoms: C_13  and  C_15
REMARK    7  A    between atoms: S_26  and  N_29
REMARK                            x       y       z     vdW  Elec       q    Type
REMARK                         _______ _______ _______ _____ _____    ______ ____
ROOT
ATOM      1  C   UNL     1       4.225   5.802  -0.026  0.00  0.00    +0.229 C 
ATOM      2  O   UNL     1       5.153   5.020  -0.027  0.00  0.00    -0.274 OA
ATOM      3  N   UNL     1       2.958   5.343  -0.019  0.00  0.00    -0.234 N 
ATOM      4  H   UNL     1       2.216   5.968  -0.018  0.00  0.00    +0.173 HD
ENDROOT
BRANCH   3   5
ATOM      5  N   UNL     1       2.712   3.964  -0.012  0.00  0.00    -0.230 N 
ATOM      6  C   UNL     1       1.444   3.506  -0.005  0.00  0.00    +0.267 C 
ATOM      7  O   UNL     1       0.514   4.290  -0.004  0.00  0.00    -0.268 OA
ATOM      8  H   UNL     1       3.453   3.339  -0.013  0.00  0.00    +0.173 HD
BRANCH   6   9
ATOM      9  C   UNL     1       1.187   2.063   0.002  0.00  0.00    +0.076 A 
ATOM     10  C   UNL     1      -0.017   1.393   0.010  0.00  0.00    +0.024 A 
ATOM     11  C   UNL     1       0.002  -0.004   0.002  0.00  0.00    -0.036 A 
ATOM     12  C   UNL     1       1.210  -0.601   0.046  0.00  0.00    -0.006 A 
ATOM     13  S   UNL     1       2.348   0.711   0.002  0.00  0.00    -0.088 S 
ATOM     14  C   UNL     1       1.637  -2.039   0.187  0.00  0.00    +0.043 C 
ATOM     15  C   UNL     1       0.445  -2.988   0.319  0.00  0.00    +0.005 C 
ATOM     16  C   UNL     1      -0.170  -3.273  -1.042  0.00  0.00    +0.000 C 
ATOM     17  C   UNL     1      -0.179  -2.057  -1.947  0.00  0.00    +0.000 C 
ATOM     18  C   UNL     1      -1.430  -1.246  -1.597  0.00  0.00    +0.005 C 
ATOM     19  C   UNL     1      -1.314  -0.753  -0.155  0.00  0.00    +0.036 C 
ENDBRANCH   6   9
ENDBRANCH   3   5
BRANCH   1  20
ATOM     20  C   UNL     1       4.490   7.285  -0.033  0.00  0.00    +0.102 C 
BRANCH  20  21
ATOM     21  C   UNL     1       6.000   7.534  -0.041  0.00  0.00    +0.044 C 
BRANCH  21  27
ATOM     22  C   UNL     1       6.386   9.692  -1.248  0.00  0.00    +0.005 A 
ATOM     23  C   UNL     1       6.625  11.054  -1.254  0.00  0.00    +0.029 A 
ATOM     24  C   UNL     1       6.750  11.739  -0.060  0.00  0.00    +0.105 A 
ATOM     25  C   UNL     1       6.634  11.063   1.140  0.00  0.00    +0.029 A 
ATOM     26  C   UNL     1       6.391   9.702   1.147  0.00  0.00    +0.005 A 
ATOM     27  C   UNL     1       6.264   9.017  -0.047  0.00  0.00    -0.047 A 
BRANCH  24  28
ATOM     28  S   UNL     1       7.059  13.474  -0.068  0.00  0.00    +0.056 S 
ATOM     29  O   UNL     1       6.583  13.965  -1.313  0.00  0.00    -0.153 OA
ATOM     30  O   UNL     1       6.592  13.975   1.177  0.00  0.00    -0.153 OA
BRANCH  28  31
ATOM     31  N   UNL     1       8.702  13.679  -0.075  0.00  0.00    -0.204 NA
ATOM     32  H   UNL     1       9.091  14.459  -0.499  0.00  0.00    +0.144 HD
ATOM     33  H   UNL     1       9.275  13.019   0.346  0.00  0.00    +0.144 HD
ENDBRANCH  28  31
ENDBRANCH  24  28
ENDBRANCH  21  27
ENDBRANCH  20  21
ENDBRANCH   1  20
TORSDOF 7
