REMARK  Name = ZINC29851785
REMARK  7 active torsions:
REMARK  status: ('A' for Active; 'I' for Inactive)
REMARK    1  A    between atoms: C_1  and  C_2
REMARK    2  A    between atoms: C_2  and  C_3
REMARK    3  A    between atoms: C_2  and  N_18
REMARK    4  A    between atoms: N_5  and  C_6
REMARK    5  A    between atoms: N_21  and  C_24
REMARK    6  A    between atoms: C_27  and  C_33
REMARK    7  A    between atoms: C_29  and  N_30
REMARK                            x       y       z     vdW  Elec       q    Type
REMARK                         _______ _______ _______ _____ _____    ______ ____
ROOT
ATOM      1  N   UNL     1       1.215  -0.766  -0.569  0.00  0.00    -0.289 NA
ATOM      2  C   UNL     1       1.140  -2.225  -0.409  0.00  0.00    +0.104 C 
ATOM      3  C   UNL     1       2.414  -2.863  -0.972  0.00  0.00    +0.120 C 
ATOM      4  N   UNL     1       2.598  -2.398  -2.355  0.00  0.00    -0.326 N 
ATOM      5  C   UNL     1       2.547  -0.952  -2.615  0.00  0.00    +0.120 C 
ATOM      6  C   UNL     1       1.268  -0.388  -1.988  0.00  0.00    +0.104 C 
ENDROOT
BRANCH   4   7
ATOM      7  C   UNL     1       2.815  -3.307  -3.394  0.00  0.00    +0.060 A 
ATOM      8  C   UNL     1       1.738  -3.829  -4.098  0.00  0.00    +0.026 A 
ATOM      9  C   UNL     1       1.956  -4.727  -5.125  0.00  0.00    +0.014 A 
ATOM     10  C   UNL     1       3.245  -5.105  -5.452  0.00  0.00    +0.057 A 
ATOM     11  C   UNL     1       4.320  -4.587  -4.753  0.00  0.00    +0.047 A 
ATOM     12  C   UNL     1       4.109  -3.684  -3.729  0.00  0.00    +0.148 A 
BRANCH  10  13
ATOM     13  C   UNL     1       3.479  -6.085  -6.573  0.00  0.00    +0.417 C 
ATOM     14  F   UNL     1       2.251  -6.465  -7.124  0.00  0.00    -0.166 F 
ATOM     15  F   UNL     1       4.268  -5.484  -7.561  0.00  0.00    -0.166 F 
ATOM     16  F   UNL     1       4.137  -7.215  -6.075  0.00  0.00    -0.166 F 
ENDBRANCH  10  13
BRANCH  12  17
ATOM     17  N   UNL     1       5.260  -3.126  -2.985  0.00  0.00    +0.058 N 
ATOM     18  O   UNL     1       6.386  -3.455  -3.277  0.00  0.00    -0.126 OA
ATOM     19  O   UNL     1       5.074  -2.340  -2.085  0.00  0.00    -0.126 OA
ENDBRANCH  12  17
ENDBRANCH   4   7
BRANCH   1  21
ATOM     20  C   UNL     1      -1.178  -0.267  -0.725  0.00  0.00    +0.034 C 
ATOM     21  C   UNL     1       0.094  -0.104   0.110  0.00  0.00    +0.140 C 
BRANCH  21  22
ATOM     22  C   UNL     1       0.402   1.362   0.275  0.00  0.00    +0.234 C 
ATOM     23  O   UNL     1       1.319   1.862  -0.342  0.00  0.00    -0.274 OA
ATOM     24  N   UNL     1      -0.342   2.118   1.107  0.00  0.00    -0.284 N 
ATOM     25  H   UNL     1      -1.027   1.705   1.655  0.00  0.00    +0.155 HD
BRANCH  24  26
ATOM     26  C   UNL     1      -0.126   3.500   1.179  0.00  0.00    +0.036 A 
ATOM     27  C   UNL     1      -0.307   4.168   2.385  0.00  0.00    +0.025 A 
ATOM     28  C   UNL     1      -0.096   5.530   2.463  0.00  0.00    +0.029 A 
ATOM     29  C   UNL     1       0.300   6.235   1.336  0.00  0.00    +0.067 A 
ATOM     30  C   UNL     1       0.483   5.567   0.124  0.00  0.00    +0.069 A 
ATOM     31  C   UNL     1       0.275   4.198   0.050  0.00  0.00    +0.051 A 
ATOM     32  N   UNL     1       0.874   6.525  -0.809  0.00  0.00    -0.306 N 
ATOM     33  H   UNL     1       1.075   6.358  -1.743  0.00  0.00    +0.170 HD
ATOM     34  C   UNL     1       0.926   7.721  -0.193  0.00  0.00    +0.325 A 
ATOM     35  O   UNL     1       1.235   8.770  -0.726  0.00  0.00    -0.247 OA
ATOM     36  N   UNL     1       0.585   7.580   1.102  0.00  0.00    -0.306 N 
ATOM     37  H   UNL     1       0.545   8.292   1.759  0.00  0.00    +0.170 HD
ENDBRANCH  24  26
ENDBRANCH  21  22
ENDBRANCH   1  21
TORSDOF 6
