REMARK  Name = ZINC66037630
REMARK  7 active torsions:
REMARK  status: ('A' for Active; 'I' for Inactive)
REMARK    1  A    between atoms: C_4  and  C_7
REMARK    2  A    between atoms: C_7  and  N_8
REMARK    3  A    between atoms: C_11  and  N_14
REMARK    4  A    between atoms: N_17  and  C_18
REMARK    5  A    between atoms: C_18  and  C_19
REMARK    6  A    between atoms: C_19  and  C_20
REMARK    7  A    between atoms: N_22  and  C_23
REMARK                            x       y       z     vdW  Elec       q    Type
REMARK                         _______ _______ _______ _____ _____    ______ ____
ROOT
ATOM      1  N   UNL     1       3.279  -6.047  -3.199  0.00  0.00    -0.297 N 
ATOM      2  C   UNL     1       3.645  -6.829  -4.234  0.00  0.00    +0.300 C 
ATOM      3  O   UNL     1       3.742  -6.356  -5.349  0.00  0.00    -0.253 OA
ATOM      4  N   UNL     1       3.904  -8.136  -4.032  0.00  0.00    -0.299 N 
ATOM      5  H   UNL     1       3.201  -6.424  -2.309  0.00  0.00    +0.151 HD
ATOM      6  H   UNL     1       3.827  -8.514  -3.141  0.00  0.00    +0.150 HD
ENDROOT
BRANCH   1  10
ATOM      7  N   UNL     1       3.102  -1.908  -2.422  0.00  0.00    +0.380 N 
ATOM      8  C   UNL     1       1.820  -2.616  -2.519  0.00  0.00    -0.077 C 
ATOM      9  C   UNL     1       2.047  -4.118  -2.330  0.00  0.00    +0.004 C 
ATOM     10  C   UNL     1       2.997  -4.626  -3.419  0.00  0.00    +0.071 C 
ATOM     11  C   UNL     1       4.303  -3.829  -3.356  0.00  0.00    +0.004 C 
ATOM     12  C   UNL     1       3.992  -2.338  -3.507  0.00  0.00    -0.077 C 
ATOM     13  H   UNL     1       3.532  -2.115  -1.533  0.00  0.00    -0.082 HD
BRANCH   7  14
ATOM     14  C   UNL     1       2.870  -0.461  -2.526  0.00  0.00    -0.075 C 
BRANCH  14  18
ATOM     15  C   UNL     1       1.752   1.793   0.994  0.00  0.00    +0.000 C 
ATOM     16  C   UNL     1       2.109   0.315   1.167  0.00  0.00    +0.000 C 
ATOM     17  C   UNL     1       2.909  -0.162  -0.046  0.00  0.00    +0.002 C 
ATOM     18  C   UNL     1       2.069   0.015  -1.313  0.00  0.00    -0.028 C 
ATOM     19  C   UNL     1       1.712   1.493  -1.486  0.00  0.00    +0.002 C 
ATOM     20  C   UNL     1       0.912   1.970  -0.272  0.00  0.00    +0.000 C 
ENDBRANCH  14  18
ENDBRANCH   7  14
ENDBRANCH   1  10
BRANCH   4  21
ATOM     21  C   UNL     1       4.302  -8.986  -5.156  0.00  0.00    +0.115 C 
BRANCH  21  22
ATOM     22  C   UNL     1       4.535 -10.414  -4.658  0.00  0.00    +0.114 C 
BRANCH  22  23
ATOM     23  C   UNL     1       4.945 -11.289  -5.815  0.00  0.00    +0.215 C 
ATOM     24  O   UNL     1       5.041 -10.817  -6.928  0.00  0.00    -0.276 OA
ATOM     25  N   UNL     1       5.204 -12.596  -5.613  0.00  0.00    -0.312 N 
ATOM     26  H   UNL     1       5.127 -12.974  -4.723  0.00  0.00    +0.149 HD
BRANCH  25  27
ATOM     27  C   UNL     1       5.602 -13.447  -6.737  0.00  0.00    +0.073 C 
ATOM     28  C   UNL     1       4.353 -13.957  -7.458  0.00  0.00    +0.022 C 
ATOM     29  C   UNL     1       4.769 -14.845  -8.633  0.00  0.00    +0.002 C 
ATOM     30  C   UNL     1       5.578 -16.034  -8.111  0.00  0.00    +0.000 C 
ATOM     31  C   UNL     1       6.827 -15.524  -7.390  0.00  0.00    +0.002 C 
ATOM     32  C   UNL     1       6.411 -14.636  -6.216  0.00  0.00    +0.022 C 
ENDBRANCH  25  27
ENDBRANCH  22  23
ENDBRANCH  21  22
ENDBRANCH   4  21
TORSDOF 7
