REMARK  Name = ZINC16382367
REMARK  9 active torsions:
REMARK  status: ('A' for Active; 'I' for Inactive)
REMARK    1  A    between atoms: C_1  and  C_2
REMARK    2  A    between atoms: C_2  and  O_3
REMARK    3  A    between atoms: O_3  and  C_4
REMARK    4  A    between atoms: C_6  and  C_18
REMARK    5  A    between atoms: C_9  and  O_10
REMARK    6  A    between atoms: O_10  and  C_11
REMARK    7  A    between atoms: C_11  and  C_12
REMARK    8  A    between atoms: C_20  and  C_32
REMARK    9  A    between atoms: C_21  and  C_26
REMARK                            x       y       z     vdW  Elec       q    Type
REMARK                         _______ _______ _______ _____ _____    ______ ____
ROOT
ATOM      1  C   UNL     1       0.880  -4.964  -0.039  0.00  0.00    +0.140 C 
ATOM      2  C   UNL     1       0.848  -5.553  -1.435  0.00  0.00    +0.060 C 
ATOM      3  C   UNL     1       0.630  -6.895  -1.551  0.00  0.00    +0.050 C 
ATOM      4  N   UNL     1       0.448  -7.676  -0.435  0.00  0.00    -0.296 N 
ATOM      5  C   UNL     1       0.468  -7.197   0.815  0.00  0.00    +0.135 C 
ATOM      6  S   UNL     1       0.226  -8.280   2.119  0.00  0.00    -0.019 S 
ATOM      7  N   UNL     1       0.672  -5.893   1.084  0.00  0.00    -0.315 N 
ATOM      8  H   UNL     1       0.296  -8.626  -0.559  0.00  0.00    +0.154 HD
ATOM      9  H   UNL     1       0.682  -5.572   1.999  0.00  0.00    +0.149 HD
ENDROOT
BRANCH   1  12
ATOM     10  C   UNL     1      -0.795  -1.581   0.108  0.00  0.00    +0.162 A 
ATOM     11  C   UNL     1       0.180  -2.563   0.036  0.00  0.00    +0.055 A 
ATOM     12  C   UNL     1      -0.182  -3.897   0.038  0.00  0.00    -0.019 A 
ATOM     13  C   UNL     1      -1.515  -4.255   0.113  0.00  0.00    +0.009 A 
ATOM     14  C   UNL     1      -2.493  -3.280   0.184  0.00  0.00    +0.050 A 
ATOM     15  C   UNL     1      -2.137  -1.941   0.188  0.00  0.00    +0.162 A 
BRANCH  10  16
ATOM     16  O   UNL     1      -0.441  -0.267   0.105  0.00  0.00    -0.489 OA
BRANCH  16  18
ATOM     17  C   UNL     1       1.157   1.544   0.036  0.00  0.00    +0.048 C 
ATOM     18  C   UNL     1       0.955   0.028   0.026  0.00  0.00    +0.226 C 
ENDBRANCH  16  18
ENDBRANCH  10  16
BRANCH  15  19
ATOM     19  O   UNL     1      -3.096  -0.980   0.264  0.00  0.00    -0.484 OA
BRANCH  19  20
ATOM     20  C   UNL     1      -4.453  -1.424   0.344  0.00  0.00    +0.264 C 
BRANCH  20  21
ATOM     21  C   UNL     1      -5.368  -0.229   0.421  0.00  0.00    -0.010 A 
ATOM     22  C   UNL     1      -5.716   0.297   1.652  0.00  0.00    +0.007 A 
ATOM     23  C   UNL     1      -6.551   1.396   1.722  0.00  0.00    +0.000 A 
ATOM     24  C   UNL     1      -7.048   1.962   0.563  0.00  0.00    +0.000 A 
ATOM     25  C   UNL     1      -6.704   1.433  -0.667  0.00  0.00    +0.000 A 
ATOM     26  C   UNL     1      -5.864   0.337  -0.738  0.00  0.00    +0.007 A 
ENDBRANCH  20  21
ENDBRANCH  19  20
ENDBRANCH  15  19
ENDBRANCH   1  12
BRANCH   3  27
ATOM     27  C   UNL     1       0.591  -7.515  -2.890  0.00  0.00    -0.003 A 
ATOM     28  C   UNL     1       1.337  -8.667  -3.152  0.00  0.00    +0.010 A 
ATOM     29  C   UNL     1       1.291  -9.245  -4.404  0.00  0.00    +0.001 A 
ATOM     30  C   UNL     1       0.518  -8.679  -5.403  0.00  0.00    +0.000 A 
ATOM     31  C   UNL     1      -0.219  -7.535  -5.152  0.00  0.00    +0.001 A 
ATOM     32  C   UNL     1      -0.187  -6.950  -3.903  0.00  0.00    +0.010 A 
ENDBRANCH   3  27
BRANCH   2  33
ATOM     33  C   UNL     1       1.037  -4.742  -2.575  0.00  0.00    +0.241 C 
ATOM     34  O   UNL     1       0.137  -4.022  -2.966  0.00  0.00    -0.271 OA
ATOM     35  N   UNL     1       2.215  -4.765  -3.230  0.00  0.00    -0.325 N 
ATOM     36  H   UNL     1       2.905  -5.393  -2.965  0.00  0.00    +0.145 HD
ATOM     37  H   UNL     1       2.372  -4.154  -3.966  0.00  0.00    +0.145 HD
ENDBRANCH   2  33
TORSDOF 8
