REMARK  Name = ZINC24971667
REMARK  11 active torsions:
REMARK  status: ('A' for Active; 'I' for Inactive)
REMARK    1  A    between atoms: C_1  and  C_2
REMARK    2  A    between atoms: C_2  and  C_3
REMARK    3  A    between atoms: C_3  and  C_4
REMARK    4  A    between atoms: C_4  and  N_5
REMARK    5  A    between atoms: N_10  and  C_13
REMARK    6  A    between atoms: C_13  and  C_14
REMARK    7  A    between atoms: C_14  and  C_16
REMARK    8  A    between atoms: C_14  and  O_26
REMARK    9  A    between atoms: C_16  and  O_17
REMARK   10  A    between atoms: O_17  and  C_18
REMARK   11  A    between atoms: N_27  and  C_30
REMARK                            x       y       z     vdW  Elec       q    Type
REMARK                         _______ _______ _______ _____ _____    ______ ____
ROOT
ATOM      1  N   UNL     1      -0.020   1.094   2.454  0.00  0.00    -0.276 N 
ATOM      2  C   UNL     1      -0.369  -0.122   3.019  0.00  0.00    +0.168 A 
ATOM      3  C   UNL     1       0.321  -0.563   4.141  0.00  0.00    +0.152 A 
ATOM      4  C   UNL     1       1.348   0.244   4.677  0.00  0.00    +0.282 A 
ATOM      5  O   UNL     1       1.964  -0.119   5.663  0.00  0.00    -0.265 OA
ATOM      6  N   UNL     1       1.638   1.421   4.085  0.00  0.00    -0.256 N 
ATOM      7  C   UNL     1       0.965   1.833   2.997  0.00  0.00    +0.334 A 
ATOM      8  O   UNL     1       1.255   2.900   2.490  0.00  0.00    -0.246 OA
ATOM      9  N   UNL     1      -0.226  -1.785   4.475  0.00  0.00    -0.322 N 
ATOM     10  C   UNL     1      -1.205  -2.036   3.584  0.00  0.00    +0.202 A 
ATOM     11  N   UNL     1      -1.280  -1.053   2.723  0.00  0.00    -0.218 NA
ENDROOT
BRANCH   9  12
ATOM     12  C   UNL     1       0.171  -2.640   5.597  0.00  0.00    +0.089 C 
ATOM     13  C   UNL     1       0.582  -4.034   5.080  0.00  0.00    +0.025 C 
ATOM     14  C   UNL     1       0.056  -5.011   6.161  0.00  0.00    +0.002 C 
ATOM     15  C   UNL     1      -1.297  -4.375   6.568  0.00  0.00    +0.002 C 
ATOM     16  C   UNL     1      -1.023  -2.857   6.543  0.00  0.00    +0.025 C 
ENDBRANCH   9  12
BRANCH   1  17
ATOM     17  C   UNL     1      -0.729   1.579   1.267  0.00  0.00    +0.128 C 
BRANCH  17  18
ATOM     18  C   UNL     1      -0.013   1.086   0.008  0.00  0.00    +0.021 C 
BRANCH  18  20
ATOM     19  C   UNL     1      -0.037   1.099  -2.490  0.00  0.00    +0.004 C 
ATOM     20  C   UNL     1      -0.753   1.593  -1.232  0.00  0.00    -0.002 C 
ENDBRANCH  18  20
ENDBRANCH  17  18
ENDBRANCH   1  17
BRANCH   6  21
ATOM     21  C   UNL     1       2.702   2.263   4.637  0.00  0.00    +0.164 C 
BRANCH  21  22
ATOM     22  C   UNL     1       2.111   3.219   5.675  0.00  0.00    +0.172 C 
BRANCH  22  23
ATOM     23  O   UNL     1       1.124   4.045   5.053  0.00  0.00    -0.387 OA
ATOM     24  H   UNL     1       0.586   4.799   5.646  0.00  0.00    +0.210 HD
ENDBRANCH  22  23
BRANCH  22  25
ATOM     25  C   UNL     1       3.222   4.098   6.251  0.00  0.00    +0.262 C 
BRANCH  25  26
ATOM     26  O   UNL     1       2.692   4.909   7.302  0.00  0.00    -0.488 OA
BRANCH  26  27
ATOM     27  C   UNL     1       3.555   5.754   7.924  0.00  0.00    +0.139 A 
ATOM     28  C   UNL     1       4.885   5.802   7.532  0.00  0.00    +0.048 A 
ATOM     29  C   UNL     1       5.761   6.662   8.166  0.00  0.00    +0.023 A 
ATOM     30  C   UNL     1       5.313   7.475   9.192  0.00  0.00    +0.043 A 
ATOM     31  C   UNL     1       3.988   7.429   9.586  0.00  0.00    +0.043 A 
ATOM     32  C   UNL     1       3.106   6.575   8.950  0.00  0.00    +0.084 A 
ATOM     33 CL   UNL     1       1.441   6.524   9.438  0.00  0.00    -0.080 Cl
ATOM     34 CL   UNL     1       6.417   8.555   9.987  0.00  0.00    -0.083 Cl
ENDBRANCH  26  27
ENDBRANCH  25  26
ENDBRANCH  22  25
ENDBRANCH  21  22
ENDBRANCH   6  21
TORSDOF 10
