REMARK  Name = ZINC35268287
REMARK  9 active torsions:
REMARK  status: ('A' for Active; 'I' for Inactive)
REMARK    1  A    between atoms: C_1  and  C_2
REMARK    2  A    between atoms: C_2  and  C_3
REMARK    3  A    between atoms: C_3  and  C_5
REMARK    4  A    between atoms: C_3  and  C_6
REMARK    5  A    between atoms: C_6  and  C_8
REMARK    6  A    between atoms: C_6  and  N_23
REMARK    7  A    between atoms: C_14  and  C_16
REMARK    8  A    between atoms: C_19  and  C_22
REMARK    9  A    between atoms: N_26  and  C_27
REMARK                            x       y       z     vdW  Elec       q    Type
REMARK                         _______ _______ _______ _____ _____    ______ ____
ROOT
ATOM      1  C   UNL     1      -2.165  -0.268   1.456  0.00  0.00    +0.163 C 
ENDROOT
BRANCH   1   2
ATOM      2  C   UNL     1      -2.395   1.214   1.607  0.00  0.00    +0.239 C 
ATOM      3  O   UNL     1      -3.525   1.647   1.689  0.00  0.00    -0.273 OA
ATOM      4  N   UNL     1      -1.345   2.058   1.650  0.00  0.00    -0.262 N 
ATOM      5  C   UNL     1      -1.550   3.410   1.896  0.00  0.00    +0.188 A 
ATOM      6  N   UNL     1      -2.682   4.052   2.115  0.00  0.00    -0.125 NA
ATOM      7  N   UNL     1      -2.714   5.297   2.327  0.00  0.00    -0.140 NA
ATOM      8  C   UNL     1      -1.573   5.976   2.328  0.00  0.00    +0.134 A 
ATOM      9  S   UNL     1      -0.417   4.654   1.998  0.00  0.00    -0.030 S 
ATOM     10  H   UNL     1      -0.446   1.721   1.509  0.00  0.00    +0.157 HD
BRANCH   8  11
ATOM     11  C   UNL     1      -1.328   7.418   2.545  0.00  0.00    +0.009 A 
ATOM     12  C   UNL     1      -0.028   7.923   2.494  0.00  0.00    +0.011 A 
ATOM     13  C   UNL     1       0.194   9.270   2.697  0.00  0.00    +0.004 A 
ATOM     14  C   UNL     1      -0.869  10.118   2.951  0.00  0.00    -0.050 A 
ATOM     15  C   UNL     1      -2.160   9.624   3.003  0.00  0.00    +0.004 A 
ATOM     16  C   UNL     1      -2.396   8.280   2.795  0.00  0.00    +0.011 A 
ATOM     17  C   UNL     1      -0.619  11.588   3.172  0.00  0.00    +0.044 C 
ENDBRANCH   8  11
ENDBRANCH   1   2
BRANCH   1  18
ATOM     18  N   UNL     1      -3.370  -0.993   1.865  0.00  0.00    -0.288 N 
ATOM     19  C   UNL     1      -3.276  -2.266   2.299  0.00  0.00    +0.300 C 
ATOM     20  O   UNL     1      -2.191  -2.812   2.351  0.00  0.00    -0.253 OA
ATOM     21  N   UNL     1      -4.385  -2.933   2.675  0.00  0.00    -0.297 N 
ATOM     22  H   UNL     1      -4.236  -0.558   1.823  0.00  0.00    +0.151 HD
ATOM     23  H   UNL     1      -5.250  -2.498   2.634  0.00  0.00    +0.151 HD
BRANCH  21  24
ATOM     24  C   UNL     1      -4.282  -4.316   3.147  0.00  0.00    +0.074 C 
ATOM     25  C   UNL     1      -4.295  -5.266   1.948  0.00  0.00    +0.022 C 
ATOM     26  C   UNL     1      -4.188  -6.711   2.441  0.00  0.00    +0.002 C 
ATOM     27  C   UNL     1      -5.374  -7.027   3.355  0.00  0.00    +0.000 C 
ATOM     28  C   UNL     1      -5.361  -6.077   4.554  0.00  0.00    +0.002 C 
ATOM     29  C   UNL     1      -5.468  -4.632   4.061  0.00  0.00    +0.022 C 
ENDBRANCH  21  24
ENDBRANCH   1  18
BRANCH   1  30
ATOM     30  C   UNL     1      -1.849  -0.589  -0.006  0.00  0.00    +0.015 C 
ATOM     31  C   UNL     1      -3.086  -0.325  -0.866  0.00  0.00    +0.010 C 
BRANCH  30  33
ATOM     32  C   UNL     1      -0.127  -2.291   0.610  0.00  0.00    +0.004 C 
ATOM     33  C   UNL     1      -1.446  -2.059  -0.130  0.00  0.00    +0.002 C 
ENDBRANCH  30  33
ENDBRANCH   1  30
TORSDOF 6
