REMARK  Name = ZINC36274873
REMARK  5 active torsions:
REMARK  status: ('A' for Active; 'I' for Inactive)
REMARK    1  A    between atoms: C_1  and  N_2
REMARK    2  A    between atoms: N_2  and  C_3
REMARK    3  A    between atoms: C_3  and  N_5
REMARK    4  A    between atoms: N_5  and  N_6
REMARK    5  A    between atoms: C_15  and  O_16
REMARK                            x       y       z     vdW  Elec       q    Type
REMARK                         _______ _______ _______ _____ _____    ______ ____
ROOT
ATOM      1  N   UNL     1      -0.012  -2.671  -0.012  0.00  0.00    -0.175 NA
ATOM      2  C   UNL     1       0.006  -3.984  -0.019  0.00  0.00    +0.152 C 
ATOM      3  C   UNL     1       1.187  -4.878  -0.029  0.00  0.00    +0.036 A 
ATOM      4  C   UNL     1       2.558  -4.663  -0.034  0.00  0.00    +0.050 A 
ATOM      5  C   UNL     1       3.421  -5.744  -0.044  0.00  0.00    +0.125 A 
ATOM      6  C   UNL     1       2.919  -7.038  -0.049  0.00  0.00    +0.055 A 
ATOM      7  C   UNL     1       1.560  -7.267  -0.045  0.00  0.00    +0.047 A 
ATOM      8  C   UNL     1       0.668  -6.188  -0.034  0.00  0.00    +0.091 A 
ATOM      9  N   UNL     1      -0.690  -6.132  -0.028  0.00  0.00    -0.210 NA
ATOM     10  C   UNL     1      -1.146  -4.906  -0.013  0.00  0.00    +0.241 C 
ATOM     11 BR   UNL     1       0.900  -9.039  -0.052  0.00  0.00    -0.048 Br
ATOM     12  F   UNL     1       4.757  -5.539  -0.049  0.00  0.00    -0.205 F 
ENDROOT
BRANCH   1  13
ATOM     13  N   UNL     1      -1.137  -2.041   0.002  0.00  0.00    -0.218 N 
ATOM     14  H   UNL     1      -1.971  -2.538   0.007  0.00  0.00    +0.176 HD
BRANCH  13  15
ATOM     15  C   UNL     1      -1.156  -0.694   0.009  0.00  0.00    +0.150 C 
ATOM     16  S   UNL     1      -2.650   0.142   0.028  0.00  0.00    -0.017 S 
BRANCH  15  18
ATOM     17  C   UNL     1      -0.018   1.461   0.010  0.00  0.00    +0.127 C 
ATOM     18  N   UNL     1       0.002  -0.004   0.002  0.00  0.00    -0.328 N 
ATOM     19  H   UNL     1       0.849  -0.478  -0.009  0.00  0.00    +0.147 HD
ENDBRANCH  15  18
ENDBRANCH  13  15
ENDBRANCH   1  13
BRANCH  10  20
ATOM     20  O   UNL     1      -2.451  -4.545   0.002  0.00  0.00    -0.491 OA
ATOM     21  H   UNL     1      -3.066  -5.292   0.004  0.00  0.00    +0.294 HD
ENDBRANCH  10  20
TORSDOF 4
