REMARK  Name = ZINC01558472
REMARK  7 active torsions:
REMARK  status: ('A' for Active; 'I' for Inactive)
REMARK    1  A    between atoms: C_3  and  O_23
REMARK    2  A    between atoms: C_4  and  O_22
REMARK    3  A    between atoms: C_6  and  C_7
REMARK    4  A    between atoms: C_7  and  O_21
REMARK    5  A    between atoms: C_8  and  O_20
REMARK    6  A    between atoms: C_12  and  O_19
REMARK    7  A    between atoms: C_14  and  O_18
REMARK                            x       y       z     vdW  Elec       q    Type
REMARK                         _______ _______ _______ _____ _____    ______ ____
ROOT
ATOM      1  C   UNL     1       0.050  -2.719  -0.383  0.00  0.00    +0.300 C 
ATOM      2  C   UNL     1      -1.119  -2.070   0.370  0.00  0.00    +0.383 C 
ATOM      3  O   UNL     1      -1.177  -0.688   0.002  0.00  0.00    -0.449 OA
ATOM      4  C   UNL     1       0.002  -0.004   0.002  0.00  0.00    +0.207 A 
ATOM      5  C   UNL     1      -0.017   1.387   0.010  0.00  0.00    +0.166 A 
ATOM      6  C   UNL     1       1.173   2.097   0.002  0.00  0.00    +0.094 A 
ATOM      7  C   UNL     1       2.384   1.421  -0.013  0.00  0.00    +0.124 A 
ATOM      8  C   UNL     1       2.405   0.035  -0.019  0.00  0.00    +0.095 A 
ATOM      9  C   UNL     1       1.214  -0.679  -0.010  0.00  0.00    +0.173 A 
ATOM     10  O   UNL     1       1.254  -2.040  -0.010  0.00  0.00    -0.447 OA
ENDROOT
BRANCH   1  16
ATOM     11  C   UNL     1       0.914  -4.555   1.081  0.00  0.00    +0.014 A 
ATOM     12  C   UNL     1       1.010  -5.890   1.430  0.00  0.00    +0.049 A 
ATOM     13  C   UNL     1       0.340  -6.849   0.688  0.00  0.00    +0.158 A 
ATOM     14  C   UNL     1      -0.428  -6.466  -0.408  0.00  0.00    +0.159 A 
ATOM     15  C   UNL     1      -0.524  -5.127  -0.749  0.00  0.00    +0.059 A 
ATOM     16  C   UNL     1       0.151  -4.175  -0.007  0.00  0.00    +0.033 A 
BRANCH  14  17
ATOM     17  O   UNL     1      -1.086  -7.405  -1.139  0.00  0.00    -0.503 OA
ATOM     18  H   UNL     1      -1.982  -7.590  -0.826  0.00  0.00    +0.292 HD
ENDBRANCH  14  17
BRANCH  13  19
ATOM     19  O   UNL     1       0.433  -8.162   1.030  0.00  0.00    -0.503 OA
ATOM     20  H   UNL     1      -0.246  -8.455   1.653  0.00  0.00    +0.292 HD
ENDBRANCH  13  19
ENDBRANCH   1  16
BRANCH   7  21
ATOM     21  O   UNL     1       3.551   2.118  -0.022  0.00  0.00    -0.507 OA
ATOM     22  H   UNL     1       3.880   2.324  -0.908  0.00  0.00    +0.292 HD
ENDBRANCH   7  21
BRANCH   5  23
ATOM     23  O   UNL     1      -1.204   2.050   0.019  0.00  0.00    -0.503 OA
ATOM     24  H   UNL     1      -1.543   2.237   0.905  0.00  0.00    +0.292 HD
ENDBRANCH   5  23
BRANCH   2  25
ATOM     25  O   UNL     1      -2.342  -2.717   0.010  0.00  0.00    -0.353 OA
ATOM     26  H   UNL     1      -3.123  -2.355   0.450  0.00  0.00    +0.214 HD
ENDBRANCH   2  25
BRANCH   1  27
ATOM     27  O   UNL     1      -0.156  -2.597  -1.792  0.00  0.00    -0.347 OA
ATOM     28  H   UNL     1       0.557  -2.971  -2.327  0.00  0.00    +0.214 HD
ENDBRANCH   1  27
TORSDOF 7
