REMARK  Name = ZINC07963278
REMARK  6 active torsions:
REMARK  status: ('A' for Active; 'I' for Inactive)
REMARK    1  A    between atoms: C_4  and  N_7
REMARK    2  A    between atoms: C_14  and  C_17
REMARK    3  A    between atoms: N_19  and  N_20
REMARK    4  A    between atoms: N_20  and  C_21
REMARK    5  A    between atoms: C_21  and  N_23
REMARK    6  A    between atoms: N_23  and  C_24
REMARK                            x       y       z     vdW  Elec       q    Type
REMARK                         _______ _______ _______ _____ _____    ______ ____
ROOT
ATOM      1  N   UNL     1      -2.428   1.041   0.016  0.00  0.00    -0.269 N 
ATOM      2  C   UNL     1      -3.600   1.696   0.131  0.00  0.00    +0.306 C 
ATOM      3  O   UNL     1      -3.618   2.912   0.140  0.00  0.00    -0.252 OA
ATOM      4  N   UNL     1      -4.752   1.004   0.234  0.00  0.00    -0.285 N 
ATOM      5  C   UNL     1      -4.739  -0.462   0.332  0.00  0.00    +0.109 C 
ATOM      6  C   UNL     1      -5.648  -1.040  -0.751  0.00  0.00    +0.020 C 
ATOM      7  C   UNL     1      -7.040  -0.415  -0.633  0.00  0.00    +0.016 C 
ATOM      8  C   UNL     1      -6.940   1.098  -0.841  0.00  0.00    +0.094 C 
ATOM      9  C   UNL     1      -6.045   1.702   0.246  0.00  0.00    +0.122 C 
ATOM     10  H   UNL     1      -2.419   0.074  -0.068  0.00  0.00    +0.156 HD
ENDROOT
BRANCH   1  14
ATOM     11  C   UNL     1       1.158   3.161   0.027  0.00  0.00    +0.000 A 
ATOM     12  C   UNL     1       0.088   3.612   0.778  0.00  0.00    +0.002 A 
ATOM     13  C   UNL     1      -1.104   2.913   0.773  0.00  0.00    +0.023 A 
ATOM     14  C   UNL     1      -1.224   1.754   0.019  0.00  0.00    +0.035 A 
ATOM     15  C   UNL     1      -0.149   1.307  -0.738  0.00  0.00    +0.023 A 
ATOM     16  C   UNL     1       1.040   2.010  -0.730  0.00  0.00    +0.002 A 
ENDBRANCH   1  14
BRANCH   8  17
ATOM     17  C   UNL     1      -8.315   1.709  -0.757  0.00  0.00    +0.234 C 
ATOM     18  O   UNL     1      -9.281   1.004  -0.554  0.00  0.00    -0.274 OA
ATOM     19  N   UNL     1      -8.472   3.039  -0.909  0.00  0.00    -0.235 N 
ATOM     20  H   UNL     1      -7.699   3.603  -1.072  0.00  0.00    +0.173 HD
BRANCH  19  21
ATOM     21  N   UNL     1      -9.750   3.608  -0.831  0.00  0.00    -0.246 N 
ATOM     22  H   UNL     1     -10.522   3.044  -0.668  0.00  0.00    +0.172 HD
BRANCH  21  23
ATOM     23  C   UNL     1      -9.906   4.938  -0.982  0.00  0.00    +0.147 C 
ATOM     24  S   UNL     1     -11.468   5.632  -0.887  0.00  0.00    -0.017 S 
BRANCH  23  25
ATOM     25  N   UNL     1      -8.833   5.721  -1.209  0.00  0.00    -0.323 N 
ATOM     26  H   UNL     1      -7.948   5.328  -1.263  0.00  0.00    +0.148 HD
BRANCH  25  27
ATOM     27  C   UNL     1      -9.003   7.167  -1.373  0.00  0.00    +0.072 C 
ATOM     28  C   UNL     1      -9.305   7.499  -2.849  0.00  0.00    +0.022 C 
ATOM     29  C   UNL     1      -8.553   8.831  -3.100  0.00  0.00    +0.002 C 
ATOM     30  C   UNL     1      -7.247   8.645  -2.288  0.00  0.00    +0.002 C 
ATOM     31  C   UNL     1      -7.696   7.895  -1.016  0.00  0.00    +0.022 C 
ENDBRANCH  25  27
ENDBRANCH  23  25
ENDBRANCH  21  23
ENDBRANCH  19  21
ENDBRANCH   8  17
TORSDOF 6
