REMARK  Name = ZINC00891632
REMARK  7 active torsions:
REMARK  status: ('A' for Active; 'I' for Inactive)
REMARK    1  A    between atoms: C_1  and  C_2
REMARK    2  A    between atoms: C_2  and  O_3
REMARK    3  A    between atoms: O_3  and  C_4
REMARK    4  A    between atoms: C_10  and  N_29
REMARK    5  A    between atoms: C_11  and  C_17
REMARK    6  A    between atoms: N_19  and  C_20
REMARK    7  A    between atoms: C_26  and  C_28
REMARK                            x       y       z     vdW  Elec       q    Type
REMARK                         _______ _______ _______ _____ _____    ______ ____
ROOT
ATOM      1  C   UNL     1       0.777  -1.809  -1.336  0.00  0.00    +0.123 A 
ATOM      2  C   UNL     1       0.242  -2.658  -0.362  0.00  0.00    +0.046 A 
ATOM      3  C   UNL     1       0.317  -4.010  -0.479  0.00  0.00    +0.013 A 
ATOM      4  C   UNL     1       0.956  -4.576  -1.600  0.00  0.00    +0.001 A 
ATOM      5  C   UNL     1       1.062  -5.958  -1.763  0.00  0.00    +0.022 A 
ATOM      6  C   UNL     1       1.713  -6.460  -2.906  0.00  0.00    +0.030 A 
ATOM      7  C   UNL     1       1.931  -7.856  -3.268  0.00  0.00    +0.053 A 
ATOM      8  C   UNL     1       2.595  -8.133  -4.439  0.00  0.00    +0.097 A 
ATOM      9  S   UNL     1       2.954  -6.521  -5.107  0.00  0.00    -0.062 S 
ATOM     10  C   UNL     1       2.227  -5.515  -3.835  0.00  0.00    +0.111 A 
ATOM     11  N   UNL     1       2.127  -4.216  -3.683  0.00  0.00    -0.239 NA
ATOM     12  C   UNL     1       1.521  -3.687  -2.618  0.00  0.00    +0.076 A 
ATOM     13  C   UNL     1       1.408  -2.299  -2.444  0.00  0.00    +0.074 A 
ENDROOT
BRANCH   8  14
ATOM     14  C   UNL     1       2.915  -9.400  -4.987  0.00  0.00    +0.253 C 
ATOM     15  O   UNL     1       2.594 -10.416  -4.398  0.00  0.00    -0.270 OA
ATOM     16  N   UNL     1       3.577  -9.480  -6.158  0.00  0.00    -0.308 N 
ATOM     17  H   UNL     1       3.833  -8.670  -6.627  0.00  0.00    +0.149 HD
BRANCH  16  18
ATOM     18  C   UNL     1       3.909 -10.790  -6.724  0.00  0.00    +0.076 C 
ATOM     19  C   UNL     1       2.718 -11.314  -7.529  0.00  0.00    +0.022 C 
ATOM     20  C   UNL     1       3.065 -12.682  -8.119  0.00  0.00    +0.002 C 
ATOM     21  C   UNL     1       4.281 -12.548  -9.038  0.00  0.00    +0.000 C 
ATOM     22  C   UNL     1       5.472 -12.023  -8.233  0.00  0.00    +0.005 C 
ATOM     23  C   UNL     1       5.125 -10.655  -7.642  0.00  0.00    +0.006 C 
ATOM     24  C   UNL     1       6.316 -10.131  -6.837  0.00  0.00    +0.009 C 
ENDBRANCH  16  18
ENDBRANCH   8  14
BRANCH   7  25
ATOM     25  N   UNL     1       1.479  -8.880  -2.449  0.00  0.00    -0.356 N 
ATOM     26  H   UNL     1       1.012  -8.672  -1.625  0.00  0.00    +0.142 HD
ATOM     27  H   UNL     1       1.630  -9.805  -2.700  0.00  0.00    +0.142 HD
ENDBRANCH   7  25
BRANCH   1  28
ATOM     28  O   UNL     1       0.671  -0.465  -1.174  0.00  0.00    -0.492 OA
BRANCH  28  30
ATOM     29  C   UNL     1      -0.019   1.526   0.010  0.00  0.00    +0.048 C 
ATOM     30  C   UNL     1       0.002  -0.004   0.002  0.00  0.00    +0.225 C 
ENDBRANCH  28  30
ENDBRANCH   1  28
TORSDOF 5
