REMARK  Name = ZINC08623223
REMARK  5 active torsions:
REMARK  status: ('A' for Active; 'I' for Inactive)
REMARK    1  A    between atoms: C_1  and  C_2
REMARK    2  A    between atoms: C_2  and  C_20
REMARK    3  A    between atoms: N_5  and  C_9
REMARK    4  A    between atoms: C_9  and  C_10
REMARK    5  A    between atoms: N_12  and  C_13
REMARK                            x       y       z     vdW  Elec       q    Type
REMARK                         _______ _______ _______ _____ _____    ______ ____
ROOT
ATOM      1  C   UNL     1      -0.682  -0.543  -1.261  0.00  0.00    +0.047 C 
ATOM      2  C   UNL     1      -0.000  -0.001  -0.003  0.00  0.00    +0.135 C 
ATOM      3  C   UNL     1      -0.017   1.514   0.002  0.00  0.00    +0.251 C 
ATOM      4  O   UNL     1      -0.991   2.236   0.003  0.00  0.00    -0.272 OA
ATOM      5  N   UNL     1       1.277   1.893  -0.000  0.00  0.00    -0.215 N 
ATOM      6  C   UNL     1       2.100   0.838  -0.006  0.00  0.00    +0.310 C 
ATOM      7  O   UNL     1       3.312   0.927  -0.009  0.00  0.00    -0.252 OA
ATOM      8  N   UNL     1       1.435  -0.332  -0.008  0.00  0.00    -0.281 N 
ATOM      9  H   UNL     1       1.826  -1.220  -0.012  0.00  0.00    +0.152 HD
ENDROOT
BRANCH   2  10
ATOM     10  C   UNL     1      -0.664  -0.543   1.236  0.00  0.00    -0.015 A 
ATOM     11  C   UNL     1      -1.676   0.174   1.848  0.00  0.00    +0.007 A 
ATOM     12  C   UNL     1      -2.289  -0.325   2.982  0.00  0.00    +0.020 A 
ATOM     13  C   UNL     1      -1.883  -1.537   3.511  0.00  0.00    +0.041 A 
ATOM     14  C   UNL     1      -0.867  -2.252   2.902  0.00  0.00    +0.020 A 
ATOM     15  C   UNL     1      -0.258  -1.754   1.765  0.00  0.00    +0.007 A 
ATOM     16 CL   UNL     1      -2.649  -2.161   4.938  0.00  0.00    -0.084 Cl
ENDBRANCH   2  10
BRANCH   5  17
ATOM     17  C   UNL     1       1.726   3.287   0.002  0.00  0.00    +0.214 C 
BRANCH  17  18
ATOM     18  C   UNL     1       1.884   3.762   1.424  0.00  0.00    +0.235 C 
ATOM     19  O   UNL     1       1.645   3.009   2.344  0.00  0.00    -0.274 OA
ATOM     20  N   UNL     1       2.291   5.022   1.672  0.00  0.00    -0.284 N 
ATOM     21  H   UNL     1       2.547   5.603   0.938  0.00  0.00    +0.155 HD
BRANCH  20  22
ATOM     22  C   UNL     1       2.345   5.494   2.989  0.00  0.00    +0.033 A 
ATOM     23  C   UNL     1       2.046   6.821   3.265  0.00  0.00    +0.024 A 
ATOM     24  C   UNL     1       2.095   7.282   4.566  0.00  0.00    +0.017 A 
ATOM     25  C   UNL     1       2.452   6.426   5.592  0.00  0.00    +0.018 A 
ATOM     26  C   UNL     1       2.756   5.104   5.319  0.00  0.00    +0.017 A 
ATOM     27  C   UNL     1       2.703   4.636   4.021  0.00  0.00    +0.024 A 
ATOM     28 BR   UNL     1       2.524   7.062   7.371  0.00  0.00    -0.050 Br
ENDBRANCH  20  22
ENDBRANCH  17  18
ENDBRANCH   5  17
TORSDOF 4
