REMARK  Name = ZINC37285669
REMARK  5 active torsions:
REMARK  status: ('A' for Active; 'I' for Inactive)
REMARK    1  A    between atoms: C_3  and  O_20
REMARK    2  A    between atoms: C_4  and  C_8
REMARK    3  A    between atoms: C_6  and  N_7
REMARK    4  A    between atoms: C_8  and  S_9
REMARK    5  A    between atoms: S_9  and  C_10
REMARK                            x       y       z     vdW  Elec       q    Type
REMARK                         _______ _______ _______ _____ _____    ______ ____
ROOT
ATOM      1  C   UNL     1       3.716  -0.708  -0.038  0.00  0.00    +0.116 C 
ENDROOT
BRANCH   1   5
ATOM      2  C   UNL     1      -0.017   1.384   0.010  0.00  0.00    +0.026 A 
ATOM      3  C   UNL     1       1.170   2.091   0.002  0.00  0.00    +0.047 A 
ATOM      4  C   UNL     1       2.380   1.414  -0.013  0.00  0.00    +0.121 A 
ATOM      5  C   UNL     1       2.400   0.027  -0.021  0.00  0.00    +0.006 A 
ATOM      6  C   UNL     1       1.214  -0.681  -0.013  0.00  0.00    +0.030 A 
ATOM      7  C   UNL     1       0.002  -0.004   0.002  0.00  0.00    +0.025 A 
BRANCH   7   8
ATOM      8  N   UNL     1      -1.200  -0.721   0.010  0.00  0.00    -0.358 N 
ATOM      9  H   UNL     1      -2.047  -0.247   0.021  0.00  0.00    +0.142 HD
ATOM     10  H   UNL     1      -1.186  -1.690   0.005  0.00  0.00    +0.142 HD
ENDBRANCH   7   8
BRANCH   4  11
ATOM     11  O   UNL     1       3.549   2.110  -0.021  0.00  0.00    -0.506 OA
ATOM     12  H   UNL     1       3.895   2.307   0.860  0.00  0.00    +0.292 HD
ENDBRANCH   4  11
ENDBRANCH   1   5
BRANCH   1  13
ATOM     13  S   UNL     1       4.261  -1.012   1.666  0.00  0.00    -0.081 S 
BRANCH  13  14
ATOM     14  C   UNL     1       5.790  -1.866   1.478  0.00  0.00    +0.192 A 
ATOM     15  N   UNL     1       6.375  -2.186   0.345  0.00  0.00    -0.122 NA
ATOM     16  N   UNL     1       7.483  -2.798   0.581  0.00  0.00    -0.134 NA
ATOM     17  C   UNL     1       7.668  -2.899   1.864  0.00  0.00    +0.134 A 
ATOM     18  N   UNL     1       6.597  -2.316   2.478  0.00  0.00    -0.306 N 
ATOM     19  C   UNL     1       6.366  -2.218   3.919  0.00  0.00    +0.125 C 
ATOM     20  C   UNL     1       7.713  -2.199   4.647  0.00  0.00    +0.022 C 
ATOM     21  C   UNL     1       8.147  -3.628   4.967  0.00  0.00    +0.002 C 
ATOM     22  C   UNL     1       8.331  -4.434   3.686  0.00  0.00    +0.008 C 
ATOM     23  C   UNL     1       8.842  -3.526   2.571  0.00  0.00    +0.076 C 
ENDBRANCH  13  14
ENDBRANCH   1  13
TORSDOF 5
