REMARK  Name = ZINC59645429
REMARK  9 active torsions:
REMARK  status: ('A' for Active; 'I' for Inactive)
REMARK    1  A    between atoms: C_1  and  O_2
REMARK    2  A    between atoms: O_2  and  C_3
REMARK    3  A    between atoms: C_3  and  C_5
REMARK    4  A    between atoms: C_5  and  O_6
REMARK    5  A    between atoms: O_6  and  C_7
REMARK    6  A    between atoms: C_10  and  C_14
REMARK    7  A    between atoms: N_15  and  N_16
REMARK    8  A    between atoms: C_17  and  C_19
REMARK    9  A    between atoms: C_19  and  C_20
REMARK                            x       y       z     vdW  Elec       q    Type
REMARK                         _______ _______ _______ _____ _____    ______ ____
ROOT
ATOM      1  C   UNL     1      -3.557  -8.084  -0.007  0.00  0.00    +0.138 C 
ATOM      2  N   UNL     1      -3.661  -8.729   1.114  0.00  0.00    -0.188 NA
ENDROOT
BRANCH   1   6
ATOM      3  C   UNL     1      -2.839  -3.899   0.008  0.00  0.00    +0.158 A 
ATOM      4  C   UNL     1      -2.962  -4.576  -1.199  0.00  0.00    +0.085 A 
ATOM      5  C   UNL     1      -3.195  -5.935  -1.208  0.00  0.00    +0.033 A 
ATOM      6  C   UNL     1      -3.308  -6.631  -0.002  0.00  0.00    -0.002 A 
ATOM      7  C   UNL     1      -3.183  -5.946   1.210  0.00  0.00    +0.033 A 
ATOM      8  C   UNL     1      -2.945  -4.588   1.210  0.00  0.00    +0.085 A 
ATOM      9 CL   UNL     1      -2.783  -3.737   2.715  0.00  0.00    -0.080 Cl
ATOM     10 CL   UNL     1      -2.823  -3.710  -2.697  0.00  0.00    -0.080 Cl
BRANCH   3  11
ATOM     11  O   UNL     1      -2.609  -2.559   0.013  0.00  0.00    -0.478 OA
BRANCH  11  12
ATOM     12  C   UNL     1      -1.244  -2.135   0.003  0.00  0.00    +0.349 C 
BRANCH  12  13
ATOM     13  C   UNL     1      -1.185  -0.630   0.010  0.00  0.00    +0.345 C 
ATOM     14  O   UNL     1      -2.208   0.015   0.023  0.00  0.00    -0.247 OA
BRANCH  13  16
ATOM     15  C   UNL     1      -0.017   1.425   0.010  0.00  0.00    +0.280 C 
ATOM     16  O   UNL     1       0.002  -0.004   0.002  0.00  0.00    -0.466 OA
ENDBRANCH  13  16
ENDBRANCH  12  13
ENDBRANCH  11  12
ENDBRANCH   3  11
ENDBRANCH   1   6
BRANCH   2  17
ATOM     17  N   UNL     1      -3.898 -10.110   1.109  0.00  0.00    -0.207 N 
ATOM     18  C   UNL     1      -4.007 -10.779   2.274  0.00  0.00    +0.238 C 
ATOM     19  O   UNL     1      -3.898 -10.186   3.326  0.00  0.00    -0.274 OA
ATOM     20  H   UNL     1      -3.985 -10.584   0.267  0.00  0.00    +0.177 HD
BRANCH  18  21
ATOM     21  C   UNL     1      -4.262 -12.264   2.268  0.00  0.00    +0.153 C 
BRANCH  21  22
ATOM     22  C   UNL     1      -4.340 -12.766   3.687  0.00  0.00    +0.059 A 
ATOM     23  C   UNL     1      -5.413 -13.460   4.134  0.00  0.00    +0.072 A 
ATOM     24  S   UNL     1      -4.932 -13.766   5.826  0.00  0.00    -0.061 S 
ATOM     25  C   UNL     1      -3.439 -12.991   5.787  0.00  0.00    +0.156 A 
ATOM     26  N   UNL     1      -3.361 -12.553   4.549  0.00  0.00    -0.230 NA
ATOM     27  N   UNL     1      -2.514 -12.851   6.810  0.00  0.00    -0.338 N 
ATOM     28  H   UNL     1      -2.697 -13.230   7.684  0.00  0.00    +0.144 HD
ATOM     29  H   UNL     1      -1.684 -12.375   6.652  0.00  0.00    +0.144 HD
ENDBRANCH  21  22
ENDBRANCH  18  21
ENDBRANCH   2  17
TORSDOF 8
