REMARK  Name = ZINC61860808
REMARK  11 active torsions:
REMARK  status: ('A' for Active; 'I' for Inactive)
REMARK    1  A    between atoms: C_1  and  O_2
REMARK    2  A    between atoms: O_2  and  C_3
REMARK    3  A    between atoms: C_6  and  C_23
REMARK    4  A    between atoms: C_8  and  C_9
REMARK    5  A    between atoms: C_9  and  N_10
REMARK    6  A    between atoms: N_13  and  C_16
REMARK    7  A    between atoms: N_24  and  N_25
REMARK    8  A    between atoms: C_26  and  C_28
REMARK    9  A    between atoms: C_30  and  O_36
REMARK   10  A    between atoms: C_31  and  O_35
REMARK   11  A    between atoms: C_32  and  O_34
REMARK                            x       y       z     vdW  Elec       q    Type
REMARK                         _______ _______ _______ _____ _____    ______ ____
ROOT
ATOM      1  C   UNL     1      -1.482  -0.737  -1.525  0.00  0.00    +0.125 A 
ATOM      2  C   UNL     1      -2.731  -0.179  -1.766  0.00  0.00    +0.046 A 
ATOM      3  C   UNL     1      -3.867  -0.791  -1.281  0.00  0.00    +0.013 A 
ATOM      4  C   UNL     1      -3.760  -1.976  -0.547  0.00  0.00    -0.005 A 
ATOM      5  C   UNL     1      -2.502  -2.534  -0.307  0.00  0.00    +0.018 A 
ATOM      6  C   UNL     1      -1.372  -1.917  -0.800  0.00  0.00    +0.009 A 
ENDROOT
BRANCH   1   8
ATOM      7  C   UNL     1      -0.551   1.080  -2.741  0.00  0.00    +0.277 C 
ATOM      8  O   UNL     1      -0.366  -0.130  -2.004  0.00  0.00    -0.495 OA
ENDBRANCH   1   8
BRANCH   4   9
ATOM      9  C   UNL     1      -4.972  -2.634  -0.026  0.00  0.00    +0.138 C 
ATOM     10  N   UNL     1      -6.067  -1.953   0.123  0.00  0.00    -0.187 NA
BRANCH  10  11
ATOM     11  N   UNL     1      -6.029  -0.553   0.114  0.00  0.00    -0.203 N 
ATOM     12  C   UNL     1      -7.177   0.153   0.114  0.00  0.00    +0.263 C 
ATOM     13  O   UNL     1      -8.247  -0.425   0.121  0.00  0.00    -0.268 OA
ATOM     14  H   UNL     1      -5.176  -0.091   0.108  0.00  0.00    +0.178 HD
BRANCH  12  15
ATOM     15  C   UNL     1      -7.136   1.628   0.104  0.00  0.00    +0.045 A 
ATOM     16  C   UNL     1      -5.908   2.294   0.090  0.00  0.00    +0.062 A 
ATOM     17  C   UNL     1      -5.872   3.676   0.081  0.00  0.00    +0.163 A 
ATOM     18  C   UNL     1      -7.059   4.404   0.086  0.00  0.00    +0.201 A 
ATOM     19  C   UNL     1      -8.284   3.743   0.101  0.00  0.00    +0.163 A 
ATOM     20  C   UNL     1      -8.325   2.361   0.104  0.00  0.00    +0.062 A 
BRANCH  19  21
ATOM     21  O   UNL     1      -9.442   4.457   0.107  0.00  0.00    -0.503 OA
ATOM     22  H   UNL     1      -9.784   4.659  -0.775  0.00  0.00    +0.292 HD
ENDBRANCH  19  21
BRANCH  18  23
ATOM     23  O   UNL     1      -7.021   5.763   0.077  0.00  0.00    -0.501 OA
ATOM     24  H   UNL     1      -7.018   6.150  -0.809  0.00  0.00    +0.292 HD
ENDBRANCH  18  23
BRANCH  17  25
ATOM     25  O   UNL     1      -4.677   4.325   0.067  0.00  0.00    -0.503 OA
ATOM     26  H   UNL     1      -4.339   4.507  -0.821  0.00  0.00    +0.292 HD
ENDBRANCH  17  25
ENDBRANCH  12  15
ENDBRANCH  10  11
ENDBRANCH   4   9
BRANCH   6  27
ATOM     27  C   UNL     1      -0.015  -2.521  -0.548  0.00  0.00    +0.123 C 
BRANCH  27  28
ATOM     28  N   UNL     1       0.634  -1.819   0.567  0.00  0.00    -0.295 NA
ATOM     29  C   UNL     1       0.925  -0.423   0.211  0.00  0.00    +0.103 C 
ATOM     30  C   UNL     1       1.432   0.321   1.451  0.00  0.00    +0.120 C 
ATOM     31  N   UNL     1       2.567  -0.427   2.014  0.00  0.00    -0.327 N 
ATOM     32  C   UNL     1       2.394  -1.865   2.269  0.00  0.00    +0.120 C 
ATOM     33  C   UNL     1       1.849  -2.523   0.997  0.00  0.00    +0.103 C 
BRANCH  31  34
ATOM     34  C   UNL     1       3.778   0.212   2.298  0.00  0.00    +0.030 A 
ATOM     35  C   UNL     1       3.885   1.590   2.165  0.00  0.00    +0.026 A 
ATOM     36  C   UNL     1       5.082   2.219   2.447  0.00  0.00    +0.040 A 
ATOM     37  C   UNL     1       6.174   1.477   2.862  0.00  0.00    +0.124 A 
ATOM     38  C   UNL     1       6.070   0.103   2.995  0.00  0.00    +0.040 A 
ATOM     39  C   UNL     1       4.873  -0.530   2.720  0.00  0.00    +0.026 A 
ATOM     40  F   UNL     1       7.344   2.094   3.136  0.00  0.00    -0.205 F 
ENDBRANCH  31  34
ENDBRANCH  27  28
ENDBRANCH   6  27
TORSDOF 10
