REMARK  Name = ZINC43224358
REMARK  2 active torsions:
REMARK  status: ('A' for Active; 'I' for Inactive)
REMARK    1  A    between atoms: C_3  and  O_17
REMARK    2  A    between atoms: C_6  and  C_7
REMARK                            x       y       z     vdW  Elec       q    Type
REMARK                         _______ _______ _______ _____ _____    ______ ____
ROOT
ATOM      1  C   UNL     1      -1.269  -0.763   0.011  0.00  0.00    +0.070 C 
ATOM      2  N   UNL     1      -2.565  -0.191   0.020  0.00  0.00    -0.224 NA
ATOM      3  C   UNL     1      -3.373  -1.256  -0.593  0.00  0.00    +0.191 C 
ATOM      4  C   UNL     1      -4.813  -1.295  -0.168  0.00  0.00    +0.015 C 
ATOM      5  C   UNL     1      -5.377  -2.520  -0.207  0.00  0.00    +0.000 C 
ATOM      6  C   UNL     1      -4.544  -3.655  -0.665  0.00  0.00    +0.014 C 
ATOM      7  C   UNL     1      -3.208  -3.581  -0.514  0.00  0.00    +0.058 C 
ATOM      8  N   UNL     1      -2.714  -2.432   0.048  0.00  0.00    -0.358 NA
ATOM      9  C   UNL     1      -1.374  -2.109   0.004  0.00  0.00    +0.083 C 
ATOM     10  H   UNL     1      -2.991  -2.435   1.019  0.00  0.00    +0.132 HD
ENDROOT
BRANCH   1  16
ATOM     11  C   UNL     1      -0.017   1.391   0.010  0.00  0.00    +0.013 A 
ATOM     12  C   UNL     1       1.169   2.095   0.002  0.00  0.00    +0.046 A 
ATOM     13  C   UNL     1       2.380   1.417  -0.013  0.00  0.00    +0.117 A 
ATOM     14  C   UNL     1       2.403   0.028  -0.021  0.00  0.00    +0.046 A 
ATOM     15  C   UNL     1       1.221  -0.682  -0.013  0.00  0.00    +0.013 A 
ATOM     16  C   UNL     1       0.002  -0.004   0.002  0.00  0.00    -0.001 A 
BRANCH  13  17
ATOM     17  O   UNL     1       3.547   2.114  -0.022  0.00  0.00    -0.507 OA
ATOM     18  H   UNL     1       3.893   2.311   0.859  0.00  0.00    +0.292 HD
ENDBRANCH  13  17
ENDBRANCH   1  16
TORSDOF 2
