REMARK  Name = ZINC59384251
REMARK  8 active torsions:
REMARK  status: ('A' for Active; 'I' for Inactive)
REMARK    1  A    between atoms: C_1  and  C_2
REMARK    2  A    between atoms: C_3  and  C_19
REMARK    3  A    between atoms: C_4  and  C_10
REMARK    4  A    between atoms: C_13  and  O_18
REMARK    5  A    between atoms: C_14  and  O_16
REMARK    6  A    between atoms: O_16  and  C_17
REMARK    7  A    between atoms: N_21  and  N_22
REMARK    8  A    between atoms: C_23  and  C_24
REMARK                            x       y       z     vdW  Elec       q    Type
REMARK                         _______ _______ _______ _____ _____    ______ ____
ROOT
ATOM      1  C   UNL     1      -0.934   1.523   0.090  0.00  0.00    +0.061 C 
ATOM      2  C   UNL     1      -0.537   0.074   0.204  0.00  0.00    +0.017 C 
ATOM      3  C   UNL     1      -1.485  -0.883   0.116  0.00  0.00    +0.057 C 
ATOM      4  C   UNL     1      -1.042  -2.328   0.236  0.00  0.00    +0.139 C 
ATOM      5  N   UNL     1       0.396  -2.570   0.441  0.00  0.00    -0.315 N 
ATOM      6  C   UNL     1       1.222  -1.507   0.508  0.00  0.00    +0.135 C 
ATOM      7  S   UNL     1       2.897  -1.773   0.745  0.00  0.00    -0.019 S 
ATOM      8  N   UNL     1       0.777  -0.250   0.390  0.00  0.00    -0.300 N 
ATOM      9  H   UNL     1       0.741  -3.472   0.525  0.00  0.00    +0.149 HD
ATOM     10  H   UNL     1       1.423   0.472   0.443  0.00  0.00    +0.154 HD
ENDROOT
BRANCH   4  11
ATOM     11  C   UNL     1      -1.785  -2.947   1.392  0.00  0.00    -0.019 A 
ATOM     12  C   UNL     1      -2.749  -3.909   1.155  0.00  0.00    +0.009 A 
ATOM     13  C   UNL     1      -3.434  -4.480   2.212  0.00  0.00    +0.049 A 
ATOM     14  C   UNL     1      -3.154  -4.089   3.511  0.00  0.00    +0.158 A 
ATOM     15  C   UNL     1      -2.183  -3.121   3.749  0.00  0.00    +0.162 A 
ATOM     16  C   UNL     1      -1.498  -2.556   2.686  0.00  0.00    +0.055 A 
BRANCH  15  17
ATOM     17  O   UNL     1      -1.905  -2.733   5.023  0.00  0.00    -0.491 OA
ATOM     18  C   UNL     1      -0.979  -1.657   5.186  0.00  0.00    +0.277 C 
ENDBRANCH  15  17
BRANCH  14  19
ATOM     19  O   UNL     1      -3.827  -4.649   4.552  0.00  0.00    -0.503 OA
ATOM     20  H   UNL     1      -3.406  -5.443   4.910  0.00  0.00    +0.292 HD
ENDBRANCH  14  19
ENDBRANCH   4  11
BRANCH   3  21
ATOM     21  C   UNL     1      -2.847  -0.549  -0.081  0.00  0.00    +0.263 C 
ATOM     22  O   UNL     1      -3.198   0.617  -0.051  0.00  0.00    -0.269 OA
ATOM     23  N   UNL     1      -3.754  -1.521  -0.301  0.00  0.00    -0.203 N 
ATOM     24  H   UNL     1      -3.487  -2.453  -0.259  0.00  0.00    +0.178 HD
BRANCH  23  25
ATOM     25  N   UNL     1      -5.083  -1.186  -0.592  0.00  0.00    -0.187 NA
ATOM     26  C   UNL     1      -5.977  -2.120  -0.708  0.00  0.00    +0.139 C 
BRANCH  26  27
ATOM     27  C   UNL     1      -7.350  -1.778  -1.123  0.00  0.00    +0.013 A 
ATOM     28  C   UNL     1      -8.317  -2.780  -1.242  0.00  0.00    +0.011 A 
ATOM     29  C   UNL     1      -9.599  -2.453  -1.631  0.00  0.00    +0.001 A 
ATOM     30  C   UNL     1      -9.930  -1.137  -1.902  0.00  0.00    +0.001 A 
ATOM     31  C   UNL     1      -8.979  -0.139  -1.787  0.00  0.00    +0.020 A 
ATOM     32  C   UNL     1      -7.692  -0.450  -1.393  0.00  0.00    +0.050 A 
ATOM     33 CL   UNL     1      -6.501   0.804  -1.242  0.00  0.00    -0.083 Cl
ENDBRANCH  26  27
ENDBRANCH  23  25
ENDBRANCH   3  21
TORSDOF 6
