REMARK  Name = ZINC66814860
REMARK  3 active torsions:
REMARK  status: ('A' for Active; 'I' for Inactive)
REMARK    1  A    between atoms: C_7  and  N_17
REMARK    2  A    between atoms: C_9  and  C_11
REMARK    3  A    between atoms: C_21  and  C_24
REMARK                            x       y       z     vdW  Elec       q    Type
REMARK                         _______ _______ _______ _____ _____    ______ ____
ROOT
ATOM      1  C   UNL     1       2.212  -1.892   3.559  0.00  0.00    +0.001 A 
ATOM      2  C   UNL     1       3.360  -1.108   3.493  0.00  0.00    +0.002 A 
ATOM      3  C   UNL     1       3.831  -0.652   2.297  0.00  0.00    +0.028 A 
ATOM      4  C   UNL     1       3.150  -0.977   1.115  0.00  0.00    +0.077 A 
ATOM      5  C   UNL     1       1.981  -1.776   1.186  0.00  0.00    +0.040 A 
ATOM      6  C   UNL     1       1.525  -2.227   2.429  0.00  0.00    +0.013 A 
ATOM      7  C   UNL     1       1.309  -2.092  -0.021  0.00  0.00    +0.133 A 
ATOM      8  N   UNL     1       1.806  -1.625  -1.157  0.00  0.00    -0.212 NA
ATOM      9  C   UNL     1       2.908  -0.878  -1.177  0.00  0.00    +0.162 A 
ATOM     10  N   UNL     1       3.571  -0.554  -0.084  0.00  0.00    -0.227 NA
ENDROOT
BRANCH   9  11
ATOM     11  C   UNL     1       3.410  -0.388  -2.485  0.00  0.00    +0.022 A 
ATOM     12  C   UNL     1       2.741  -0.697  -3.672  0.00  0.00    +0.031 A 
ATOM     13  C   UNL     1       3.243  -0.221  -4.867  0.00  0.00    +0.111 A 
ATOM     14  N   UNL     1       4.337   0.515  -4.896  0.00  0.00    -0.263 NA
ATOM     15  C   UNL     1       4.998   0.829  -3.799  0.00  0.00    +0.111 A 
ATOM     16  C   UNL     1       4.562   0.400  -2.562  0.00  0.00    +0.031 A 
ENDBRANCH   9  11
BRANCH   7  17
ATOM     17  N   UNL     1       0.168  -2.865  -0.013  0.00  0.00    -0.310 N 
ATOM     18  C   UNL     1      -1.163  -2.250   0.107  0.00  0.00    +0.134 C 
ATOM     19  C   UNL     1      -2.054  -2.803  -1.012  0.00  0.00    +0.179 C 
ATOM     20  O   UNL     1      -2.010  -4.231  -0.986  0.00  0.00    -0.369 OA
ATOM     21  C   UNL     1      -0.714  -4.782  -1.233  0.00  0.00    +0.166 C 
ATOM     22  C   UNL     1       0.245  -4.330  -0.132  0.00  0.00    +0.143 C 
BRANCH  21  23
ATOM     23  C   UNL     1      -0.800  -6.286  -1.244  0.00  0.00    -0.015 A 
ATOM     24  C   UNL     1      -1.683  -6.934  -0.400  0.00  0.00    +0.006 A 
ATOM     25  C   UNL     1      -1.763  -8.314  -0.409  0.00  0.00    +0.003 A 
ATOM     26  C   UNL     1      -0.960  -9.048  -1.261  0.00  0.00    +0.038 A 
ATOM     27  C   UNL     1      -0.075  -8.400  -2.107  0.00  0.00    +0.124 A 
ATOM     28  C   UNL     1      -0.001  -7.017  -2.101  0.00  0.00    +0.044 A 
ATOM     29  F   UNL     1       0.711  -9.116  -2.940  0.00  0.00    -0.205 F 
ENDBRANCH  21  23
ENDBRANCH   7  17
TORSDOF 3
