REMARK  Name = ZINC02772985
REMARK  10 active torsions:
REMARK  status: ('A' for Active; 'I' for Inactive)
REMARK    1  A    between atoms: C_1  and  C_2
REMARK    2  A    between atoms: C_3  and  C_28
REMARK    3  A    between atoms: C_4  and  C_25
REMARK    4  A    between atoms: C_5  and  N_7
REMARK    5  A    between atoms: C_8  and  C_10
REMARK    6  A    between atoms: C_13  and  C_15
REMARK    7  A    between atoms: C_18  and  C_21
REMARK    8  A    between atoms: C_21  and  C_22
REMARK    9  A    between atoms: C_21  and  C_23
REMARK   10  A    between atoms: C_21  and  C_24
REMARK                            x       y       z     vdW  Elec       q    Type
REMARK                         _______ _______ _______ _____ _____    ______ ____
ROOT
ATOM      1  C   UNL     1      -4.051   3.605  -2.176  0.00  0.00    +0.052 C 
ATOM      2  C   UNL     1      -3.144   3.096  -1.085  0.00  0.00    -0.003 A 
ATOM      3  C   UNL     1      -1.964   2.437  -1.210  0.00  0.00    +0.006 A 
ATOM      4  C   UNL     1      -1.294   2.059   0.019  0.00  0.00    +0.073 A 
ATOM      5  C   UNL     1      -1.927   2.402   1.206  0.00  0.00    +0.085 A 
ATOM      6  S   UNL     1      -3.362   3.212   0.678  0.00  0.00    -0.077 S 
ENDROOT
BRANCH   3   7
ATOM      7  C   UNL     1      -1.388   2.119  -2.539  0.00  0.00    -0.016 A 
ATOM      8  C   UNL     1      -0.187   2.705  -2.938  0.00  0.00    +0.011 A 
ATOM      9  C   UNL     1       0.347   2.403  -4.174  0.00  0.00    +0.039 A 
ATOM     10  C   UNL     1      -0.311   1.526  -5.021  0.00  0.00    +0.123 A 
ATOM     11  C   UNL     1      -1.507   0.946  -4.630  0.00  0.00    +0.039 A 
ATOM     12  C   UNL     1      -2.047   1.238  -3.395  0.00  0.00    +0.011 A 
ATOM     13  F   UNL     1       0.213   1.237  -6.232  0.00  0.00    -0.205 F 
ENDBRANCH   3   7
BRANCH   4  14
ATOM     14  C   UNL     1      -0.016   1.344   0.009  0.00  0.00    +0.244 C 
ATOM     15  O   UNL     1       1.030   1.966   0.003  0.00  0.00    -0.270 OA
ATOM     16  N   UNL     1       0.002  -0.004   0.002  0.00  0.00    -0.325 N 
ATOM     17  H   UNL     1       0.849  -0.478  -0.009  0.00  0.00    +0.145 HD
ATOM     18  H   UNL     1      -0.831  -0.500   0.007  0.00  0.00    +0.145 HD
ENDBRANCH   4  14
BRANCH   5  19
ATOM     19  N   UNL     1      -1.508   2.156   2.504  0.00  0.00    -0.279 N 
ATOM     20  C   UNL     1      -2.259   2.568   3.544  0.00  0.00    +0.221 C 
ATOM     21  O   UNL     1      -3.303   3.154   3.344  0.00  0.00    -0.275 OA
ATOM     22  H   UNL     1      -0.673   1.688   2.664  0.00  0.00    +0.155 HD
BRANCH  20  23
ATOM     23  C   UNL     1      -1.804   2.301   4.956  0.00  0.00    +0.083 C 
ATOM     24  C   UNL     1      -1.375   3.504   5.799  0.00  0.00    +0.022 C 
ATOM     25  C   UNL     1      -2.700   2.796   6.093  0.00  0.00    +0.032 C 
BRANCH  25  26
ATOM     26  C   UNL     1      -2.776   1.949   7.337  0.00  0.00    -0.044 A 
ATOM     27  C   UNL     1      -1.631   1.684   8.064  0.00  0.00    +0.004 A 
ATOM     28  C   UNL     1      -1.701   0.912   9.209  0.00  0.00    +0.004 A 
ATOM     29  C   UNL     1      -2.916   0.395   9.620  0.00  0.00    -0.042 A 
ATOM     30  C   UNL     1      -4.060   0.655   8.890  0.00  0.00    +0.004 A 
ATOM     31  C   UNL     1      -3.991   1.432   7.748  0.00  0.00    +0.004 A 
BRANCH  29  32
ATOM     32  C   UNL     1      -2.992  -0.451  10.864  0.00  0.00    -0.013 C 
ATOM     33  C   UNL     1      -3.524  -1.840  10.505  0.00  0.00    +0.015 C 
ATOM     34  C   UNL     1      -1.596  -0.583  11.478  0.00  0.00    +0.015 C 
ATOM     35  C   UNL     1      -3.932   0.209  11.874  0.00  0.00    +0.015 C 
ENDBRANCH  29  32
ENDBRANCH  25  26
ENDBRANCH  20  23
ENDBRANCH   5  19
TORSDOF 6
