REMARK  Name = ZINC34929927
REMARK  6 active torsions:
REMARK  status: ('A' for Active; 'I' for Inactive)
REMARK    1  A    between atoms: C_4  and  C_7
REMARK    2  A    between atoms: C_7  and  C_8
REMARK    3  A    between atoms: C_8  and  C_10
REMARK    4  A    between atoms: C_8  and  N_22
REMARK    5  A    between atoms: N_12  and  C_13
REMARK    6  A    between atoms: N_25  and  C_26
REMARK                            x       y       z     vdW  Elec       q    Type
REMARK                         _______ _______ _______ _____ _____    ______ ____
ROOT
ATOM      1  C   UNL     1       4.171  -0.963   1.399  0.00  0.00    +0.165 C 
ENDROOT
BRANCH   1   2
ATOM      2  N   UNL     1       3.229  -1.870   2.059  0.00  0.00    -0.288 N 
ATOM      3  C   UNL     1       2.116  -1.379   2.640  0.00  0.00    +0.301 C 
ATOM      4  O   UNL     1       1.895  -0.184   2.616  0.00  0.00    -0.253 OA
ATOM      5  N   UNL     1       1.249  -2.213   3.248  0.00  0.00    -0.294 N 
ATOM      6  H   UNL     1       3.406  -2.823   2.078  0.00  0.00    +0.151 HD
ATOM      7  H   UNL     1       1.426  -3.167   3.267  0.00  0.00    +0.151 HD
BRANCH   5   8
ATOM      8  C   UNL     1       0.040  -1.679   3.880  0.00  0.00    +0.037 C 
ATOM      9  C   UNL     1       0.433  -0.690   4.978  0.00  0.00    +0.029 C 
ATOM     10  C   UNL     1      -0.830  -0.133   5.638  0.00  0.00    -0.008 C 
ATOM     11  C   UNL     1      -1.635  -1.281   6.250  0.00  0.00    +0.007 C 
ATOM     12  C   UNL     1      -2.028  -2.270   5.151  0.00  0.00    -0.008 C 
ATOM     13  C   UNL     1      -0.765  -2.828   4.491  0.00  0.00    +0.029 C 
ATOM     14  C   UNL     1      -2.879  -1.554   4.100  0.00  0.00    +0.007 C 
ATOM     15  C   UNL     1      -2.074  -0.406   3.488  0.00  0.00    -0.008 C 
ATOM     16  C   UNL     1      -1.681   0.584   4.587  0.00  0.00    +0.007 C 
ATOM     17  C   UNL     1      -0.811  -0.963   2.829  0.00  0.00    +0.029 C 
ENDBRANCH   5   8
ENDBRANCH   1   2
BRANCH   1  18
ATOM     18  C   UNL     1       5.543  -1.588   1.383  0.00  0.00    +0.234 C 
ATOM     19  O   UNL     1       5.715  -2.683   1.875  0.00  0.00    -0.274 OA
ATOM     20  N   UNL     1       6.577  -0.931   0.823  0.00  0.00    -0.302 N 
ATOM     21  H   UNL     1       6.438  -0.055   0.429  0.00  0.00    +0.150 HD
BRANCH  20  22
ATOM     22  C   UNL     1       7.910  -1.538   0.807  0.00  0.00    +0.159 C 
ATOM     23  C   UNL     1       8.727  -0.956  -0.348  0.00  0.00    +0.032 C 
ATOM     24  C   UNL     1       9.816  -1.923  -0.777  0.00  0.00    +0.004 C 
ATOM     25  C   UNL     1      10.895  -2.134   0.269  0.00  0.00    +0.019 C 
ATOM     26  C   UNL     1      10.332  -2.856   1.495  0.00  0.00    +0.104 C 
ATOM     27  N   UNL     1       9.762  -1.855   2.411  0.00  0.00    -0.314 N 
ATOM     28  C   UNL     1       8.623  -1.233   2.108  0.00  0.00    +0.233 C 
ATOM     29  O   UNL     1       8.159  -0.416   2.874  0.00  0.00    -0.274 OA
ATOM     30  H   UNL     1      10.217  -1.648   3.243  0.00  0.00    +0.149 HD
ENDBRANCH  20  22
ENDBRANCH   1  18
BRANCH   1  31
ATOM     31  C   UNL     1       3.711  -0.707  -0.038  0.00  0.00    +0.067 C 
BRANCH  31  35
ATOM     32  C   UNL     1      -0.017   1.378   0.010  0.00  0.00    +0.000 A 
ATOM     33  C   UNL     1       1.171   2.086   0.002  0.00  0.00    +0.000 A 
ATOM     34  C   UNL     1       2.377   1.411  -0.013  0.00  0.00    +0.004 A 
ATOM     35  C   UNL     1       2.396   0.029  -0.020  0.00  0.00    -0.045 A 
ATOM     36  C   UNL     1       1.208  -0.679  -0.012  0.00  0.00    +0.004 A 
ATOM     37  C   UNL     1       0.002  -0.004   0.002  0.00  0.00    +0.000 A 
ENDBRANCH  31  35
ENDBRANCH   1  31
TORSDOF 6
