REMARK  Name = ZINC42194932
REMARK  4 active torsions:
REMARK  status: ('A' for Active; 'I' for Inactive)
REMARK    1  A    between atoms: C_6  and  N_7
REMARK    2  A    between atoms: C_9  and  S_11
REMARK    3  A    between atoms: S_11  and  C_13
REMARK    4  A    between atoms: C_13  and  C_14
REMARK                            x       y       z     vdW  Elec       q    Type
REMARK                         _______ _______ _______ _____ _____    ______ ____
ROOT
ATOM      1  C   UNL     1      -0.017   1.390   0.010  0.00  0.00    +0.025 A 
ATOM      2  C   UNL     1       1.131   2.117   0.003  0.00  0.00    +0.031 A 
ATOM      3  C   UNL     1       2.395   1.483  -0.013  0.00  0.00    +0.080 A 
ATOM      4  C   UNL     1       2.385   0.068  -0.020  0.00  0.00    +0.042 A 
ATOM      5  C   UNL     1       1.224  -0.664  -0.014  0.00  0.00    +0.040 A 
ATOM      6  C   UNL     1       0.002  -0.004   0.002  0.00  0.00    +0.026 A 
ATOM      7  S   UNL     1       4.119  -0.319  -0.038  0.00  0.00    -0.059 S 
ATOM      8  C   UNL     1       4.723   1.363  -0.035  0.00  0.00    +0.166 A 
ATOM      9  N   UNL     1       3.618   2.057  -0.021  0.00  0.00    -0.230 NA
ENDROOT
BRANCH   6  10
ATOM     10  N   UNL     1      -1.194  -0.728   0.010  0.00  0.00    -0.358 N 
ATOM     11  H   UNL     1      -2.044  -0.261   0.021  0.00  0.00    +0.142 HD
ATOM     12  H   UNL     1      -1.174  -1.698   0.005  0.00  0.00    +0.142 HD
ENDBRANCH   6  10
BRANCH   8  13
ATOM     13  S   UNL     1       6.388   1.939  -0.046  0.00  0.00    +0.088 S 
ATOM     14  O   UNL     1       6.299   3.239  -0.613  0.00  0.00    -0.250 OA
BRANCH  13  15
ATOM     15  C   UNL     1       6.818   2.073   1.711  0.00  0.00    +0.206 C 
BRANCH  15  16
ATOM     16  C   UNL     1       8.237   2.562   1.845  0.00  0.00    +0.223 C 
ATOM     17  O   UNL     1       8.894   2.797   0.853  0.00  0.00    -0.275 OA
ATOM     18  N   UNL     1       8.776   2.739   3.068  0.00  0.00    -0.329 N 
ATOM     19  H   UNL     1       8.251   2.551   3.861  0.00  0.00    +0.145 HD
ATOM     20  H   UNL     1       9.689   3.054   3.154  0.00  0.00    +0.145 HD
ENDBRANCH  15  16
ENDBRANCH  13  15
ENDBRANCH   8  13
TORSDOF 4
