REMARK  Name = ZINC21657612
REMARK  7 active torsions:
REMARK  status: ('A' for Active; 'I' for Inactive)
REMARK    1  A    between atoms: C_1  and  C_2
REMARK    2  A    between atoms: C_5  and  C_22
REMARK    3  A    between atoms: C_6  and  O_8
REMARK    4  A    between atoms: O_8  and  C_9
REMARK    5  A    between atoms: C_9  and  C_11
REMARK    6  A    between atoms: C_9  and  C_12
REMARK    7  A    between atoms: N_14  and  C_15
REMARK                            x       y       z     vdW  Elec       q    Type
REMARK                         _______ _______ _______ _____ _____    ______ ____
ROOT
ATOM      1  O   UNL     1      -0.234  -2.937   2.511  0.00  0.00    -0.479 OA
ENDROOT
BRANCH   1   7
ATOM      2  C   UNL     1      -0.951   1.151  -0.050  0.00  0.00    +0.044 C 
ATOM      3  C   UNL     1      -0.833  -0.349   0.026  0.00  0.00    -0.047 A 
ATOM      4  C   UNL     1      -0.972  -1.110  -1.123  0.00  0.00    +0.004 A 
ATOM      5  C   UNL     1      -0.866  -2.483  -1.065  0.00  0.00    +0.017 A 
ATOM      6  C   UNL     1      -0.617  -3.111   0.158  0.00  0.00    +0.078 A 
ATOM      7  C   UNL     1      -0.476  -2.338   1.318  0.00  0.00    +0.134 A 
ATOM      8  C   UNL     1      -0.581  -0.957   1.240  0.00  0.00    +0.049 A 
BRANCH   6   9
ATOM      9  C   UNL     1      -0.502  -4.580   0.227  0.00  0.00    +0.245 C 
ATOM     10  O   UNL     1      -0.285  -5.124   1.293  0.00  0.00    -0.270 OA
ATOM     11  N   UNL     1      -0.638  -5.321  -0.891  0.00  0.00    -0.325 N 
ATOM     12  H   UNL     1      -0.811  -4.887  -1.741  0.00  0.00    +0.145 HD
ATOM     13  H   UNL     1      -0.563  -6.287  -0.845  0.00  0.00    +0.145 HD
ENDBRANCH   6   9
ENDBRANCH   1   7
BRANCH   1  14
ATOM     14  C   UNL     1       0.026  -2.081   3.626  0.00  0.00    +0.256 C 
ATOM     15  C   UNL     1      -1.299  -1.642   4.251  0.00  0.00    +0.062 C 
BRANCH  14  16
ATOM     16  C   UNL     1       0.843  -2.825   4.650  0.00  0.00    +0.258 C 
ATOM     17  O   UNL     1       1.171  -3.975   4.446  0.00  0.00    -0.271 OA
ATOM     18  N   UNL     1       1.210  -2.213   5.793  0.00  0.00    -0.282 N 
ATOM     19  H   UNL     1       0.887  -1.319   5.990  0.00  0.00    +0.155 HD
BRANCH  18  20
ATOM     20  C   UNL     1       2.057  -2.866   6.696  0.00  0.00    +0.034 A 
ATOM     21  C   UNL     1       1.914  -2.654   8.061  0.00  0.00    +0.024 A 
ATOM     22  C   UNL     1       2.751  -3.300   8.950  0.00  0.00    +0.016 A 
ATOM     23  C   UNL     1       3.730  -4.157   8.482  0.00  0.00    +0.013 A 
ATOM     24  C   UNL     1       3.874  -4.371   7.123  0.00  0.00    +0.016 A 
ATOM     25  C   UNL     1       3.037  -3.732   6.229  0.00  0.00    +0.024 A 
ATOM     26  I   UNL     1       4.997  -5.135   9.834  0.00  0.00    -0.044 I 
ENDBRANCH  18  20
ENDBRANCH  14  16
ENDBRANCH   1  14
TORSDOF 5
