REMARK  Name = ZINC13724576
REMARK  8 active torsions:
REMARK  status: ('A' for Active; 'I' for Inactive)
REMARK    1  A    between atoms: C_1  and  C_2
REMARK    2  A    between atoms: N_4  and  C_5
REMARK    3  A    between atoms: C_8  and  S_11
REMARK    4  A    between atoms: S_11  and  N_14
REMARK    5  A    between atoms: C_18  and  C_21
REMARK    6  A    between atoms: C_21  and  C_22
REMARK    7  A    between atoms: N_24  and  C_25
REMARK    8  A    between atoms: C_28  and  O_31
REMARK                            x       y       z     vdW  Elec       q    Type
REMARK                         _______ _______ _______ _____ _____    ______ ____
ROOT
ATOM      1  N   UNL     1      -1.345  -7.604  -0.735  0.00  0.00    -0.103 NA
ATOM      2  C   UNL     1      -1.865  -8.805  -0.780  0.00  0.00    +0.192 A 
ATOM      3  N   UNL     1      -3.189  -9.182  -0.849  0.00  0.00    -0.336 N 
ATOM      4  H   UNL     1      -3.894  -8.516  -0.870  0.00  0.00    +0.168 HD
ATOM      5  C   UNL     1      -3.486 -10.513  -0.887  0.00  0.00    +0.033 A 
ATOM      6  C   UNL     1      -2.509 -11.419  -0.857  0.00  0.00    +0.070 A 
ATOM      7  S   UNL     1      -1.048 -10.394  -0.779  0.00  0.00    -0.057 S 
ENDROOT
BRANCH   1   8
ATOM      8  S   UNL     1       0.299  -7.415  -0.662  0.00  0.00    +0.101 S 
ATOM      9  O   UNL     1       0.817  -7.891  -1.897  0.00  0.00    -0.146 OA
ATOM     10  O   UNL     1       0.713  -7.941   0.591  0.00  0.00    -0.146 OA
BRANCH   8  14
ATOM     11  C   UNL     1       1.132  -2.965  -0.538  0.00  0.00    +0.033 A 
ATOM     12  C   UNL     1       0.954  -3.673   0.643  0.00  0.00    +0.025 A 
ATOM     13  C   UNL     1       0.700  -5.030   0.602  0.00  0.00    +0.031 A 
ATOM     14  C   UNL     1       0.623  -5.684  -0.614  0.00  0.00    +0.113 A 
ATOM     15  C   UNL     1       0.800  -4.982  -1.792  0.00  0.00    +0.031 A 
ATOM     16  C   UNL     1       1.048  -3.624  -1.758  0.00  0.00    +0.025 A 
BRANCH  11  20
ATOM     17  C   UNL     1       1.074   0.708  -1.356  0.00  0.00    +0.109 C 
ATOM     18  C   UNL     1       0.884  -0.783  -1.453  0.00  0.00    +0.214 C 
ATOM     19  O   UNL     1       0.277  -1.258  -2.390  0.00  0.00    -0.276 OA
ATOM     20  N   UNL     1       1.390  -1.591  -0.500  0.00  0.00    -0.286 N 
ATOM     21  H   UNL     1       1.932  -1.218   0.213  0.00  0.00    +0.155 HD
ENDBRANCH  11  20
ENDBRANCH   8  14
ENDBRANCH   1   8
BRANCH   5  22
ATOM     22  C   UNL     1      -4.923 -10.961  -0.962  0.00  0.00    +0.149 C 
BRANCH  22  23
ATOM     23  C   UNL     1      -5.505 -11.017   0.427  0.00  0.00    +0.223 C 
ATOM     24  O   UNL     1      -4.819 -10.723   1.384  0.00  0.00    -0.275 OA
ATOM     25  N   UNL     1      -6.786 -11.395   0.607  0.00  0.00    -0.285 N 
ATOM     26  H   UNL     1      -7.312 -11.700  -0.149  0.00  0.00    +0.155 HD
BRANCH  25  27
ATOM     27  C   UNL     1      -7.359 -11.345   1.884  0.00  0.00    +0.034 A 
ATOM     28  C   UNL     1      -8.304 -12.290   2.259  0.00  0.00    +0.027 A 
ATOM     29  C   UNL     1      -8.868 -12.241   3.518  0.00  0.00    +0.047 A 
ATOM     30  C   UNL     1      -8.490 -11.247   4.409  0.00  0.00    +0.117 A 
ATOM     31  C   UNL     1      -7.546 -10.302   4.036  0.00  0.00    +0.047 A 
ATOM     32  C   UNL     1      -6.977 -10.354   2.779  0.00  0.00    +0.027 A 
BRANCH  30  33
ATOM     33  O   UNL     1      -9.046 -11.199   5.649  0.00  0.00    -0.507 OA
ATOM     34  H   UNL     1      -8.563 -11.706   6.317  0.00  0.00    +0.292 HD
ENDBRANCH  30  33
ENDBRANCH  25  27
ENDBRANCH  22  23
ENDBRANCH   5  22
TORSDOF 7
