REMARK  Name = ZINC28051958
REMARK  5 active torsions:
REMARK  status: ('A' for Active; 'I' for Inactive)
REMARK    1  A    between atoms: C_1  and  C_2
REMARK    2  A    between atoms: C_5  and  C_8
REMARK    3  A    between atoms: C_13  and  C_22
REMARK    4  A    between atoms: C_16  and  C_21
REMARK    5  A    between atoms: C_25  and  O_28
REMARK                            x       y       z     vdW  Elec       q    Type
REMARK                         _______ _______ _______ _____ _____    ______ ____
ROOT
ATOM      1  C   UNL     1       4.618   4.599   1.598  0.00  0.00    +0.032 C 
ATOM      2  C   UNL     1       3.457   4.618   0.603  0.00  0.00    +0.059 C 
ATOM      3  C   UNL     1       3.034   3.201   0.288  0.00  0.00    +0.019 C 
ATOM      4  C   UNL     1       3.935   2.196   0.292  0.00  0.00    +0.024 C 
ATOM      5  C   UNL     1       3.555   0.767  -0.035  0.00  0.00    +0.091 C 
ATOM      6  C   UNL     1       2.067   0.632  -0.017  0.00  0.00    +0.049 A 
ATOM      7  C   UNL     1       1.224  -0.476  -0.014  0.00  0.00    +0.087 A 
ATOM      8  N   UNL     1       0.002  -0.004   0.002  0.00  0.00    -0.081 NA
ATOM      9  O   UNL     1      -0.014   1.212   0.009  0.00  0.00    -0.339 OA
ATOM     10  C   UNL     1       1.218   1.709  -0.000  0.00  0.00    +0.226 A 
ATOM     11  N   UNL     1       1.703   3.000   0.008  0.00  0.00    -0.286 N 
ATOM     12  C   UNL     1       1.634  -1.926  -0.028  0.00  0.00    +0.069 C 
ATOM     13  C   UNL     1       5.285   2.437   0.609  0.00  0.00    +0.162 C 
ATOM     14  O   UNL     1       6.073   1.512   0.587  0.00  0.00    -0.292 OA
ATOM     15  C   UNL     1       5.774   3.810   0.974  0.00  0.00    +0.088 C 
ATOM     16  H   UNL     1       1.050   3.859  -0.204  0.00  0.00    +0.155 HD
ENDROOT
BRANCH   1  21
ATOM     17  C   UNL     1       6.328  10.007   2.706  0.00  0.00    +0.044 C 
ATOM     18  C   UNL     1       5.882   8.597   2.417  0.00  0.00    -0.050 A 
ATOM     19  C   UNL     1       5.446   7.785   3.448  0.00  0.00    +0.003 A 
ATOM     20  C   UNL     1       5.037   6.492   3.183  0.00  0.00    +0.004 A 
ATOM     21  C   UNL     1       5.064   6.010   1.887  0.00  0.00    -0.043 A 
ATOM     22  C   UNL     1       5.505   6.820   0.858  0.00  0.00    +0.004 A 
ATOM     23  C   UNL     1       5.909   8.115   1.122  0.00  0.00    +0.003 A 
ENDBRANCH   1  21
BRANCH   5  24
ATOM     24  C   UNL     1       4.076   0.410  -1.404  0.00  0.00    -0.035 A 
ATOM     25  C   UNL     1       3.657   1.126  -2.510  0.00  0.00    +0.008 A 
ATOM     26  C   UNL     1       4.137   0.804  -3.765  0.00  0.00    +0.046 A 
ATOM     27  C   UNL     1       5.031  -0.246  -3.916  0.00  0.00    +0.117 A 
ATOM     28  C   UNL     1       5.445  -0.967  -2.805  0.00  0.00    +0.046 A 
ATOM     29  C   UNL     1       4.967  -0.637  -1.552  0.00  0.00    +0.008 A 
BRANCH  27  30
ATOM     30  O   UNL     1       5.500  -0.569  -5.150  0.00  0.00    -0.507 OA
ATOM     31  H   UNL     1       6.208  -1.402  -5.269  0.00  0.00    +0.292 HD
ENDBRANCH  27  30
ENDBRANCH   5  24
TORSDOF 3
