REMARK  Name = ZINC14655373
REMARK  10 active torsions:
REMARK  status: ('A' for Active; 'I' for Inactive)
REMARK    1  A    between atoms: C_1  and  C_2
REMARK    2  A    between atoms: C_2  and  O_3
REMARK    3  A    between atoms: O_3  and  C_4
REMARK    4  A    between atoms: C_9  and  C_10
REMARK    5  A    between atoms: N_12  and  C_13
REMARK    6  A    between atoms: C_13  and  N_15
REMARK    7  A    between atoms: N_15  and  C_16
REMARK    8  A    between atoms: C_17  and  C_23
REMARK    9  A    between atoms: C_18  and  C_22
REMARK   10  A    between atoms: C_19  and  C_21
REMARK                            x       y       z     vdW  Elec       q    Type
REMARK                         _______ _______ _______ _____ _____    ______ ____
ROOT
ATOM      1  C   UNL     1      -1.156  -0.694   0.009  0.00  0.00    +0.141 C 
ATOM      2  S   UNL     1      -2.650   0.142   0.028  0.00  0.00    -0.018 S 
ENDROOT
BRANCH   1   5
ATOM      3  C   UNL     1      -0.016   1.344   0.009  0.00  0.00    +0.253 C 
ATOM      4  O   UNL     1      -1.077   1.937   0.018  0.00  0.00    -0.270 OA
ATOM      5  N   UNL     1       0.002  -0.004   0.002  0.00  0.00    -0.263 N 
ATOM      6  H   UNL     1       0.849  -0.478  -0.009  0.00  0.00    +0.157 HD
BRANCH   3  12
ATOM      7  C   UNL     1       1.236   3.500   0.009  0.00  0.00    +0.133 A 
ATOM      8  C   UNL     1       2.434   4.200   0.001  0.00  0.00    +0.047 A 
ATOM      9  C   UNL     1       3.634   3.518  -0.014  0.00  0.00    +0.019 A 
ATOM     10  C   UNL     1       3.653   2.132  -0.021  0.00  0.00    +0.019 A 
ATOM     11  C   UNL     1       2.473   1.420  -0.008  0.00  0.00    +0.032 A 
ATOM     12  C   UNL     1       1.251   2.098   0.001  0.00  0.00    +0.080 A 
ATOM     13 BR   UNL     1       5.306   1.213  -0.042  0.00  0.00    -0.050 Br
BRANCH   7  14
ATOM     14  O   UNL     1       0.056   4.169   0.024  0.00  0.00    -0.491 OA
BRANCH  14  16
ATOM     15  C   UNL     1      -1.298   6.170   0.047  0.00  0.00    +0.048 C 
ATOM     16  C   UNL     1       0.120   5.596   0.031  0.00  0.00    +0.226 C 
ENDBRANCH  14  16
ENDBRANCH   7  14
ENDBRANCH   3  12
ENDBRANCH   1   5
BRANCH   1  17
ATOM     17  N   UNL     1      -1.137  -2.041   0.002  0.00  0.00    -0.291 N 
ATOM     18  H   UNL     1      -0.291  -2.515  -0.009  0.00  0.00    +0.154 HD
BRANCH  17  19
ATOM     19  C   UNL     1      -2.328  -2.751   0.009  0.00  0.00    +0.084 A 
ATOM     20  C   UNL     1      -2.513  -4.128   0.004  0.00  0.00    +0.068 A 
ATOM     21  C   UNL     1      -3.877  -4.601   0.014  0.00  0.00    -0.027 A 
ATOM     22  C   UNL     1      -4.848  -3.671   0.029  0.00  0.00    -0.008 A 
ATOM     23  S   UNL     1      -3.946  -2.135   0.036  0.00  0.00    -0.078 S 
ATOM     24  C   UNL     1      -6.341  -3.878   0.042  0.00  0.00    +0.052 C 
ATOM     25  C   UNL     1      -4.199  -6.073   0.009  0.00  0.00    +0.045 C 
BRANCH  20  26
ATOM     26  C   UNL     1      -1.378  -5.056  -0.012  0.00  0.00    +0.244 C 
ATOM     27  O   UNL     1      -0.896  -5.447   1.035  0.00  0.00    -0.270 OA
ATOM     28  N   UNL     1      -0.867  -5.476  -1.187  0.00  0.00    -0.325 N 
ATOM     29  H   UNL     1      -1.251  -5.164  -2.022  0.00  0.00    +0.145 HD
ATOM     30  H   UNL     1      -0.117  -6.090  -1.198  0.00  0.00    +0.145 HD
ENDBRANCH  20  26
ENDBRANCH  17  19
ENDBRANCH   1  17
TORSDOF 7
