REMARK  Name = ZINC40086165
REMARK  6 active torsions:
REMARK  status: ('A' for Active; 'I' for Inactive)
REMARK    1  A    between atoms: C_1  and  C_2
REMARK    2  A    between atoms: N_10  and  N_14
REMARK    3  A    between atoms: C_15  and  C_17
REMARK    4  A    between atoms: C_17  and  N_18
REMARK    5  A    between atoms: C_22  and  C_24
REMARK    6  A    between atoms: N_26  and  C_27
REMARK                            x       y       z     vdW  Elec       q    Type
REMARK                         _______ _______ _______ _____ _____    ______ ____
ROOT
ATOM      1  C   UNL     1      -0.635  -7.499   4.449  0.00  0.00    +0.021 C 
ENDROOT
BRANCH   1   2
ATOM      2  N   UNL     1       0.160  -8.002   5.577  0.00  0.00    +0.393 N 
ATOM      3  C   UNL     1      -0.251  -7.327   6.835  0.00  0.00    -0.077 C 
ATOM      4  C   UNL     1       0.222  -8.309   7.935  0.00  0.00    -0.020 C 
ATOM      5  C   UNL     1      -0.055  -9.694   7.305  0.00  0.00    -0.008 C 
ATOM      6  C   UNL     1      -0.105  -9.442   5.787  0.00  0.00    +0.020 C 
ATOM      7  H   UNL     1       1.143  -7.851   5.405  0.00  0.00    -0.080 HD
BRANCH   6   8
ATOM      8  C   UNL     1       0.950 -10.265   5.095  0.00  0.00    +0.204 C 
ATOM      9  O   UNL     1       1.842  -9.716   4.483  0.00  0.00    -0.277 OA
ATOM     10  N   UNL     1       0.903 -11.610   5.156  0.00  0.00    -0.287 N 
ATOM     11  H   UNL     1       0.235 -12.048   5.707  0.00  0.00    +0.155 HD
BRANCH  10  12
ATOM     12  C   UNL     1       1.817 -12.376   4.423  0.00  0.00    +0.036 A 
ATOM     13  C   UNL     1       2.264 -13.592   4.924  0.00  0.00    +0.043 A 
ATOM     14  C   UNL     1       3.166 -14.347   4.198  0.00  0.00    +0.044 A 
ATOM     15  C   UNL     1       3.624 -13.893   2.974  0.00  0.00    +0.040 A 
ATOM     16  C   UNL     1       3.180 -12.681   2.473  0.00  0.00    +0.044 A 
ATOM     17  C   UNL     1       2.273 -11.925   3.192  0.00  0.00    +0.043 A 
ATOM     18 CL   UNL     1       3.756 -12.115   0.937  0.00  0.00    -0.083 Cl
ATOM     19 CL   UNL     1       3.727 -15.866   4.824  0.00  0.00    -0.083 Cl
ENDBRANCH  10  12
ENDBRANCH   6   8
ENDBRANCH   1   2
BRANCH   1  21
ATOM     20  N   UNL     1      -0.869  -5.394   3.172  0.00  0.00    -0.225 N 
ATOM     21  C   UNL     1      -0.263  -6.066   4.171  0.00  0.00    +0.213 C 
ATOM     22  O   UNL     1       0.582  -5.517   4.846  0.00  0.00    -0.276 OA
ATOM     23  H   UNL     1      -1.544  -5.833   2.632  0.00  0.00    +0.173 HD
BRANCH  20  33
ATOM     24  C   UNL     1       1.372   1.972   1.259  0.00  0.00    +0.007 C 
ATOM     25  C   UNL     1       1.284   0.452   1.103  0.00  0.00    -0.014 C 
ATOM     26  C   UNL     1      -0.181   0.040   0.944  0.00  0.00    +0.006 C 
ATOM     27  C   UNL     1      -0.267  -1.480   0.778  0.00  0.00    +0.035 C 
ATOM     28  C   UNL     1       0.342  -2.161   1.998  0.00  0.00    +0.114 C 
ATOM     29  C   UNL     1       1.797  -1.742   2.181  0.00  0.00    +0.035 C 
ATOM     30  C   UNL     1       1.875  -0.222   2.342  0.00  0.00    +0.006 C 
ATOM     31  C   UNL     1       0.237  -3.663   1.871  0.00  0.00    +0.263 C 
ATOM     32  O   UNL     1       0.731  -4.364   1.014  0.00  0.00    -0.271 OA
ATOM     33  N   UNL     1      -0.522  -4.061   2.913  0.00  0.00    -0.137 N 
ATOM     34  C   UNL     1      -0.904  -3.024   3.669  0.00  0.00    +0.326 C 
ATOM     35  O   UNL     1      -1.594  -3.131   4.664  0.00  0.00    -0.251 OA
ATOM     36  N   UNL     1      -0.438  -1.850   3.203  0.00  0.00    -0.284 N 
ATOM     37  H   UNL     1      -0.588  -0.972   3.587  0.00  0.00    +0.151 HD
ENDBRANCH  20  33
ENDBRANCH   1  21
TORSDOF 5
