REMARK  Name = ZINC59385376
REMARK  7 active torsions:
REMARK  status: ('A' for Active; 'I' for Inactive)
REMARK    1  A    between atoms: C_1  and  C_2
REMARK    2  A    between atoms: C_3  and  C_18
REMARK    3  A    between atoms: C_4  and  C_10
REMARK    4  A    between atoms: C_15  and  O_16
REMARK    5  A    between atoms: O_16  and  C_17
REMARK    6  A    between atoms: N_20  and  N_21
REMARK    7  A    between atoms: C_22  and  C_23
REMARK                            x       y       z     vdW  Elec       q    Type
REMARK                         _______ _______ _______ _____ _____    ______ ____
ROOT
ATOM      1  C   UNL     1       0.420   1.349   0.269  0.00  0.00    +0.061 C 
ATOM      2  C   UNL     1       0.261  -0.140   0.099  0.00  0.00    +0.017 C 
ATOM      3  C   UNL     1      -0.976  -0.681   0.113  0.00  0.00    +0.057 C 
ATOM      4  C   UNL     1      -1.090  -2.182  -0.060  0.00  0.00    +0.143 C 
ATOM      5  N   UNL     1       0.165  -2.932  -0.231  0.00  0.00    -0.315 N 
ATOM      6  C   UNL     1       1.327  -2.248  -0.223  0.00  0.00    +0.135 C 
ATOM      7  S   UNL     1       2.795  -3.107  -0.420  0.00  0.00    -0.019 S 
ATOM      8  N   UNL     1       1.370  -0.918  -0.071  0.00  0.00    -0.300 N 
ATOM      9  H   UNL     1       0.157  -3.895  -0.346  0.00  0.00    +0.149 HD
ATOM     10  H   UNL     1       2.237  -0.485  -0.078  0.00  0.00    +0.154 HD
ENDROOT
BRANCH   4  11
ATOM     11  C   UNL     1      -1.955  -2.445  -1.266  0.00  0.00    +0.019 A 
ATOM     12  C   UNL     1      -2.163  -1.448  -2.199  0.00  0.00    +0.009 A 
ATOM     13  C   UNL     1      -2.957  -1.689  -3.305  0.00  0.00    +0.001 A 
ATOM     14  C   UNL     1      -3.544  -2.928  -3.481  0.00  0.00    +0.004 A 
ATOM     15  C   UNL     1      -3.340  -3.929  -2.551  0.00  0.00    +0.046 A 
ATOM     16  C   UNL     1      -2.539  -3.691  -1.443  0.00  0.00    +0.125 A 
BRANCH  16  17
ATOM     17  O   UNL     1      -2.332  -4.676  -0.529  0.00  0.00    -0.495 OA
ATOM     18  C   UNL     1      -2.871  -5.964  -0.830  0.00  0.00    +0.277 C 
ENDBRANCH  16  17
ENDBRANCH   4  11
BRANCH   3  19
ATOM     19  C   UNL     1      -2.127   0.126   0.284  0.00  0.00    +0.263 C 
ATOM     20  O   UNL     1      -2.007   1.321   0.488  0.00  0.00    -0.269 OA
ATOM     21  N   UNL     1      -3.354  -0.427   0.221  0.00  0.00    -0.203 N 
ATOM     22  H   UNL     1      -3.448  -1.389   0.140  0.00  0.00    +0.178 HD
BRANCH  21  23
ATOM     23  N   UNL     1      -4.493   0.386   0.273  0.00  0.00    -0.187 NA
ATOM     24  C   UNL     1      -5.673  -0.152   0.310  0.00  0.00    +0.141 C 
BRANCH  24  25
ATOM     25  C   UNL     1      -6.875   0.701   0.254  0.00  0.00    +0.030 A 
ATOM     26  C   UNL     1      -8.147   0.127   0.299  0.00  0.00    +0.012 A 
ATOM     27  C   UNL     1      -9.266   0.930   0.245  0.00  0.00    +0.001 A 
ATOM     28  C   UNL     1      -9.132   2.304   0.146  0.00  0.00    +0.003 A 
ATOM     29  C   UNL     1      -7.877   2.883   0.100  0.00  0.00    +0.039 A 
ATOM     30  C   UNL     1      -6.746   2.091   0.159  0.00  0.00    +0.132 A 
ATOM     31  F   UNL     1      -5.520   2.657   0.120  0.00  0.00    -0.205 F 
ENDBRANCH  24  25
ENDBRANCH  21  23
ENDBRANCH   3  19
TORSDOF 5
