REMARK  Name = ZINC22573820
REMARK  12 active torsions:
REMARK  status: ('A' for Active; 'I' for Inactive)
REMARK    1  A    between atoms: C_1  and  C_2
REMARK    2  A    between atoms: C_2  and  C_3
REMARK    3  A    between atoms: C_2  and  C_4
REMARK    4  A    between atoms: C_2  and  C_5
REMARK    5  A    between atoms: C_8  and  C_11
REMARK    6  A    between atoms: C_14  and  S_17
REMARK    7  A    between atoms: N_15  and  N_16
REMARK    8  A    between atoms: S_17  and  C_18
REMARK    9  A    between atoms: C_18  and  C_19
REMARK   10  A    between atoms: N_21  and  C_22
REMARK   11  A    between atoms: C_22  and  C_23
REMARK   12  A    between atoms: N_25  and  C_26
REMARK                            x       y       z     vdW  Elec       q    Type
REMARK                         _______ _______ _______ _____ _____    ______ ____
ROOT
ATOM      1  S   UNL     1       5.289   9.885   0.442  0.00  0.00    -0.075 S 
ENDROOT
BRANCH   1   5
ATOM      2  C   UNL     1       8.963  11.130   0.909  0.00  0.00    +0.182 A 
ATOM      3  N   UNL     1       9.098   9.824   0.921  0.00  0.00    -0.127 NA
ATOM      4  N   UNL     1       7.950   9.264   0.779  0.00  0.00    -0.121 NA
ATOM      5  C   UNL     1       7.013  10.178   0.659  0.00  0.00    +0.209 A 
ATOM      6  N   UNL     1       7.624  11.396   0.741  0.00  0.00    -0.224 N 
BRANCH   2  10
ATOM      7  C   UNL     1      12.076  13.992   1.313  0.00  0.00    -0.042 A 
ATOM      8  C   UNL     1      10.759  14.376   1.494  0.00  0.00    +0.005 A 
ATOM      9  C   UNL     1       9.743  13.451   1.365  0.00  0.00    +0.012 A 
ATOM     10  C   UNL     1      10.047  12.126   1.050  0.00  0.00    +0.021 A 
ATOM     11  C   UNL     1      11.377  11.744   0.873  0.00  0.00    +0.012 A 
ATOM     12  C   UNL     1      12.383  12.680   1.001  0.00  0.00    +0.005 A 
BRANCH   7  14
ATOM     13  C   UNL     1      13.155  15.592   2.870  0.00  0.00    +0.015 C 
ATOM     14  C   UNL     1      13.180  15.008   1.456  0.00  0.00    -0.013 C 
ATOM     15  C   UNL     1      14.530  14.332   1.208  0.00  0.00    +0.015 C 
ATOM     16  C   UNL     1      12.976  16.130   0.437  0.00  0.00    +0.015 C 
ENDBRANCH   7  14
ENDBRANCH   2  10
BRANCH   6  17
ATOM     17  N   UNL     1       7.029  12.624   0.671  0.00  0.00    -0.295 N 
ATOM     18  H   UNL     1       5.941  12.700   0.534  0.00  0.00    +0.163 HD
ATOM     19  H   UNL     1       7.639  13.536   0.751  0.00  0.00    +0.163 HD
ENDBRANCH   6  17
ENDBRANCH   1   5
BRANCH   1  20
ATOM     20  C   UNL     1       5.276   8.075   0.433  0.00  0.00    +0.173 C 
BRANCH  20  21
ATOM     21  C   UNL     1       3.863   7.584   0.254  0.00  0.00    +0.224 C 
ATOM     22  O   UNL     1       2.954   8.379   0.143  0.00  0.00    -0.275 OA
ATOM     23  N   UNL     1       3.609   6.261   0.216  0.00  0.00    -0.306 N 
ATOM     24  H   UNL     1       4.434   5.539   0.317  0.00  0.00    +0.149 HD
BRANCH  23  25
ATOM     25  C   UNL     1       2.235   5.783   0.042  0.00  0.00    +0.200 C 
BRANCH  25  26
ATOM     26  C   UNL     1       2.225   4.276   0.035  0.00  0.00    +0.234 C 
ATOM     27  O   UNL     1       3.263   3.661   0.162  0.00  0.00    -0.274 OA
ATOM     28  N   UNL     1       1.062   3.611  -0.114  0.00  0.00    -0.282 N 
ATOM     29  H   UNL     1       0.134   4.165  -0.319  0.00  0.00    +0.155 HD
BRANCH  28  30
ATOM     30  C   UNL     1       1.035   2.214  -0.007  0.00  0.00    +0.072 A 
ATOM     31  C   UNL     1       2.014   1.554   0.722  0.00  0.00    +0.029 A 
ATOM     32  C   UNL     1       1.987   0.176   0.827  0.00  0.00    +0.043 A 
ATOM     33  C   UNL     1       0.984  -0.548   0.205  0.00  0.00    +0.161 A 
ATOM     34  C   UNL     1       0.004   0.107  -0.525  0.00  0.00    +0.195 A 
ATOM     35  C   UNL     1       0.028   1.488  -0.632  0.00  0.00    +0.182 A 
ATOM     36  F   UNL     1      -0.923   2.127  -1.348  0.00  0.00    -0.200 F 
ATOM     37  F   UNL     1      -0.973  -0.601  -1.133  0.00  0.00    -0.199 F 
ATOM     38  F   UNL     1       0.961  -1.895   0.308  0.00  0.00    -0.202 F 
ENDBRANCH  28  30
ENDBRANCH  25  26
ENDBRANCH  23  25
ENDBRANCH  20  21
ENDBRANCH   1  20
TORSDOF 9
