REMARK  Name = ZINC00070041
REMARK  2 active torsions:
REMARK  status: ('A' for Active; 'I' for Inactive)
REMARK    1  A    between atoms: C_7  and  C_24
REMARK    2  A    between atoms: N_15  and  C_18
REMARK                            x       y       z     vdW  Elec       q    Type
REMARK                         _______ _______ _______ _____ _____    ______ ____
ROOT
ATOM      1  C   UNL     1      -0.013   1.076   0.008  0.00  0.00    +0.000 A 
ATOM      2  C   UNL     1       1.179   1.780   0.000  0.00  0.00    +0.001 A 
ATOM      3  C   UNL     1       1.169   3.161   0.012  0.00  0.00    +0.013 A 
ATOM      4  C   UNL     1      -0.045   3.841   0.029  0.00  0.00    +0.041 A 
ATOM      5  C   UNL     1      -1.246   3.125   0.028  0.00  0.00    -0.019 A 
ATOM      6  C   UNL     1      -1.223   1.748   0.017  0.00  0.00    +0.005 A 
ATOM      7  C   UNL     1      -2.551   3.876   0.019  0.00  0.00    +0.156 C 
ATOM      8  C   UNL     1      -2.393   5.175   0.838  0.00  0.00    +0.055 C 
ATOM      9  C   UNL     1      -2.045   4.735   2.266  0.00  0.00    +0.027 C 
ATOM     10  C   UNL     1      -2.105   5.915   3.232  0.00  0.00    +0.002 C 
ATOM     11  C   UNL     1      -3.540   6.449   3.253  0.00  0.00    +0.000 C 
ATOM     12  C   UNL     1      -3.876   6.994   1.866  0.00  0.00    +0.002 C 
ATOM     13  C   UNL     1      -3.711   5.927   0.795  0.00  0.00    +0.027 C 
ATOM     14  N   UNL     1      -1.276   5.937   0.286  0.00  0.00    -0.288 N 
ATOM     15  C   UNL     1      -0.101   5.316   0.029  0.00  0.00    +0.248 C 
ATOM     16  O   UNL     1       0.894   5.974  -0.199  0.00  0.00    -0.270 OA
ENDROOT
BRANCH  14  17
ATOM     17  C   UNL     1      -1.376   7.364  -0.026  0.00  0.00    +0.077 C 
ATOM     18  C   UNL     1      -1.106   7.580  -1.516  0.00  0.00    +0.022 C 
ATOM     19  C   UNL     1      -1.209   9.072  -1.843  0.00  0.00    +0.002 C 
ATOM     20  C   UNL     1      -0.178   9.846  -1.020  0.00  0.00    +0.000 C 
ATOM     21  C   UNL     1      -0.448   9.631   0.470  0.00  0.00    +0.002 C 
ATOM     22  C   UNL     1      -0.344   8.139   0.796  0.00  0.00    +0.022 C 
ENDBRANCH  14  17
BRANCH   7  23
ATOM     23  C   UNL     1      -2.929   4.207  -1.398  0.00  0.00    +0.365 C 
ATOM     24  O   UNL     1      -3.064   5.359  -1.734  0.00  0.00    -0.246 OA
ATOM     25  O   UNL     1      -3.116   3.221  -2.290  0.00  0.00    -0.246 OA
ENDBRANCH   7  23
TORSDOF 2
