REMARK  Name = ZINC13621149
REMARK  12 active torsions:
REMARK  status: ('A' for Active; 'I' for Inactive)
REMARK    1  A    between atoms: C_1  and  C_2
REMARK    2  A    between atoms: C_2  and  O_3
REMARK    3  A    between atoms: O_3  and  C_4
REMARK    4  A    between atoms: C_7  and  C_10
REMARK    5  A    between atoms: C_11  and  C_12
REMARK    6  A    between atoms: N_14  and  C_15
REMARK    7  A    between atoms: C_15  and  N_17
REMARK    8  A    between atoms: N_17  and  N_18
REMARK    9  A    between atoms: C_19  and  C_21
REMARK   10  A    between atoms: C_24  and  N_27
REMARK   11  A    between atoms: C_28  and  C_30
REMARK   12  A    between atoms: C_35  and  C_36
REMARK                            x       y       z     vdW  Elec       q    Type
REMARK                         _______ _______ _______ _____ _____    ______ ____
ROOT
ATOM      1  N   UNL     1       1.062   1.750   0.321  0.00  0.00    -0.231 N 
ATOM      2  C   UNL     1      -0.108   1.081   0.312  0.00  0.00    +0.260 C 
ATOM      3  O   UNL     1      -0.113  -0.135   0.330  0.00  0.00    -0.269 OA
ATOM      4  H   UNL     1       1.065   2.720   0.306  0.00  0.00    +0.173 HD
ENDROOT
BRANCH   2   5
ATOM      5  C   UNL     1      -1.383   1.823   0.273  0.00  0.00    +0.038 A 
ATOM      6  C   UNL     1      -1.379   3.220   0.258  0.00  0.00    +0.015 A 
ATOM      7  C   UNL     1      -2.570   3.910   0.215  0.00  0.00    +0.024 A 
ATOM      8  C   UNL     1      -3.777   3.217   0.200  0.00  0.00    +0.034 A 
ATOM      9  C   UNL     1      -3.784   1.826   0.221  0.00  0.00    +0.024 A 
ATOM     10  C   UNL     1      -2.597   1.130   0.258  0.00  0.00    +0.015 A 
BRANCH   8  11
ATOM     11  N   UNL     1      -4.981   3.918   0.163  0.00  0.00    -0.281 N 
ATOM     12  C   UNL     1      -6.026   3.426  -0.530  0.00  0.00    +0.249 C 
ATOM     13  O   UNL     1      -5.950   2.329  -1.048  0.00  0.00    -0.270 OA
ATOM     14  H   UNL     1      -5.066   4.761   0.636  0.00  0.00    +0.155 HD
BRANCH  12  15
ATOM     15  C   UNL     1      -7.266   4.219  -0.660  0.00  0.00    +0.040 A 
ATOM     16  C   UNL     1      -7.329   5.513  -0.140  0.00  0.00    +0.013 A 
ATOM     17  C   UNL     1      -8.488   6.250  -0.268  0.00  0.00    +0.001 A 
ATOM     18  C   UNL     1      -9.591   5.705  -0.903  0.00  0.00    +0.000 A 
ATOM     19  C   UNL     1      -9.537   4.422  -1.417  0.00  0.00    +0.004 A 
ATOM     20  C   UNL     1      -8.382   3.676  -1.299  0.00  0.00    -0.038 A 
ATOM     21  C   UNL     1      -8.326   2.278  -1.859  0.00  0.00    +0.044 C 
ENDBRANCH  12  15
ENDBRANCH   8  11
ENDBRANCH   2   5
BRANCH   1  22
ATOM     22  N   UNL     1       2.272   1.045   0.352  0.00  0.00    -0.245 N 
ATOM     23  H   UNL     1       2.268   0.075   0.367  0.00  0.00    +0.172 HD
BRANCH  22  24
ATOM     24  C   UNL     1       3.442   1.714   0.361  0.00  0.00    +0.153 C 
ATOM     25  S   UNL     1       4.920   0.853   0.399  0.00  0.00    -0.017 S 
BRANCH  24  28
ATOM     26  C   UNL     1       4.617   3.731   0.350  0.00  0.00    +0.242 C 
ATOM     27  O   UNL     1       5.668   3.119   0.377  0.00  0.00    -0.270 OA
ATOM     28  N   UNL     1       3.447   3.062   0.341  0.00  0.00    -0.263 N 
ATOM     29  H   UNL     1       2.609   3.550   0.320  0.00  0.00    +0.157 HD
BRANCH  26  31
ATOM     30  C   UNL     1       5.795   5.863   0.337  0.00  0.00    +0.013 C 
ATOM     31  C   UNL     1       4.623   5.192   0.328  0.00  0.00    +0.068 C 
BRANCH  30  35
ATOM     32  C   UNL     1       5.812  10.104   0.272  0.00  0.00    +0.121 A 
ATOM     33  C   UNL     1       7.014   9.407   0.303  0.00  0.00    +0.046 A 
ATOM     34  C   UNL     1       7.014   8.030   0.325  0.00  0.00    +0.011 A 
ATOM     35  C   UNL     1       5.801   7.333   0.315  0.00  0.00    -0.025 A 
ATOM     36  C   UNL     1       4.593   8.040   0.278  0.00  0.00    +0.011 A 
ATOM     37  C   UNL     1       4.604   9.416   0.262  0.00  0.00    +0.046 A 
BRANCH  32  38
ATOM     38  O   UNL     1       5.817  11.461   0.252  0.00  0.00    -0.492 OA
BRANCH  38  40
ATOM     39  C   UNL     1       4.753  13.631   0.201  0.00  0.00    +0.048 C 
ATOM     40  C   UNL     1       4.547  12.115   0.220  0.00  0.00    +0.225 C 
ENDBRANCH  38  40
ENDBRANCH  32  38
ENDBRANCH  30  35
ENDBRANCH  26  31
ENDBRANCH  24  28
ENDBRANCH  22  24
ENDBRANCH   1  22
TORSDOF 10
