REMARK  Name = ZINC44783150
REMARK  8 active torsions:
REMARK  status: ('A' for Active; 'I' for Inactive)
REMARK    1  A    between atoms: C_1  and  C_2
REMARK    2  A    between atoms: C_2  and  C_3
REMARK    3  A    between atoms: C_3  and  C_4
REMARK    4  A    between atoms: C_3  and  C_6
REMARK    5  A    between atoms: C_3  and  C_10
REMARK    6  A    between atoms: C_4  and  C_5
REMARK    7  A    between atoms: N_7  and  O_8
REMARK    8  A    between atoms: N_12  and  C_13
REMARK                            x       y       z     vdW  Elec       q    Type
REMARK                         _______ _______ _______ _____ _____    ______ ____
ROOT
ATOM      1  C   UNL     1       0.727  -0.353  -1.369  0.00  0.00    +0.105 C 
ENDROOT
BRANCH   1   2
ATOM      2  C   UNL     1      -0.189  -0.125  -2.543  0.00  0.00    +0.147 C 
ATOM      3  N   UNL     1      -1.291   0.531  -2.385  0.00  0.00    -0.076 NA
ATOM      4  N   UNL     1       0.147  -0.617  -3.785  0.00  0.00    -0.343 N 
ATOM      5  H   UNL     1       1.005  -1.050  -3.919  0.00  0.00    +0.144 HD
ATOM      6  H   UNL     1      -0.473  -0.529  -4.526  0.00  0.00    +0.144 HD
BRANCH   3   7
ATOM      7  O   UNL     1      -2.152   0.745  -3.489  0.00  0.00    -0.408 OA
ATOM      8  H   UNL     1      -2.951   1.246  -3.273  0.00  0.00    +0.328 HD
ENDBRANCH   3   7
ENDBRANCH   1   2
BRANCH   1   9
ATOM      9  C   UNL     1       2.116   0.119  -1.716  0.00  0.00    +0.231 C 
ATOM     10  O   UNL     1       2.339   0.594  -2.810  0.00  0.00    -0.274 OA
ATOM     11  N   UNL     1       3.109   0.014  -0.812  0.00  0.00    -0.285 N 
ATOM     12  H   UNL     1       2.951  -0.438   0.032  0.00  0.00    +0.155 HD
BRANCH  11  13
ATOM     13  C   UNL     1       4.368   0.558  -1.089  0.00  0.00    +0.034 A 
ATOM     14  C   UNL     1       5.516  -0.072  -0.625  0.00  0.00    +0.023 A 
ATOM     15  C   UNL     1       6.757   0.466  -0.901  0.00  0.00    +0.003 A 
ATOM     16  C   UNL     1       6.859   1.631  -1.638  0.00  0.00    +0.014 A 
ATOM     17  C   UNL     1       5.718   2.262  -2.102  0.00  0.00    +0.015 A 
ATOM     18  C   UNL     1       4.474   1.725  -1.834  0.00  0.00    +0.037 A 
ATOM     19  I   UNL     1       5.879   4.027  -3.218  0.00  0.00    -0.044 I 
ENDBRANCH  11  13
ENDBRANCH   1   9
BRANCH   1  21
ATOM     20  C   UNL     1       0.172   1.921  -0.495  0.00  0.00    +0.005 C 
ATOM     21  C   UNL     1       0.210   0.428  -0.160  0.00  0.00    +0.020 C 
ENDBRANCH   1  21
BRANCH   1  22
ATOM     22  C   UNL     1       0.765  -1.845  -1.034  0.00  0.00    +0.020 C 
ATOM     23  C   UNL     1      -0.649  -2.331  -0.709  0.00  0.00    +0.005 C 
ENDBRANCH   1  22
TORSDOF 6
