REMARK  Name = ZINC00874694
REMARK  8 active torsions:
REMARK  status: ('A' for Active; 'I' for Inactive)
REMARK    1  A    between atoms: C_1  and  C_2
REMARK    2  A    between atoms: C_3  and  C_23
REMARK    3  A    between atoms: C_4  and  C_16
REMARK    4  A    between atoms: C_6  and  C_14
REMARK    5  A    between atoms: C_7  and  S_9
REMARK    6  A    between atoms: S_9  and  C_10
REMARK    7  A    between atoms: C_10  and  C_11
REMARK    8  A    between atoms: N_25  and  C_26
REMARK                            x       y       z     vdW  Elec       q    Type
REMARK                         _______ _______ _______ _____ _____    ______ ____
ROOT
ATOM      1  C   UNL     1       7.026   1.819   0.065  0.00  0.00    +0.061 C 
ATOM      2  C   UNL     1       7.197   0.323   0.016  0.00  0.00    +0.014 C 
ATOM      3  C   UNL     1       6.112  -0.466  -0.033  0.00  0.00    +0.044 C 
ATOM      4  C   UNL     1       6.224  -1.962  -0.086  0.00  0.00    +0.100 C 
ATOM      5  C   UNL     1       7.603  -2.410   0.303  0.00  0.00    +0.069 C 
ATOM      6  C   UNL     1       8.645  -1.538   0.340  0.00  0.00    +0.080 C 
ATOM      7  N   UNL     1       8.457  -0.211   0.021  0.00  0.00    -0.312 N 
ATOM      8  H   UNL     1       9.323   0.420  -0.229  0.00  0.00    +0.152 HD
ENDROOT
BRANCH   4   9
ATOM      9  C   UNL     1       5.933  -2.431  -1.489  0.00  0.00    -0.016 A 
ATOM     10  C   UNL     1       6.718  -1.996  -2.540  0.00  0.00    +0.006 A 
ATOM     11  C   UNL     1       6.451  -2.425  -3.826  0.00  0.00    +0.000 A 
ATOM     12  C   UNL     1       5.400  -3.292  -4.062  0.00  0.00    +0.001 A 
ATOM     13  C   UNL     1       4.615  -3.728  -3.012  0.00  0.00    +0.020 A 
ATOM     14  C   UNL     1       4.885  -3.302  -1.723  0.00  0.00    +0.045 A 
ATOM     15 CL   UNL     1       3.904  -3.856  -0.402  0.00  0.00    -0.083 Cl
ENDBRANCH   4   9
BRANCH   3  16
ATOM     16  C   UNL     1       4.827   0.129  -0.027  0.00  0.00    +0.247 C 
ATOM     17  O   UNL     1       4.217   0.251   1.020  0.00  0.00    -0.270 OA
ATOM     18  N   UNL     1       4.280   0.561  -1.181  0.00  0.00    -0.282 N 
ATOM     19  H   UNL     1       4.786   0.365  -2.137  0.00  0.00    +0.155 HD
BRANCH  18  20
ATOM     20  C   UNL     1       3.068   1.258  -1.161  0.00  0.00    +0.034 A 
ATOM     21  C   UNL     1       2.693   1.972  -0.030  0.00  0.00    +0.023 A 
ATOM     22  C   UNL     1       1.496   2.660  -0.015  0.00  0.00    +0.002 A 
ATOM     23  C   UNL     1       0.669   2.638  -1.123  0.00  0.00    +0.000 A 
ATOM     24  C   UNL     1       1.039   1.928  -2.251  0.00  0.00    +0.002 A 
ATOM     25  C   UNL     1       2.235   1.238  -2.273  0.00  0.00    +0.023 A 
ENDBRANCH  18  20
ENDBRANCH   3  16
BRANCH   5  26
ATOM     26  C   UNL     1       7.824  -3.783   0.647  0.00  0.00    +0.098 C 
ATOM     27  N   UNL     1       7.999  -4.871   0.920  0.00  0.00    -0.191 NA
ENDBRANCH   5  26
BRANCH   6  28
ATOM     28  S   UNL     1      10.248  -2.108   0.798  0.00  0.00    -0.100 S 
BRANCH  28  29
ATOM     29  C   UNL     1      11.181  -0.562   0.671  0.00  0.00    +0.171 C 
BRANCH  29  30
ATOM     30  C   UNL     1      12.623  -0.814   1.028  0.00  0.00    +0.221 C 
ATOM     31  O   UNL     1      12.984  -1.929   1.339  0.00  0.00    -0.275 OA
ATOM     32  N   UNL     1      13.510   0.200   1.003  0.00  0.00    -0.329 N 
ATOM     33  H   UNL     1      14.563   0.016   1.264  0.00  0.00    +0.145 HD
ATOM     34  H   UNL     1      13.182   1.211   0.721  0.00  0.00    +0.145 HD
ENDBRANCH  29  30
ENDBRANCH  28  29
ENDBRANCH   6  28
TORSDOF 7
