REMARK  Name = ZINC20877762
REMARK  4 active torsions:
REMARK  status: ('A' for Active; 'I' for Inactive)
REMARK    1  A    between atoms: C_6  and  N_7
REMARK    2  A    between atoms: N_7  and  C_8
REMARK    3  A    between atoms: C_8  and  C_9
REMARK    4  A    between atoms: C_12  and  C_14
REMARK                            x       y       z     vdW  Elec       q    Type
REMARK                         _______ _______ _______ _____ _____    ______ ____
ROOT
ATOM      1  N   UNL     1       1.763   3.736  -1.377  0.00  0.00    -0.337 N 
ATOM      2  H   UNL     1       1.565   3.051  -2.215  0.00  0.00    +0.147 HD
ENDROOT
BRANCH   1   8
ATOM      3  C   UNL     1       2.378   5.927  -0.571  0.00  0.00    +0.025 A 
ATOM      4  C   UNL     1       2.738   7.238  -0.814  0.00  0.00    +0.029 A 
ATOM      5  C   UNL     1       2.851   7.694  -2.118  0.00  0.00    +0.067 A 
ATOM      6  C   UNL     1       2.600   6.828  -3.185  0.00  0.00    +0.069 A 
ATOM      7  C   UNL     1       2.243   5.512  -2.938  0.00  0.00    +0.050 A 
ATOM      8  C   UNL     1       2.127   5.063  -1.630  0.00  0.00    +0.030 A 
ATOM      9  N   UNL     1       2.790   7.562  -4.353  0.00  0.00    -0.306 N 
ATOM     10  H   UNL     1       2.647   7.083  -5.333  0.00  0.00    +0.170 HD
ATOM     11  C   UNL     1       3.140   8.817  -4.015  0.00  0.00    +0.325 A 
ATOM     12  O   UNL     1       3.380   9.714  -4.801  0.00  0.00    -0.247 OA
ATOM     13  N   UNL     1       3.186   8.930  -2.674  0.00  0.00    -0.306 N 
ATOM     14  H   UNL     1       3.428   9.780  -2.019  0.00  0.00    +0.170 HD
ENDBRANCH   1   8
BRANCH   1  15
ATOM     15  C   UNL     1       1.646   3.259   0.003  0.00  0.00    +0.176 C 
BRANCH  15  16
ATOM     16  C   UNL     1       1.244   1.806  -0.000  0.00  0.00    +0.123 A 
ATOM     17  C   UNL     1       2.090   0.757  -0.014  0.00  0.00    +0.047 A 
ATOM     18  C   UNL     1       1.300  -0.410  -0.013  0.00  0.00    +0.050 A 
ATOM     19  C   UNL     1       0.002  -0.004   0.002  0.00  0.00    +0.137 A 
ATOM     20  O   UNL     1      -0.016   1.343   0.009  0.00  0.00    -0.458 OA
BRANCH  19  21
ATOM     21  C   UNL     1      -1.183  -0.887   0.008  0.00  0.00    +0.036 A 
ATOM     22  C   UNL     1      -1.292  -1.920  -0.925  0.00  0.00    +0.014 A 
ATOM     23  C   UNL     1      -2.397  -2.745  -0.911  0.00  0.00    +0.021 A 
ATOM     24  C   UNL     1      -3.403  -2.544   0.019  0.00  0.00    +0.042 A 
ATOM     25  C   UNL     1      -3.304  -1.519   0.945  0.00  0.00    +0.040 A 
ATOM     26  C   UNL     1      -2.200  -0.690   0.944  0.00  0.00    +0.053 A 
ATOM     27 CL   UNL     1      -2.077   0.596   2.104  0.00  0.00    -0.083 Cl
ATOM     28 CL   UNL     1      -4.795  -3.582   0.026  0.00  0.00    -0.083 Cl
ENDBRANCH  19  21
ENDBRANCH  15  16
ENDBRANCH   1  15
TORSDOF 4
