REMARK  Name = ZINC03108941
REMARK  9 active torsions:
REMARK  status: ('A' for Active; 'I' for Inactive)
REMARK    1  A    between atoms: C_1  and  C_2
REMARK    2  A    between atoms: C_6  and  O_8
REMARK    3  A    between atoms: O_8  and  C_9
REMARK    4  A    between atoms: C_9  and  C_10
REMARK    5  A    between atoms: N_12  and  C_13
REMARK    6  A    between atoms: C_13  and  C_14
REMARK    7  A    between atoms: N_16  and  N_17
REMARK    8  A    between atoms: C_18  and  C_19
REMARK    9  A    between atoms: C_24  and  O_25
REMARK                            x       y       z     vdW  Elec       q    Type
REMARK                         _______ _______ _______ _____ _____    ______ ____
ROOT
ATOM      1  C   UNL     1       0.135  -8.198   5.090  0.00  0.00    +0.249 C 
ATOM      2  O   UNL     1       0.137  -8.741   4.005  0.00  0.00    -0.272 OA
ATOM      3  N   UNL     1       0.149  -8.940   6.215  0.00  0.00    -0.206 N 
ATOM      4  H   UNL     1       0.148  -8.505   7.083  0.00  0.00    +0.177 HD
ENDROOT
BRANCH   3   5
ATOM      5  N   UNL     1       0.168 -10.338   6.132  0.00  0.00    -0.188 NA
ATOM      6  C   UNL     1       0.182 -11.053   7.216  0.00  0.00    +0.142 C 
BRANCH   6   7
ATOM      7  C   UNL     1       0.201 -12.524   7.128  0.00  0.00    +0.038 A 
ATOM      8  C   UNL     1       0.211 -13.296   8.292  0.00  0.00    +0.028 A 
ATOM      9  C   UNL     1       0.228 -14.673   8.204  0.00  0.00    +0.020 A 
ATOM     10  C   UNL     1       0.236 -15.293   6.965  0.00  0.00    +0.034 A 
ATOM     11  C   UNL     1       0.227 -14.539   5.806  0.00  0.00    +0.061 A 
ATOM     12  C   UNL     1       0.204 -13.155   5.878  0.00  0.00    +0.139 A 
ATOM     13 BR   UNL     1       0.238 -15.398   4.121  0.00  0.00    -0.046 Br
ATOM     14 BR   UNL     1       0.242 -15.718   9.780  0.00  0.00    -0.050 Br
BRANCH  12  15
ATOM     15  O   UNL     1       0.189 -12.414   4.739  0.00  0.00    -0.505 OA
ATOM     16  H   UNL     1       1.068 -12.187   4.406  0.00  0.00    +0.292 HD
ENDBRANCH  12  15
ENDBRANCH   6   7
ENDBRANCH   3   5
BRANCH   1  17
ATOM     17  C   UNL     1       0.115  -6.694   5.179  0.00  0.00    +0.202 C 
BRANCH  17  20
ATOM     18  C   UNL     1       0.083  -4.787   3.662  0.00  0.00    +0.251 C 
ATOM     19  O   UNL     1       0.077  -4.055   4.629  0.00  0.00    -0.272 OA
ATOM     20  N   UNL     1       0.101  -6.125   3.830  0.00  0.00    -0.304 N 
ATOM     21  H   UNL     1       0.105  -6.710   3.056  0.00  0.00    +0.149 HD
BRANCH  18  22
ATOM     22  C   UNL     1       0.069  -4.202   2.274  0.00  0.00    +0.324 C 
BRANCH  22  23
ATOM     23  O   UNL     1       0.050  -2.776   2.358  0.00  0.00    -0.483 OA
BRANCH  23  29
ATOM     24  C   UNL     1      -0.018   1.503   0.010  0.00  0.00    +0.044 C 
ATOM     25  C   UNL     1       0.002  -0.004   0.002  0.00  0.00    -0.047 A 
ATOM     26  C   UNL     1       0.006  -0.688  -1.200  0.00  0.00    +0.003 A 
ATOM     27  C   UNL     1       0.024  -2.071  -1.211  0.00  0.00    +0.004 A 
ATOM     28  C   UNL     1       0.039  -2.772  -0.020  0.00  0.00    +0.045 A 
ATOM     29  C   UNL     1       0.035  -2.088   1.186  0.00  0.00    +0.121 A 
ATOM     30  C   UNL     1       0.023  -0.700   1.195  0.00  0.00    +0.049 A 
ENDBRANCH  23  29
ENDBRANCH  22  23
ENDBRANCH  18  22
ENDBRANCH  17  20
ENDBRANCH   1  17
TORSDOF 8
