REMARK  Name = ZINC02886226
REMARK  8 active torsions:
REMARK  status: ('A' for Active; 'I' for Inactive)
REMARK    1  A    between atoms: C_1  and  C_2
REMARK    2  A    between atoms: C_2  and  O_3
REMARK    3  A    between atoms: O_3  and  C_4
REMARK    4  A    between atoms: C_7  and  C_24
REMARK    5  A    between atoms: C_9  and  S_10
REMARK    6  A    between atoms: S_10  and  N_13
REMARK    7  A    between atoms: C_19  and  C_23
REMARK    8  A    between atoms: C_20  and  C_22
REMARK                            x       y       z     vdW  Elec       q    Type
REMARK                         _______ _______ _______ _____ _____    ______ ____
ROOT
ATOM      1  S   UNL     1      -4.474   2.499   2.334  0.00  0.00    +0.089 S 
ATOM      2  O   UNL     1      -4.694   3.786   2.894  0.00  0.00    -0.147 OA
ATOM      3  O   UNL     1      -4.918   2.149   1.030  0.00  0.00    -0.147 OA
ENDROOT
BRANCH   1   4
ATOM      4  N   UNL     1      -5.156   1.407   3.375  0.00  0.00    -0.198 N 
ATOM      5  C   UNL     1      -5.819   1.697   4.527  0.00  0.00    +0.223 A 
ATOM      6  N   UNL     1      -6.224   0.600   5.098  0.00  0.00    -0.234 NA
ATOM      7  C   UNL     1      -5.848  -0.470   4.351  0.00  0.00    +0.091 A 
ATOM      8  C   UNL     1      -5.162   0.034   3.232  0.00  0.00    +0.092 A 
ATOM      9  C   UNL     1      -4.660  -0.841   2.279  0.00  0.00    +0.033 A 
ATOM     10  C   UNL     1      -4.841  -2.199   2.436  0.00  0.00    -0.045 A 
ATOM     11  C   UNL     1      -5.521  -2.695   3.538  0.00  0.00    -0.045 A 
ATOM     12  C   UNL     1      -6.016  -1.849   4.491  0.00  0.00    +0.033 A 
ATOM     13  C   UNL     1      -5.709  -4.183   3.692  0.00  0.00    +0.044 C 
ATOM     14  C   UNL     1      -4.297  -3.151   1.401  0.00  0.00    +0.044 C 
ENDBRANCH   1   4
BRANCH   1  20
ATOM     15  C   UNL     1      -2.013   2.463   3.524  0.00  0.00    +0.147 A 
ATOM     16  C   UNL     1      -0.642   2.250   3.543  0.00  0.00    +0.048 A 
ATOM     17  C   UNL     1       0.002   1.805   2.405  0.00  0.00    +0.007 A 
ATOM     18  C   UNL     1      -0.718   1.572   1.248  0.00  0.00    -0.048 A 
ATOM     19  C   UNL     1      -2.083   1.789   1.225  0.00  0.00    +0.036 A 
ATOM     20  C   UNL     1      -2.733   2.229   2.362  0.00  0.00    +0.153 A 
ATOM     21  C   UNL     1      -0.013   1.086   0.008  0.00  0.00    +0.044 C 
BRANCH  15  22
ATOM     22  O   UNL     1      -2.649   2.902   4.642  0.00  0.00    -0.490 OA
BRANCH  22  24
ATOM     23  C   UNL     1      -2.729   3.610   6.952  0.00  0.00    +0.048 C 
ATOM     24  C   UNL     1      -1.844   3.123   5.802  0.00  0.00    +0.226 C 
ENDBRANCH  22  24
ENDBRANCH  15  22
ENDBRANCH   1  20
TORSDOF 4
